# MOL2 file generated by ConQuest
# Please check atom types

@<TRIPOS>MOLECULE
QOFQUX
    27    25     2
SMALL
NO_CHARGES
****
Generated from CSD

@<TRIPOS>ATOM
      1 O1        -1.0691    3.9574    4.0429 O.3       1 RES1    0.0000
      2 H1        -1.7947    3.8767    3.4802 H         1 RES1    0.0000
      3 O2        -2.8267    0.8649    4.7333 Du        2 SUP2    0.0000
      4 O3        -2.4912   -0.8145    6.5737 O.3       1 RES1    0.0000
      5 H2        -3.3153   -0.8404    6.4928 H         1 RES1    0.0000
      6 N1        -1.5472    2.9644    4.9872 N.3       1 RES1    0.0000
      7 H3        -1.8338    3.1897    5.6045 H         1 RES1    0.0000
      8 N2        -1.8803    0.1228    5.6413 N.3       1 RES1    0.0000
      9 H4        -1.5564   -0.2454    5.1849 H         1 RES1    0.0000
     10 C1        -0.4213    2.0718    5.3603 C.3       1 RES1    0.0000
     11 C2         0.7071    2.9019    5.9740 C.3       1 RES1    0.0000
     12 H5         0.9234    3.5945    5.3530 H         1 RES1    0.0000
     13 H6         1.4769    2.3800    6.1018 H         1 RES1    0.0000
     14 H7         0.4016    3.2878    6.8084 H         1 RES1    0.0000
     15 C3         0.1042    1.3802    4.1023 C.3       1 RES1    0.0000
     16 H8        -0.6054    1.0244    3.6323 H         1 RES1    0.0000
     17 H9         0.5821    2.0120    3.5706 H         1 RES1    0.0000
     18 H10        0.6941    0.6073    4.3640 H         1 RES1    0.0000
     19 C4        -1.0055    1.0560    6.4024 C.3       1 RES1    0.0000
     20 C5        -1.8415    1.7506    7.4851 C.3       1 RES1    0.0000
     21 H11       -2.6390    2.0978    7.0519 H         1 RES1    0.0000
     22 H12       -2.0210    1.1164    8.1609 H         1 RES1    0.0000
     23 H13       -1.3232    2.5027    7.9780 H         1 RES1    0.0000
     24 C6         0.1099    0.2558    7.0723 C.3       1 RES1    0.0000
     25 H14        0.7245   -0.1227    6.3385 H         1 RES1    0.0000
     26 H15       -0.2805   -0.4171    7.5824 H         1 RES1    0.0000
     27 H16        0.5958    0.8281    7.6750 H         1 RES1    0.0000
@<TRIPOS>BOND
     1    1    2 1
     2    4    5 1
     3    6    1 1
     4    7    6 1
     5    8    4 1
     6    9    8 1
     7   10    6 1
     8   11   10 1
     9   12   11 1
    10   13   11 1
    11   14   11 1
    12   15   10 1
    13   16   15 1
    14   17   15 1
    15   18   15 1
    16   19    8 1
    17   20   19 1
    18   21   20 1
    19   22   20 1
    20   23   20 1
    21   24   19 1
    22   25   24 1
    23   26   24 1
    24   27   24 1
    25   10   19 1
@<TRIPOS>SUBSTRUCTURE
     1 RES1 1
     2 SUP2 3

@<TRIPOS>CRYSIN
  23.6440    6.1340   13.4623  90.0000 121.8680  90.0000  15 1

