# MOL2 file generated by ConQuest
# Please check atom types

@<TRIPOS>MOLECULE
QOFQOR
    39    40     1
SMALL
NO_CHARGES
****
Generated from CSD

@<TRIPOS>ATOM
      1 O1         2.0278    4.7211    0.6539 O.3       1 RES1    0.0000
      2 H1         2.2648    5.2627    0.0100 H         1 RES1    0.0000
      3 O2         3.8344    1.6177    3.2496 O.3       1 RES1    0.0000
      4 H2         4.7037    1.3266    3.3645 H         1 RES1    0.0000
      5 O3         8.0611    1.1885   -2.5785 O.2       1 RES1    0.0000
      6 O4         6.6048   -0.3469   -2.9156 O.2       1 RES1    0.0000
      7 N1         3.2951    4.5608    1.3198 N.3       1 RES1    0.0000
      8 N2         4.0338    2.9934    2.8251 N.3       1 RES1    0.0000
      9 N3         6.9686    0.6861   -2.3690 N.pl3     1 RES1    0.0000
     10 C1         3.4782    3.1035    1.4859 C.3       1 RES1    0.0000
     11 H3         2.6332    2.6879    1.4091 H         1 RES1    0.0000
     12 C2         3.2864    5.1551    2.7354 C.3       1 RES1    0.0000
     13 C3         4.6269    5.8651    2.8575 C.3       1 RES1    0.0000
     14 H4         4.6448    6.6219    2.1576 H         1 RES1    0.0000
     15 H5         5.4590    5.2519    2.7901 H         1 RES1    0.0000
     16 H6         4.7857    6.2413    3.6347 H         1 RES1    0.0000
     17 C4         2.1514    6.1402    2.9356 C.3       1 RES1    0.0000
     18 H7         2.1940    6.8829    2.3458 H         1 RES1    0.0000
     19 H8         2.2513    6.4371    3.9349 H         1 RES1    0.0000
     20 H9         1.2053    5.8064    2.6380 H         1 RES1    0.0000
     21 C5         3.2036    3.9101    3.6615 C.3       1 RES1    0.0000
     22 C6         3.8703    4.0960    5.0166 C.3       1 RES1    0.0000
     23 H10        3.7202    3.3599    5.5662 H         1 RES1    0.0000
     24 H11        3.4521    4.8387    5.4981 H         1 RES1    0.0000
     25 H12        4.8336    4.2080    4.9537 H         1 RES1    0.0000
     26 C7         1.7675    3.4197    3.8441 C.3       1 RES1    0.0000
     27 H13        1.8173    2.5226    4.2292 H         1 RES1    0.0000
     28 H14        1.2040    3.4034    3.0143 H         1 RES1    0.0000
     29 H15        1.2608    4.0232    4.4433 H         1 RES1    0.0000
     30 C8         4.3971    2.5038    0.4393 C.ar      1 RES1    0.0000
     31 C9         5.7295    2.9010    0.3453 C.ar      1 RES1    0.0000
     32 H16        6.0274    3.5665    0.9047 H         1 RES1    0.0000
     33 C10        6.5704    2.3280   -0.5980 C.ar      1 RES1    0.0000
     34 H17        7.5071    2.5987   -0.6385 H         1 RES1    0.0000
     35 C11        6.0674    1.3320   -1.4051 C.ar      1 RES1    0.0000
     36 C12        4.7625    0.9177   -1.3552 C.ar      1 RES1    0.0000
     37 H18        4.3942    0.2283   -1.9395 H         1 RES1    0.0000
     38 C13        3.9269    1.5234   -0.4129 C.ar      1 RES1    0.0000
     39 H19        2.9605    1.2722   -0.3903 H         1 RES1    0.0000
@<TRIPOS>BOND
     1    1    2 1
     2    3    4 1
     3    5    9 2
     4    6    9 2
     5    7    1 1
     6    8    3 1
     7    9   35 1
     8   10    7 1
     9   11   10 1
    10   12    7 1
    11   13   12 1
    12   14   13 1
    13   15   13 1
    14   16   13 1
    15   17   12 1
    16   18   17 1
    17   19   17 1
    18   20   17 1
    19   21    8 1
    20   22   21 1
    21   23   22 1
    22   24   22 1
    23   25   22 1
    24   26   21 1
    25   27   26 1
    26   28   26 1
    27   29   26 1
    28   30   10 1
    29   31   30 ar
    30   32   31 1
    31   33   31 ar
    32   34   33 1
    33   35   33 ar
    34   36   35 ar
    35   37   36 1
    36   38   30 ar
    37   39   38 1
    38    8   10 1
    39   12   21 1
    40   36   38 ar
@<TRIPOS>SUBSTRUCTURE
     1 RES1 1

@<TRIPOS>CRYSIN
   6.6040   10.8734   20.0300  90.0000  92.2200  90.0000  14 1

