# MOL2 file generated by ConQuest
# Please check atom types

@<TRIPOS>MOLECULE
QOFRAE
    40    41     1
SMALL
USER_CHARGES
****
Generated from CSD

@<TRIPOS>ATOM
      1 O1        -0.3895    3.5319    9.0391 O.2       1 RES1   -1.0000
      2 O2         1.4378    6.6932    6.2064 O.2       1 RES1    0.0000
      3 N1         0.2139    4.5862    8.6149 N.pl3     1 RES1    1.0000
      4 N2         1.0121    6.0929    7.2576 N.3       1 RES1    0.0000
      5 C1         0.5758    4.8246    7.3408 C.2       1 RES1    0.0000
      6 C2         0.6998    5.6649    9.5347 C.3       1 RES1    0.0000
      7 C3         0.7772    6.8454    8.5406 C.3       1 RES1    0.0000
      8 C4        -0.2587    5.8490   10.6855 C.3       1 RES1    0.0000
      9 H1        -1.2299    6.0277   10.4152 H         1 RES1    0.0000
     10 H2        -0.0357    6.6760   11.1322 H         1 RES1    0.0000
     11 H3        -0.2845    5.0377   11.2131 H         1 RES1    0.0000
     12 C5         2.1113    5.2164   10.0114 C.3       1 RES1    0.0000
     13 H4         2.7727    4.8187    9.3437 H         1 RES1    0.0000
     14 H5         2.4182    5.9226   10.6580 H         1 RES1    0.0000
     15 C6         2.2032    3.8672   10.6661 C.3       1 RES1    0.0000
     16 H6         3.2353    3.7761   10.8441 H         1 RES1    0.0000
     17 H7         1.6718    3.0401   10.0672 H         1 RES1    0.0000
     18 H8         1.2630    4.1966   11.3620 H         1 RES1    0.0000
     19 C7        -0.5548    7.5600    8.3343 C.3       1 RES1    0.0000
     20 H9        -0.4144    8.1479    7.6006 H         1 RES1    0.0000
     21 H10       -0.7871    8.1216    9.1026 H         1 RES1    0.0000
     22 H11       -1.2718    6.8775    8.1736 H         1 RES1    0.0000
     23 C8         1.9078    7.8518    8.7242 C.3       1 RES1    0.0000
     24 H12        1.9455    8.4195    7.8547 H         1 RES1    0.0000
     25 H13        2.7668    7.3822    8.7060 H         1 RES1    0.0000
     26 C9         1.7642    8.7787    9.9086 C.3       1 RES1    0.0000
     27 H14        2.5134    9.3219    9.9895 H         1 RES1    0.0000
     28 H15        1.7007    8.2793   10.7292 H         1 RES1    0.0000
     29 H16        0.9773    9.3394    9.8342 H         1 RES1    0.0000
     30 C10        0.5430    3.8644    6.2397 C.ar      1 RES1    0.0000
     31 C11        0.3322    4.3061    4.9381 C.ar      1 RES1    0.0000
     32 H17        0.1833    5.2392    4.7649 H         1 RES1    0.0000
     33 C12        0.3442    3.4099    3.8935 C.ar      1 RES1    0.0000
     34 H18        0.1308    3.7586    3.0461 H         1 RES1    0.0000
     35 C13        0.5839    2.0852    4.1222 C.ar      1 RES1    0.0000
     36 H19        0.5955    1.5157    3.4588 H         1 RES1    0.0000
     37 C14        0.7825    1.6331    5.4086 C.ar      1 RES1    0.0000
     38 H20        0.9526    0.7535    5.5726 H         1 RES1    0.0000
     39 C15        0.7560    2.5136    6.4624 C.ar      1 RES1    0.0000
     40 H21        0.9033    2.2253    7.3109 H         1 RES1    0.0000
@<TRIPOS>BOND
     1    1    3 1
     2    2    4 1
     3    3    5 2
     4    4    5 1
     5    5   30 1
     6    6    3 1
     7    7    4 1
     8    8    6 1
     9    9    8 1
    10   10    8 1
    11   11    8 1
    12   12    6 1
    13   13   12 1
    14   14   12 1
    15   15   12 1
    16   16   15 1
    17   17   15 1
    18   18   15 1
    19   19    7 1
    20   20   19 1
    21   21   19 1
    22   22   19 1
    23   23    7 1
    24   24   23 1
    25   25   23 1
    26   26   23 1
    27   27   26 1
    28   28   26 1
    29   29   26 1
    30   30   31 ar
    31   31   32 1
    32   33   31 ar
    33   34   33 1
    34   35   33 ar
    35   36   35 1
    36   37   35 ar
    37   38   37 1
    38   39   30 ar
    39   40   39 1
    40    6    7 1
    41   37   39 ar
@<TRIPOS>SUBSTRUCTURE
     1 RES1 1

@<TRIPOS>CRYSIN
  10.0602    8.7612   16.5540  90.0000 102.1160  90.0000  14 1

