# MOL2 file generated by ConQuest
# Please check atom types

@<TRIPOS>MOLECULE
QOGGIE
   180   196     4
SMALL
NO_CHARGES
****
Generated from CSD

@<TRIPOS>ATOM
      1 O1         1.1205   11.8888   11.0805 O.3       1 RES1    0.0000
      2 O2        -2.2932   16.9700   10.0311 O.2       1 RES1    0.0000
      3 O3        -0.9798   17.0872    8.3228 O.2       1 RES1    0.0000
      4 N1        -1.3711   16.5392    9.3484 N.pl3     1 RES1    0.0000
      5 N2         1.8208    9.7964   10.2768 N.3       1 RES1    0.0000
      6 C1         1.0165    9.6587    9.1364 C.ar      1 RES1    0.0000
      7 C2         1.2421   10.7301    8.2633 C.ar      1 RES1    0.0000
      8 C3         0.6294   10.7690    7.0332 C.ar      1 RES1    0.0000
      9 H1         0.7973   11.4633    6.4407 H         1 RES1    0.0000
     10 C4        -0.2462    9.7458    6.6979 C.ar      1 RES1    0.0000
     11 H2        -0.6727    9.7607    5.8709 H         1 RES1    0.0000
     12 C5        -0.4925    8.7104    7.5679 C.ar      1 RES1    0.0000
     13 H3        -1.0858    8.0360    7.3224 H         1 RES1    0.0000
     14 C6         0.1360    8.6526    8.8200 C.ar      1 RES1    0.0000
     15 H4        -0.0364    7.9570    9.4145 H         1 RES1    0.0000
     16 C7         3.4634   11.4424   11.1931 C.3       1 RES1    0.0000
     17 H5         3.3619   11.0242   12.0622 H         1 RES1    0.0000
     18 H6         3.5556   12.3983   11.3308 H         1 RES1    0.0000
     19 C8         4.7345   10.9029   10.5184 C.3       1 RES1    0.0000
     20 H7         5.5074   11.1127   11.0644 H         1 RES1    0.0000
     21 H8         4.6757    9.9376   10.4379 H         1 RES1    0.0000
     22 C9         4.8972   11.5243    9.1375 C.3       1 RES1    0.0000
     23 H9         4.9679   12.4899    9.2160 H         1 RES1    0.0000
     24 H10        5.7080   11.1916    8.7200 H         1 RES1    0.0000
     25 C10        3.6903   11.1616    8.2825 C.3       1 RES1    0.0000
     26 H11        3.6745   10.1998    8.1615 H         1 RES1    0.0000
     27 H12        3.7964   11.5675    7.4074 H         1 RES1    0.0000
     28 C11        2.2285   11.1765   10.3687 C.3       1 RES1    0.0000
     29 C12        2.3169   11.6127    8.8779 C.3       1 RES1    0.0000
     30 C13        2.1444   13.0948    8.6942 C.3       1 RES1    0.0000
     31 H13        2.9515   13.5418    8.9921 H         1 RES1    0.0000
     32 H14        2.0365   13.2828    7.7476 H         1 RES1    0.0000
     33 C14        0.9768   13.6618    9.4349 C.ar      1 RES1    0.0000
     34 C15        0.5741   13.0398   10.6111 C.ar      1 RES1    0.0000
     35 C16       -0.4454   13.5800   11.3952 C.ar      1 RES1    0.0000
     36 H15       -0.6863   13.1627   12.1898 H         1 RES1    0.0000
     37 C17       -1.0991   14.7260   11.0000 C.ar      1 RES1    0.0000
     38 H16       -1.7791   15.0927   11.5179 H         1 RES1    0.0000
     39 C18       -0.7121   15.3221    9.8026 C.ar      1 RES1    0.0000
     40 C19        0.3091   14.8018    9.0426 C.ar      1 RES1    0.0000
     41 H17        0.5535   15.2254    8.2522 H         1 RES1    0.0000
     42 C20        1.5253    9.0181   11.4797 C.3       1 RES1    0.0000
     43 H18        1.5821    8.0802   11.2770 H         1 RES1    0.0000
     44 H19        0.6394    9.2269   11.7872 H         1 RES1    0.0000
     45 H20        2.1608    9.2363   12.1643 H         1 RES1    0.0000
     46 O4         3.7640   28.3796   10.2984 O.3       2 RES2    0.0000
     47 O5         7.9999   32.4617   12.2414 O.2       2 RES2    0.0000
     48 O6         6.4363   32.9510   13.6426 O.2       2 RES2    0.0000
     49 N3         6.8531   32.3117   12.6683 N.pl3     2 RES2    0.0000
     50 N4         3.2171   26.1921   10.9765 N.3       2 RES2    0.0000
     51 C21        4.8854   24.9438   12.3749 C.ar      2 RES2    0.0000
     52 H21        5.0907   24.3133   11.7249 H         2 RES2    0.0000
     53 C22        5.4597   24.8863   13.6412 C.ar      2 RES2    0.0000
     54 H22        6.0526   24.1964   13.8368 H         2 RES2    0.0000
     55 C23        5.1736   25.8200   14.6116 C.ar      2 RES2    0.0000
     56 H23        5.5599   25.7474   15.4555 H         2 RES2    0.0000
     57 C24        4.3122   26.8678   14.3360 C.ar      2 RES2    0.0000
     58 H24        4.1269   27.5100   14.9821 H         2 RES2    0.0000
     59 C25        3.7304   26.9461   13.0791 C.ar      2 RES2    0.0000
     60 C26        4.0022   25.9698   12.1181 C.ar      2 RES2    0.0000
     61 C27        2.7459   27.5529   11.0179 C.3       2 RES2    0.0000
     62 C28        1.4691   27.8126   10.2221 C.3       2 RES2    0.0000
     63 H25        1.5718   27.4468    9.3294 H         2 RES2    0.0000
     64 H26        1.3380   28.7704   10.1374 H         2 RES2    0.0000
     65 C29        0.2385   27.1998   10.8705 C.3       2 RES2    0.0000
     66 H27        0.3258   26.2338   10.8914 H         2 RES2    0.0000
     67 H28       -0.5505   27.4215   10.3500 H         2 RES2    0.0000
     68 C30        0.0860   27.7336   12.2865 C.3       2 RES2    0.0000
     69 H29       -0.0088   28.6977   12.2635 H         2 RES2    0.0000
     70 H30       -0.7127   27.3615   12.6916 H         2 RES2    0.0000
     71 C31        1.3002   27.3596   13.1125 C.3       2 RES2    0.0000
     72 H31        1.3324   26.3949   13.1933 H         2 RES2    0.0000
     73 H32        1.1908   27.7248   14.0041 H         2 RES2    0.0000
     74 C32        2.6509   27.8511   12.5410 C.3       2 RES2    0.0000
     75 C33        2.8756   29.3380   12.8384 C.3       2 RES2    0.0000
     76 H33        2.1010   29.8412   12.5413 H         2 RES2    0.0000
     77 H34        2.9604   29.4590   13.7971 H         2 RES2    0.0000
     78 C34        4.4381   29.3854   10.9101 C.ar      2 RES2    0.0000
     79 C35        4.0934   29.8791   12.1677 C.ar      2 RES2    0.0000
     80 C36        5.5042   29.9322   10.1898 C.ar      2 RES2    0.0000
     81 H35        5.6874   29.6295    9.3294 H         2 RES2    0.0000
     82 C37        6.2767   30.9095   10.7500 C.ar      2 RES2    0.0000
     83 H36        6.9883   31.2784   10.2791 H         2 RES2    0.0000
     84 C38        5.9803   31.3375   12.0308 C.ar      2 RES2    0.0000
     85 C39        4.8929   30.8580   12.7457 C.ar      2 RES2    0.0000
     86 H37        4.7025   31.1837   13.5959 H         2 RES2    0.0000
     87 C40        3.5742   25.5481    9.7226 C.3       2 RES2    0.0000
     88 H38        2.8960   25.7253    9.0658 H         2 RES2    0.0000
     89 H39        3.6466   24.6007    9.8596 H         2 RES2    0.0000
     90 H40        4.4158   25.8927    9.4145 H         2 RES2    0.0000
     91 O7        -0.3640    4.0730    3.6496 O.3       3 RES3    0.0000
     92 O8        -3.4719   -1.0336    1.9461 O.2       3 RES3    0.0000
     93 O9        -2.2572   -0.7493    0.1573 O.2       3 RES3    0.0000
     94 N5        -2.6244   -0.4230    1.2955 N.pl3     3 RES3    0.0000
     95 N6         0.2902    6.2607    3.1336 N.3       3 RES3    0.0000
     96 C41       -0.3991    2.5157    1.7942 C.ar      3 RES3    0.0000
     97 C42        0.7821    3.1904    1.1419 C.3       3 RES3    0.0000
     98 H41        0.6952    3.1241    0.1786 H         3 RES3    0.0000
     99 H42        1.5960    2.7324    1.4004 H         3 RES3    0.0000
    100 C43       -0.8591    2.9655    3.0251 C.ar      3 RES3    0.0000
    101 C44        0.8842    4.6602    1.5407 C.3       3 RES3    0.0000
    102 C45        0.7448    4.8879    3.0698 C.3       3 RES3    0.0000
    103 C46       -0.5071    6.4939    2.0085 C.ar      3 RES3    0.0000
    104 C47       -1.4370    7.5157    1.7919 C.ar      3 RES3    0.0000
    105 H43       -1.6479    8.1244    2.4606 H         3 RES3    0.0000
    106 C48       -2.0350    7.5878    0.5349 C.ar      3 RES3    0.0000
    107 H44       -2.6513    8.2603    0.3572 H         3 RES3    0.0000
    108 C49       -1.7222    6.6673   -0.4482 C.ar      3 RES3    0.0000
    109 H45       -2.1338    6.7314   -1.2785 H         3 RES3    0.0000
    110 C50       -0.8117    5.6543   -0.2200 C.ar      3 RES3    0.0000
    111 H46       -0.6075    5.0414   -0.8901 H         3 RES3    0.0000
    112 C51       -0.0708    6.8514    4.4249 C.3       3 RES3    0.0000
    113 H47       -0.9459    6.5514    4.6803 H         3 RES3    0.0000
    114 H48       -0.0706    7.8086    4.3515 H         3 RES3    0.0000
    115 H49        0.5667    6.5829    5.0885 H         3 RES3    0.0000
    116 C52       -2.0154    0.7755    1.9107 C.ar      3 RES3    0.0000
    117 C53       -2.4752    1.1909    3.1333 C.ar      3 RES3    0.0000
    118 H50       -3.1521    0.7297    3.5747 H         3 RES3    0.0000
    119 C54       -1.8966    2.3170    3.6878 C.ar      3 RES3    0.0000
    120 H51       -2.2015    2.6408    4.5046 H         3 RES3    0.0000
    121 C55       -0.9929    1.4012    1.2286 C.ar      3 RES3    0.0000
    122 H52       -0.7078    1.0803    0.4025 H         3 RES3    0.0000
    123 C56        2.2541    5.2205    1.0412 C.3       3 RES3    0.0000
    124 H53        2.3921    4.9435    0.1219 H         3 RES3    0.0000
    125 H54        2.2221    6.1912    1.0546 H         3 RES3    0.0000
    126 C57        3.4319    4.7534    1.8803 C.3       3 RES3    0.0000
    127 H55        4.2544    5.1299    1.5308 H         3 RES3    0.0000
    128 H56        3.4991    3.7874    1.8426 H         3 RES3    0.0000
    129 C58        3.2370    5.1946    3.3097 C.3       3 RES3    0.0000
    130 H57        3.1713    6.1628    3.3451 H         3 RES3    0.0000
    131 H58        4.0021    4.9246    3.8412 H         3 RES3    0.0000
    132 C59        1.9681    4.5736    3.8866 C.3       3 RES3    0.0000
    133 H59        2.0793    3.6105    3.9319 H         3 RES3    0.0000
    134 H60        1.8377    4.8993    4.7909 H         3 RES3    0.0000
    135 C60       -0.2074    5.5674    1.0222 C.ar      3 RES3    0.0000
    136 O10        5.9149   14.9140    5.8463 O.2       4 RES4    0.0000
    137 O11        4.4448   14.8748    7.4293 O.2       4 RES4    0.0000
    138 O12        1.9044   19.0763    3.5883 O.3       4 RES4    0.0000
    139 N7         4.8497   15.2816    6.3548 N.pl3     4 RES4    0.0000
    140 N8         1.3233   21.3244    3.9359 N.3       4 RES4    0.0000
    141 C61        3.0324   22.7528    5.0885 C.ar      4 RES4    0.0000
    142 H61        3.2079   23.2898    4.3486 H         4 RES4    0.0000
    143 C62        3.6603   22.9777    6.3302 C.ar      4 RES4    0.0000
    144 H62        4.2720   23.6720    6.4124 H         4 RES4    0.0000
    145 C63        3.3827   22.1855    7.4196 C.ar      4 RES4    0.0000
    146 H63        3.7985   22.3611    8.2324 H         4 RES4    0.0000
    147 C64        2.4864   21.1216    7.3238 C.ar      4 RES4    0.0000
    148 H64        2.2962   20.5922    8.0623 H         4 RES4    0.0000
    149 C65        1.8883   20.8756    6.1045 C.ar      4 RES4    0.0000
    150 C66        2.1465   21.7022    5.0228 C.ar      4 RES4    0.0000
    151 C67        2.5679   18.1448    4.3101 C.ar      4 RES4    0.0000
    152 C68        0.8061   19.8910    5.7266 C.3       4 RES4    0.0000
    153 C69        0.8692   19.9797    4.1788 C.3       4 RES4    0.0000
    154 C70        1.0151   18.4603    6.2330 C.3       4 RES4    0.0000
    155 H65        1.1168   18.4758    7.1976 H         4 RES4    0.0000
    156 H66        0.2298   17.9325    6.0240 H         4 RES4    0.0000
    157 C71        2.2228   17.8087    5.6215 C.ar      4 RES4    0.0000
    158 C72        2.9731   16.8661    6.2908 C.ar      4 RES4    0.0000
    159 H67        2.7717   16.6374    7.1693 H         4 RES4    0.0000
    160 C73        4.0395   16.2631    5.6243 C.ar      4 RES4    0.0000
    161 C74        4.3557   16.5553    4.3180 C.ar      4 RES4    0.0000
    162 H68        5.0589   16.1225    3.8894 H         4 RES4    0.0000
    163 C75        3.6082   17.5039    3.6584 C.ar      4 RES4    0.0000
    164 H69        3.8023   17.7146    2.7725 H         4 RES4    0.0000
    165 C76        1.6646   21.7711    2.5947 C.3       4 RES4    0.0000
    166 H70        2.5327   21.4388    2.3586 H         4 RES4    0.0000
    167 H71        1.6718   22.7307    2.5684 H         4 RES4    0.0000
    168 H72        1.0129   21.4388    1.9730 H         4 RES4    0.0000
    169 C77       -0.5465   20.4494    6.2443 C.3       4 RES4    0.0000
    170 H73       -0.6435   20.2068    7.1778 H         4 RES4    0.0000
    171 H74       -0.5203   21.4167    6.1941 H         4 RES4    0.0000
    172 C78       -1.7731   19.9560    5.4837 C.3       4 RES4    0.0000
    173 H75       -2.5716   20.3743    5.8426 H         4 RES4    0.0000
    174 H76       -1.8603   18.9970    5.5875 H         4 RES4    0.0000
    175 C79       -1.6269   20.3007    4.0144 C.3       4 RES4    0.0000
    176 H77       -2.4182   20.0173    3.5322 H         4 RES4    0.0000
    177 H78       -1.5375   21.2619    3.9092 H         4 RES4    0.0000
    178 C80       -0.3994   19.6054    3.4449 C.3       4 RES4    0.0000
    179 H79       -0.5246   18.6464    3.4982 H         4 RES4    0.0000
    180 H80       -0.3061   19.8404    2.5088 H         4 RES4    0.0000
@<TRIPOS>BOND
     1    1   28 1
     2    2    4 2
     3    3    4 2
     4    4   39 1
     5    5    6 1
     6    6    7 ar
     7    7    8 ar
     8    8    9 1
     9   10    8 ar
    10   11   10 1
    11   12   10 ar
    12   13   12 1
    13   14    6 ar
    14   15   14 1
    15   16   17 1
    16   18   16 1
    17   19   16 1
    18   20   19 1
    19   21   19 1
    20   22   19 1
    21   23   22 1
    22   24   22 1
    23   25   22 1
    24   26   25 1
    25   27   25 1
    26   28    5 1
    27   29    7 1
    28   30   29 1
    29   31   30 1
    30   32   30 1
    31   33   30 1
    32   34    1 1
    33   35   34 ar
    34   36   35 1
    35   37   35 ar
    36   38   37 1
    37   39   37 ar
    38   40   33 ar
    39   41   40 1
    40   42    5 1
    41   43   42 1
    42   44   42 1
    43   45   42 1
    44   46   61 1
    45   47   49 2
    46   48   49 2
    47   49   84 1
    48   50   60 1
    49   51   52 1
    50   53   51 ar
    51   54   53 1
    52   55   53 ar
    53   56   55 1
    54   57   55 ar
    55   58   57 1
    56   59   57 ar
    57   60   51 ar
    58   61   50 1
    59   62   61 1
    60   63   62 1
    61   64   62 1
    62   65   62 1
    63   66   65 1
    64   67   65 1
    65   68   65 1
    66   69   68 1
    67   70   68 1
    68   71   68 1
    69   72   71 1
    70   73   71 1
    71   74   59 1
    72   75   74 1
    73   76   75 1
    74   77   75 1
    75   78   46 1
    76   79   75 1
    77   80   78 ar
    78   81   80 1
    79   82   80 ar
    80   83   82 1
    81   84   82 ar
    82   85   79 ar
    83   86   85 1
    84   87   50 1
    85   88   87 1
    86   89   87 1
    87   90   87 1
    88   91  100 1
    89   92   94 2
    90   93   94 2
    91   94  116 1
    92   95  102 1
    93   96   97 1
    94   97   98 1
    95   99   97 1
    96  100   96 ar
    97  101   97 1
    98  102   91 1
    99  103   95 1
   100  104  103 ar
   101  105  104 1
   102  106  104 ar
   103  107  106 1
   104  108  106 ar
   105  109  108 1
   106  110  108 ar
   107  111  110 1
   108  112   95 1
   109  113  112 1
   110  114  112 1
   111  115  112 1
   112  116  117 ar
   113  117  118 1
   114  119  100 ar
   115  120  119 1
   116  121   96 ar
   117  122  121 1
   118  123  101 1
   119  124  123 1
   120  125  123 1
   121  126  123 1
   122  127  126 1
   123  128  126 1
   124  129  126 1
   125  130  129 1
   126  131  129 1
   127  132  102 1
   128  133  132 1
   129  134  132 1
   130  135  101 1
   131  136  139 2
   132  137  139 2
   133  138  151 1
   134  139  160 1
   135  140  150 1
   136  141  142 1
   137  143  141 ar
   138  144  143 1
   139  145  143 ar
   140  146  145 1
   141  147  145 ar
   142  148  147 1
   143  149  147 ar
   144  150  141 ar
   145  151  157 ar
   146  152  149 1
   147  153  138 1
   148  154  152 1
   149  155  154 1
   150  156  154 1
   151  157  154 1
   152  158  157 ar
   153  159  158 1
   154  160  158 ar
   155  161  160 ar
   156  162  161 1
   157  163  151 ar
   158  164  163 1
   159  165  140 1
   160  166  165 1
   161  167  165 1
   162  168  165 1
   163  169  152 1
   164  170  169 1
   165  171  169 1
   166  172  169 1
   167  173  172 1
   168  174  172 1
   169  175  172 1
   170  176  175 1
   171  177  175 1
   172  178  153 1
   173  179  178 1
   174  180  178 1
   175   12   14 ar
   176   16   28 1
   177   25   29 1
   178   28   29 1
   179   33   34 ar
   180   39   40 ar
   181   59   60 ar
   182   61   74 1
   183   71   74 1
   184   78   79 ar
   185   84   85 ar
   186  101  102 1
   187  103  135 ar
   188  110  135 ar
   189  116  121 ar
   190  117  119 ar
   191  129  132 1
   192  140  153 1
   193  149  150 ar
   194  152  153 1
   195  161  163 ar
   196  175  178 1
@<TRIPOS>SUBSTRUCTURE
     1 RES1 1
     2 RES2 46
     3 RES3 91
     4 RES4 136

@<TRIPOS>CRYSIN
   7.3822   31.5880   28.3550  90.0000  91.2410  90.0000  14 1

