# MOL2 file generated by ConQuest
# Please check atom types

@<TRIPOS>MOLECULE
QOGGUQ
    41    44     1
SMALL
NO_CHARGES
****
Generated from CSD

@<TRIPOS>ATOM
      1 O1         3.4302    8.7077    1.9703 O.3       1 RES1    0.0000
      2 O2         3.6726    2.4756    2.1779 O.2       1 RES1    0.0000
      3 O3         5.3773    2.8986    0.9411 O.2       1 RES1    0.0000
      4 N1         1.6575    9.8233    0.8835 N.3       1 RES1    0.0000
      5 N2         4.4196    3.2669    1.6196 N.pl3     1 RES1    0.0000
      6 C1         3.6289    7.3702    1.8983 C.ar      1 RES1    0.0000
      7 C2         4.7509    6.9252    1.2257 C.ar      1 RES1    0.0000
      8 H1         5.3276    7.5387    0.8293 H         1 RES1    0.0000
      9 C3         5.0187    5.5816    1.1419 C.ar      1 RES1    0.0000
     10 H2         5.7699    5.2758    0.6870 H         1 RES1    0.0000
     11 C4         4.1524    4.6936    1.7442 C.ar      1 RES1    0.0000
     12 C5         3.0302    5.1191    2.4371 C.ar      1 RES1    0.0000
     13 H3         2.4605    4.5000    2.8327 H         1 RES1    0.0000
     14 C6         2.7626    6.4741    2.5354 C.ar      1 RES1    0.0000
     15 C7         1.5928    7.0543    3.2596 C.3       1 RES1    0.0000
     16 H4         1.8756    7.3668    4.1330 H         1 RES1    0.0000
     17 H5         0.9190    6.3675    3.3884 H         1 RES1    0.0000
     18 C8         0.9920    8.2182    2.4718 C.3       1 RES1    0.0000
     19 C9         2.0799    9.2998    2.1601 C.3       1 RES1    0.0000
     20 C10        0.5450    7.8477    1.0826 C.ar      1 RES1    0.0000
     21 C11        0.9514    8.8489    0.2050 C.ar      1 RES1    0.0000
     22 C12        0.6087    8.7911   -1.1402 C.ar      1 RES1    0.0000
     23 H6         0.9002    9.4427   -1.7365 H         1 RES1    0.0000
     24 C13       -0.1812    7.7351   -1.5697 C.ar      1 RES1    0.0000
     25 H7        -0.4387    7.6956   -2.4625 H         1 RES1    0.0000
     26 C14       -0.5929    6.7421   -0.7056 C.ar      1 RES1    0.0000
     27 H8        -1.1142    6.0387   -1.0182 H         1 RES1    0.0000
     28 C15       -0.2267    6.7956    0.6345 C.ar      1 RES1    0.0000
     29 H9        -0.4995    6.1289    1.2232 H         1 RES1    0.0000
     30 C16        2.4149   10.8484    0.1737 C.3       1 RES1    0.0000
     31 H10        1.8072   11.4499   -0.2618 H         1 RES1    0.0000
     32 H11        2.9789   10.4334   -0.4828 H         1 RES1    0.0000
     33 H12        2.9565   11.3360    0.7980 H         1 RES1    0.0000
     34 C17        2.3183   10.3679    3.2063 C.3       1 RES1    0.0000
     35 H13        2.4110    9.9563    4.0686 H         1 RES1    0.0000
     36 H14        1.5750   10.9749    3.2190 H         1 RES1    0.0000
     37 H15        3.1212   10.8503    2.9936 H         1 RES1    0.0000
     38 C18       -0.1893    8.8272    3.2351 C.3       1 RES1    0.0000
     39 H16       -0.4852    9.6211    2.7861 H         1 RES1    0.0000
     40 H17        0.0864    9.0494    4.1279 H         1 RES1    0.0000
     41 H18       -0.9087    8.1920    3.2706 H         1 RES1    0.0000
@<TRIPOS>BOND
     1    1    6 1
     2    2    5 2
     3    3    5 2
     4    4   19 1
     5    5   11 1
     6    6    7 ar
     7    7    8 1
     8    9    7 ar
     9   10    9 1
    10   11    9 ar
    11   12   11 ar
    12   13   12 1
    13   14    6 ar
    14   15   14 1
    15   16   15 1
    16   17   15 1
    17   18   15 1
    18   19    1 1
    19   20   18 1
    20   21    4 1
    21   22   21 ar
    22   23   22 1
    23   24   22 ar
    24   25   24 1
    25   26   24 ar
    26   27   26 1
    27   28   20 ar
    28   29   28 1
    29   30    4 1
    30   31   30 1
    31   32   30 1
    32   33   30 1
    33   34   19 1
    34   35   34 1
    35   36   34 1
    36   37   34 1
    37   38   18 1
    38   39   38 1
    39   40   38 1
    40   41   38 1
    41   12   14 ar
    42   18   19 1
    43   20   21 ar
    44   26   28 ar
@<TRIPOS>SUBSTRUCTURE
     1 RES1 1

@<TRIPOS>CRYSIN
   8.6657   21.4900    8.4821  90.0000  92.9360  90.0000  14 1

