# MOL2 file generated by ConQuest
# Please check atom types

@<TRIPOS>MOLECULE
QOGHAX
   144   156     3
SMALL
NO_CHARGES
****
Generated from CSD

@<TRIPOS>ATOM
      1 O1         9.4046   -2.6654   21.6980 O.3       1 RES1    0.0000
      2 N1         7.5760   -1.5777   22.7232 N.3       1 RES1    0.0000
      3 C1         6.8630   -1.0276   21.6635 C.ar      1 RES1    0.0000
      4 N2        10.4873   -3.2506   16.2804 N.pl3     1 RES1    0.0000
      5 C2         6.4915    0.2945   21.4483 C.ar      1 RES1    0.0000
      6 H1         6.7401    0.9661   22.0407 H         1 RES1    0.0000
      7 O2        11.4621   -2.6491   15.8392 O.2       1 RES1    0.0000
      8 O3         9.7264   -3.9523   15.6309 O.2       1 RES1    0.0000
      9 C3         5.7372    0.5752   20.3217 C.ar      1 RES1    0.0000
     10 H2         5.4829    1.4549   20.1597 H         1 RES1    0.0000
     11 C4         5.3581   -0.3897   19.4462 C.ar      1 RES1    0.0000
     12 H3         4.8449   -0.1667   18.7021 H         1 RES1    0.0000
     13 C5         5.7372   -1.7193   19.6604 C.ar      1 RES1    0.0000
     14 H4         5.4829   -2.3834   19.0616 H         1 RES1    0.0000
     15 C6         6.4905   -2.0300   20.7668 C.ar      1 RES1    0.0000
     16 C7         7.0028   -3.3696   21.3001 C.3       1 RES1    0.0000
     17 C8         8.0583   -2.8759   22.3347 C.3       1 RES1    0.0000
     18 C9         5.8178   -4.0801   21.9998 C.3       1 RES1    0.0000
     19 H5         5.1855   -4.3721   21.3415 H         1 RES1    0.0000
     20 H6         5.3900   -3.4686   22.6021 H         1 RES1    0.0000
     21 H7         6.1434   -4.8383   22.4888 H         1 RES1    0.0000
     22 C10        8.4308   -0.7068   23.5598 C.3       1 RES1    0.0000
     23 H8         7.9729    0.1190   23.7346 H         1 RES1    0.0000
     24 H9         9.2526   -0.5251   23.0994 H         1 RES1    0.0000
     25 H10        8.6221   -1.1478   24.3896 H         1 RES1    0.0000
     26 C11        9.5772   -2.7869   20.3626 C.ar      1 RES1    0.0000
     27 C12       10.6937   -2.1290   19.8268 C.ar      1 RES1    0.0000
     28 H11       11.2332   -1.5990   20.3665 H         1 RES1    0.0000
     29 C13       10.9808   -2.2832   18.4854 C.ar      1 RES1    0.0000
     30 H12       11.7173   -1.8571   18.1112 H         1 RES1    0.0000
     31 C14       10.1702   -3.0651   17.7217 C.ar      1 RES1    0.0000
     32 C15        9.0490   -3.7142   18.2299 C.ar      1 RES1    0.0000
     33 H13        8.4974   -4.2205   17.6779 H         1 RES1    0.0000
     34 C16        8.7751   -3.5814   19.5880 C.ar      1 RES1    0.0000
     35 C17        7.6164   -4.2744   20.2454 C.3       1 RES1    0.0000
     36 H14        7.9194   -5.0977   20.6570 H         1 RES1    0.0000
     37 H15        6.9484   -4.4974   19.5786 H         1 RES1    0.0000
     38 C18        8.3247   -3.8107   23.4835 C.ar      1 RES1    0.0000
     39 C19        9.2010   -4.8696   23.3432 C.ar      1 RES1    0.0000
     40 H16        9.7095   -4.9611   22.5725 H         1 RES1    0.0000
     41 C20        9.3108   -5.8057   24.3846 C.ar      1 RES1    0.0000
     42 H17        9.8831   -6.5350   24.3009 H         1 RES1    0.0000
     43 C21        8.5687   -5.6352   25.5271 C.ar      1 RES1    0.0000
     44 H18        8.6653   -6.2455   26.2214 H         1 RES1    0.0000
     45 C22        7.6990   -4.6039   25.6703 C.ar      1 RES1    0.0000
     46 H19        7.1998   -4.5200   26.4528 H         1 RES1    0.0000
     47 C23        7.5535   -3.6679   24.6437 C.ar      1 RES1    0.0000
     48 H20        6.9550   -2.9611   24.7293 H         1 RES1    0.0000
     49 N3        10.3653    4.2806   18.1181 N.3       2 RES2    0.0000
     50 O4         8.3444    3.4085   19.0222 O.3       2 RES2    0.0000
     51 N4         6.4868    4.2543   24.1581 N.pl3     2 RES2    0.0000
     52 O5         7.0938    3.7242   25.0716 O.2       2 RES2    0.0000
     53 O6         5.4876    4.9510   24.2852 O.2       2 RES2    0.0000
     54 C24       10.9677    4.9999   19.1443 C.ar      2 RES2    0.0000
     55 C25       11.3833    6.3069   19.1566 C.ar      2 RES2    0.0000
     56 H21       11.2538    6.8545   18.4165 H         2 RES2    0.0000
     57 C26       12.0025    6.7906   20.3010 C.ar      2 RES2    0.0000
     58 H22       12.2981    7.6728   20.3222 H         2 RES2    0.0000
     59 C27       12.1883    5.9974   21.4035 C.ar      2 RES2    0.0000
     60 H23       12.5955    6.3445   22.1638 H         2 RES2    0.0000
     61 C28       11.7614    4.6603   21.3848 C.ar      2 RES2    0.0000
     62 H24       11.8909    4.1165   22.1294 H         2 RES2    0.0000
     63 C29       11.1478    4.1641   20.2537 C.ar      2 RES2    0.0000
     64 C30       10.6271    2.7832   19.9420 C.3       2 RES2    0.0000
     65 C31        9.7818    3.0751   18.6593 C.3       2 RES2    0.0000
     66 C32       11.8036    1.8446   19.5959 C.3       2 RES2    0.0000
     67 H25       12.3178    1.6704   20.3862 H         2 RES2    0.0000
     68 H26       12.3637    2.2631   18.9385 H         2 RES2    0.0000
     69 H27       11.4630    1.0188   19.2487 H         2 RES2    0.0000
     70 C33        9.6542    4.9924   17.0515 C.3       2 RES2    0.0000
     71 H28       10.1571    5.7681   16.7964 H         2 RES2    0.0000
     72 H29        8.7892    5.2618   17.3677 H         2 RES2    0.0000
     73 H30        9.5510    4.4122   16.2942 H         2 RES2    0.0000
     74 C34        7.9889    3.6616   20.3064 C.ar      2 RES2    0.0000
     75 C35        6.8686    4.4761   20.4625 C.ar      2 RES2    0.0000
     76 H31        6.4699    4.8821   19.7263 H         2 RES2    0.0000
     77 C36        6.3648    4.6666   21.7275 C.ar      2 RES2    0.0000
     78 H32        5.6030    5.1816   21.8684 H         2 RES2    0.0000
     79 C37        7.0206    4.0739   22.7670 C.ar      2 RES2    0.0000
     80 C38        8.1652    3.2844   22.6518 C.ar      2 RES2    0.0000
     81 H33        8.5949    2.9335   23.3998 H         2 RES2    0.0000
     82 C39        8.6287    3.0501   21.3676 C.ar      2 RES2    0.0000
     83 C40        9.7959    2.1654   21.0603 C.3       2 RES2    0.0000
     84 H34        9.4797    1.2895   20.7900 H         2 RES2    0.0000
     85 H35       10.3428    2.0576   21.8536 H         2 RES2    0.0000
     86 C41        9.6307    1.9686   17.6621 C.ar      2 RES2    0.0000
     87 C42        8.6700    0.9837   17.7946 C.ar      2 RES2    0.0000
     88 H36        8.0808    1.0025   18.5150 H         2 RES2    0.0000
     89 C43        8.5856   -0.0376   16.8496 C.ar      2 RES2    0.0000
     90 H37        7.9373   -0.6967   16.9442 H         2 RES2    0.0000
     91 C44        9.4487   -0.0802   15.7806 C.ar      2 RES2    0.0000
     92 H38        9.3615   -0.7456   15.1370 H         2 RES2    0.0000
     93 C45       10.4366    0.8596   15.6658 C.ar      2 RES2    0.0000
     94 H39       11.0446    0.8057   14.9646 H         2 RES2    0.0000
     95 C46       10.5417    1.8897   16.5852 C.ar      2 RES2    0.0000
     96 H40       11.2097    2.5300   16.4911 H         2 RES2    0.0000
     97 N5         5.6996    0.0601   14.5712 N.3       3 RES3    0.0000
     98 N6         3.6112    1.0025    7.7216 N.pl3     3 RES3    0.0000
     99 O7         3.9987    1.0551   13.2604 O.3       3 RES3    0.0000
    100 O8         4.4434    1.6503    7.0948 O.2       3 RES3    0.0000
    101 O9         2.7358    0.3158    7.2164 O.2       3 RES3    0.0000
    102 C47        6.5703   -0.5413   13.6563 C.ar      3 RES3    0.0000
    103 C48        7.0094   -1.8596   13.6346 C.ar      3 RES3    0.0000
    104 H41        6.6913   -2.4849   14.2457 H         3 RES3    0.0000
    105 C49        7.9485   -2.2092   12.6591 C.ar      3 RES3    0.0000
    106 H42        8.2609   -3.0852   12.6207 H         3 RES3    0.0000
    107 C50        8.4186   -1.2832   11.7555 C.ar      3 RES3    0.0000
    108 H43        9.0415   -1.5413   11.1139 H         3 RES3    0.0000
    109 C51        7.9748    0.0351   11.7885 C.ar      3 RES3    0.0000
    110 H44        8.2975    0.6604   11.1829 H         3 RES3    0.0000
    111 C52        7.0375    0.3972   12.7483 C.ar      3 RES3    0.0000
    112 C53        6.4521    1.7468   13.0880 C.3       3 RES3    0.0000
    113 C54        5.2587    1.3258   14.0212 C.3       3 RES3    0.0000
    114 C55        7.4963    2.5864   13.8547 C.3       3 RES3    0.0000
    115 H45        8.2112    2.8270   13.2609 H         3 RES3    0.0000
    116 H46        7.8463    2.0714   14.5855 H         3 RES3    0.0000
    117 H47        7.0807    3.3821   14.1915 H         3 RES3    0.0000
    118 C56        4.7351   -0.7594   15.3335 C.3       3 RES3    0.0000
    119 H48        5.1658   -1.5626   15.6343 H         3 RES3    0.0000
    120 H49        3.9921   -0.9849   14.7677 H         3 RES3    0.0000
    121 H50        4.4218   -0.2619   16.0923 H         3 RES3    0.0000
    122 C57        3.9705    1.0514   11.8880 C.ar      3 RES3    0.0000
    123 C58        2.9028    0.3484   11.3217 C.ar      3 RES3    0.0000
    124 H51        2.2855   -0.1002   11.8525 H         3 RES3    0.0000
    125 C59        2.7996    0.3434    9.9370 C.ar      3 RES3    0.0000
    126 H52        2.1138   -0.1241    9.5185 H         3 RES3    0.0000
    127 C60        3.7247    1.0413    9.1935 C.ar      3 RES3    0.0000
    128 C61        4.7736    1.7368    9.7568 C.ar      3 RES3    0.0000
    129 H53        5.3966    2.1741    9.2230 H         3 RES3    0.0000
    130 C62        4.8787    1.7694   11.1449 C.ar      3 RES3    0.0000
    131 C63        5.9539    2.5263   11.8722 C.3       3 RES3    0.0000
    132 H54        5.6049    3.3847   12.1628 H         3 RES3    0.0000
    133 H55        6.6960    2.6917   11.2715 H         3 RES3    0.0000
    134 C64        4.8637    2.3396   15.0474 C.ar      3 RES3    0.0000
    135 C65        4.0343    3.3972   14.7214 C.ar      3 RES3    0.0000
    136 H56        3.6609    3.4498   13.8715 H         3 RES3    0.0000
    137 C66        3.7557    4.3884   15.6683 C.ar      3 RES3    0.0000
    138 H57        3.1890    5.0951   15.4521 H         3 RES3    0.0000
    139 C67        4.3223    4.3132   16.9146 C.ar      3 RES3    0.0000
    140 H58        4.1347    4.9748   17.5400 H         3 RES3    0.0000
    141 C68        5.1555    3.2882   17.2564 C.ar      3 RES3    0.0000
    142 H59        5.5326    3.2556   18.1063 H         3 RES3    0.0000
    143 C69        5.4369    2.2907   16.3222 C.ar      3 RES3    0.0000
    144 H60        6.0074    1.5914   16.5453 H         3 RES3    0.0000
@<TRIPOS>BOND
     1    1   17 1
     2    2    3 1
     3    3    5 ar
     4    4    7 2
     5    5    6 1
     6    8    4 2
     7    9    5 ar
     8   10    9 1
     9   11    9 ar
    10   12   11 1
    11   13   11 ar
    12   14   13 1
    13   15    3 ar
    14   16   15 1
    15   17    2 1
    16   18   16 1
    17   19   18 1
    18   20   18 1
    19   21   18 1
    20   22    2 1
    21   23   22 1
    22   24   22 1
    23   25   22 1
    24   26    1 1
    25   27   26 ar
    26   28   27 1
    27   29   27 ar
    28   30   29 1
    29   31    4 1
    30   32   31 ar
    31   33   32 1
    32   34   26 ar
    33   35   16 1
    34   36   35 1
    35   37   35 1
    36   38   17 1
    37   39   38 ar
    38   40   39 1
    39   41   39 ar
    40   42   41 1
    41   43   41 ar
    42   44   43 1
    43   45   43 ar
    44   46   45 1
    45   47   38 ar
    46   48   47 1
    47   49   54 1
    48   50   65 1
    49   51   52 2
    50   53   51 2
    51   54   55 ar
    52   55   56 1
    53   57   55 ar
    54   58   57 1
    55   59   57 ar
    56   60   59 1
    57   61   59 ar
    58   62   61 1
    59   63   54 ar
    60   64   63 1
    61   65   49 1
    62   66   64 1
    63   67   66 1
    64   68   66 1
    65   69   66 1
    66   70   49 1
    67   71   70 1
    68   72   70 1
    69   73   70 1
    70   74   50 1
    71   75   74 ar
    72   76   75 1
    73   77   75 ar
    74   78   77 1
    75   79   51 1
    76   80   79 ar
    77   81   80 1
    78   82   74 ar
    79   83   64 1
    80   84   83 1
    81   85   83 1
    82   86   65 1
    83   87   86 ar
    84   88   87 1
    85   89   87 ar
    86   90   89 1
    87   91   89 ar
    88   92   91 1
    89   93   91 ar
    90   94   93 1
    91   95   86 ar
    92   96   95 1
    93   97  102 1
    94   98  100 2
    95   99  113 1
    96  101   98 2
    97  102  103 ar
    98  103  104 1
    99  105  103 ar
   100  106  105 1
   101  107  105 ar
   102  108  107 1
   103  109  107 ar
   104  110  109 1
   105  111  102 ar
   106  112  111 1
   107  113   97 1
   108  114  112 1
   109  115  114 1
   110  116  114 1
   111  117  114 1
   112  118   97 1
   113  119  118 1
   114  120  118 1
   115  121  118 1
   116  122   99 1
   117  123  122 ar
   118  124  123 1
   119  125  123 ar
   120  126  125 1
   121  127   98 1
   122  128  127 ar
   123  129  128 1
   124  130  122 ar
   125  131  112 1
   126  132  131 1
   127  133  131 1
   128  134  113 1
   129  135  134 ar
   130  136  135 1
   131  137  135 ar
   132  138  137 1
   133  139  137 ar
   134  140  139 1
   135  141  139 ar
   136  142  141 1
   137  143  134 ar
   138  144  143 1
   139   13   15 ar
   140   16   17 1
   141   29   31 ar
   142   32   34 ar
   143   34   35 1
   144   45   47 ar
   145   61   63 ar
   146   64   65 1
   147   77   79 ar
   148   80   82 ar
   149   82   83 1
   150   93   95 ar
   151  109  111 ar
   152  112  113 1
   153  125  127 ar
   154  128  130 ar
   155  130  131 1
   156  141  143 ar
@<TRIPOS>SUBSTRUCTURE
     1 RES1 1
     2 RES2 49
     3 RES3 97

@<TRIPOS>CRYSIN
   9.3821   12.5311   49.2420  90.0000  90.0000  90.0000  19 1

