# MOL2 file generated by ConQuest
# Please check atom types

@<TRIPOS>MOLECULE
QOGPIN
    55    58     1
SMALL
NO_CHARGES
****
Generated from CSD

@<TRIPOS>ATOM
      1 O1         7.3546    5.2765    9.3606 O.3       1 RES1    0.0000
      2 N1         8.5689    4.5198    8.9949 N.3       1 RES1    0.0000
      3 C1         8.2916    3.0467    8.9058 C.3       1 RES1    0.0000
      4 N2         8.7633    2.5127   10.1967 N.am      1 RES1    0.0000
      5 C2         9.5288    3.3776   10.8575 C.2       1 RES1    0.0000
      6 C3         9.5026    4.7054   10.1598 C.3       1 RES1    0.0000
      7 C4         8.8922    5.7974   11.0158 C.3       1 RES1    0.0000
      8 C5         7.4136    5.5353   10.7591 C.3       1 RES1    0.0000
      9 C6         6.4570    6.6830   11.1018 C.3       1 RES1    0.0000
     10 C7         6.9866    8.0611   10.7038 C.3       1 RES1    0.0000
     11 C8         8.4160    8.2741   11.1618 C.3       1 RES1    0.0000
     12 C9         9.3202    7.2017   10.5686 C.3       1 RES1    0.0000
     13 H1        10.2419    7.3590   10.8590 H         1 RES1    0.0000
     14 H2         9.2754    7.2421    9.5896 H         1 RES1    0.0000
     15 H3         8.4521    8.2293   12.1392 H         1 RES1    0.0000
     16 H4         8.7174    9.1575   10.8713 H         1 RES1    0.0000
     17 H5         6.4089    8.7491   11.0880 H         1 RES1    0.0000
     18 H6         6.9702    8.1256    9.7295 H         1 RES1    0.0000
     19 H7         6.3336    6.6787   12.0716 H         1 RES1    0.0000
     20 H8         5.5954    6.5181   10.6531 H         1 RES1    0.0000
     21 H9         7.1286    4.7229   11.2371 H         1 RES1    0.0000
     22 H10        9.1106    5.6609   11.9671 H         1 RES1    0.0000
     23 H11       10.4057    4.9489    9.8586 H         1 RES1    0.0000
     24 O2        10.1567    3.1602   11.9179 O.2       1 RES1    0.0000
     25 C10        8.6137    1.1259   10.5993 C.3       1 RES1    0.0000
     26 H12        9.1313    0.9653   11.3969 H         1 RES1    0.0000
     27 H13        8.9304    0.5460    9.9001 H         1 RES1    0.0000
     28 H14        7.6811    0.9369   10.7776 H         1 RES1    0.0000
     29 C11        9.1127    2.4450    7.7393 C.3       1 RES1    0.0000
     30 C12        8.5318    2.9047    6.4054 C.3       1 RES1    0.0000
     31 C13        7.0718    2.5127    6.2609 C.3       1 RES1    0.0000
     32 C14        6.2299    3.1198    7.3643 C.3       1 RES1    0.0000
     33 C15        6.7999    2.7103    8.7244 C.3       1 RES1    0.0000
     34 H15        6.2888    3.1548    9.4329 H         1 RES1    0.0000
     35 H16        6.7060    1.7417    8.8212 H         1 RES1    0.0000
     36 C16        4.7644    2.6426    7.2414 C.3       1 RES1    0.0000
     37 H17        4.1998    3.1111    7.8700 H         1 RES1    0.0000
     38 H18        4.7131    1.6926    7.4135 H         1 RES1    0.0000
     39 H19        4.4368    2.8174    6.3516 H         1 RES1    0.0000
     40 H20        6.2583    4.1081    7.2983 H         1 RES1    0.0000
     41 H21        7.0008    1.5354    6.3178 H         1 RES1    0.0000
     42 H22        6.7355    2.8097    5.4003 H         1 RES1    0.0000
     43 H23        8.6181    3.8690    6.3378 H         1 RES1    0.0000
     44 H24        9.0461    2.4854    5.6862 H         1 RES1    0.0000
     45 C17       10.6525    2.6208    7.8100 C.3       1 RES1    0.0000
     46 C18       11.1766    3.9137    7.1584 C.3       1 RES1    0.0000
     47 H25       12.1267    3.9934    7.3413 H         1 RES1    0.0000
     48 H26       10.7016    4.6759    7.5073 H         1 RES1    0.0000
     49 H27       11.0489    3.8591    6.2025 H         1 RES1    0.0000
     50 C19       11.3502    1.4163    7.1630 C.3       1 RES1    0.0000
     51 H28       12.3057    1.5364    7.1984 H         1 RES1    0.0000
     52 H29       11.1111    0.6115    7.6348 H         1 RES1    0.0000
     53 H30       11.0641    1.3377    6.2456 H         1 RES1    0.0000
     54 H31       10.9102    2.6503    8.7628 H         1 RES1    0.0000
     55 H32        8.9435    1.4764    7.7793 H         1 RES1    0.0000
@<TRIPOS>BOND
     1    1    2 1
     2    2    3 1
     3    3    4 1
     4    4    5 1
     5    5    6 1
     6    6    2 1
     7    7    6 1
     8    8    1 1
     9    9    8 1
    10   10    9 1
    11   11   10 1
    12   12    7 1
    13   13   12 1
    14   14   12 1
    15   15   11 1
    16   16   11 1
    17   17   10 1
    18   18   10 1
    19   19    9 1
    20   20    9 1
    21   21    8 1
    22   22    7 1
    23   23    6 1
    24   24    5 2
    25   25    4 1
    26   26   25 1
    27   27   25 1
    28   28   25 1
    29   29    3 1
    30   30   29 1
    31   31   30 1
    32   32   31 1
    33   33    3 1
    34   34   33 1
    35   35   33 1
    36   36   32 1
    37   37   36 1
    38   38   36 1
    39   39   36 1
    40   40   32 1
    41   41   31 1
    42   42   31 1
    43   43   30 1
    44   44   30 1
    45   45   29 1
    46   46   45 1
    47   47   46 1
    48   48   46 1
    49   49   46 1
    50   50   45 1
    51   51   50 1
    52   52   50 1
    53   53   50 1
    54   54   45 1
    55   55   29 1
    56    7    8 1
    57   11   12 1
    58   32   33 1
@<TRIPOS>SUBSTRUCTURE
     1 RES1 1

@<TRIPOS>CRYSIN
  10.9200   10.9200   15.3680  90.0000  90.0000  90.0000  78 1

