# MOL2 file generated by ConQuest
# Please check atom types

@<TRIPOS>MOLECULE
QOGPUZ
    59    55     2
SMALL
NO_CHARGES
****
Generated from CSD

@<TRIPOS>ATOM
      1 O1         3.6922    2.8153    8.4952 O.3       1 RES1    0.0000
      2 N1         4.0913    1.3818    8.6211 N.3       1 RES1    0.0000
      3 C1         5.4916    1.4155    9.1563 C.3       1 RES1    0.0000
      4 N2         6.3182    1.6180    7.9488 N.am      1 RES1    0.0000
      5 C2         5.6481    1.4196    6.8033 C.2       1 RES1    0.0000
      6 C3         4.2299    1.0235    7.1760 C.3       1 RES1    0.0000
      7 C4         3.1347    1.7796    6.4376 C.3       1 RES1    0.0000
      8 C5         2.6979    2.8408    7.4711 C.3       1 RES1    0.0000
      9 C6         1.3078    2.4192    7.9272 C.3       1 RES1    0.0000
     10 C7         1.1079    0.9767    7.3947 C.3       1 RES1    0.0000
     11 C8         1.8958    0.9956    6.0637 C.3       1 RES1    0.0000
     12 O2         6.0893    1.4950    5.6593 O.2       1 RES1    0.0000
     13 C9         7.7498    1.8878    7.9607 C.3       1 RES1    0.0000
     14 C10        5.8264    0.0828    9.8751 C.3       1 RES1    0.0000
     15 C11        4.9980   -0.0558   11.1621 C.3       1 RES1    0.0000
     16 C12        5.1954    1.1055   12.0985 C.3       1 RES1    0.0000
     17 C13        4.8711    2.4406   11.4272 C.3       1 RES1    0.0000
     18 C14        5.7036    2.5611   10.1378 C.3       1 RES1    0.0000
     19 C15        5.1403    3.6387   12.3427 C.3       1 RES1    0.0000
     20 C16        5.8155   -1.2031    9.0117 C.3       1 RES1    0.0000
     21 C17        4.4702   -1.9485    8.9792 C.3       1 RES1    0.0000
     22 C18        6.9137   -2.1642    9.4955 C.3       1 RES1    0.0000
     23 H1         4.1285    0.0361    7.0880 H         1 RES1    0.0000
     24 H2         3.5161    2.1929    5.6112 H         1 RES1    0.0000
     25 H3         2.6838    3.7519    7.1100 H         1 RES1    0.0000
     26 H4         1.5537    0.3100    7.9538 H         1 RES1    0.0000
     27 H5         0.1787    0.7651    7.2038 H         1 RES1    0.0000
     28 H6         8.1093    1.8501    7.0603 H         1 RES1    0.0000
     29 H7         7.9289    2.7489    8.3380 H         1 RES1    0.0000
     30 H8         8.2003    1.2137    8.4885 H         1 RES1    0.0000
     31 H9         6.7556    0.2034   10.1598 H         1 RES1    0.0000
     32 H10        5.2369   -0.8791   11.6193 H         1 RES1    0.0000
     33 H11        4.0524   -0.0918   10.9480 H         1 RES1    0.0000
     34 H12        6.1176    1.1358   12.3797 H         1 RES1    0.0000
     35 H13        4.6137    0.9841   12.8925 H         1 RES1    0.0000
     36 H14        3.9171    2.4356   11.1841 H         1 RES1    0.0000
     37 H15        6.6498    2.5447   10.4017 H         1 RES1    0.0000
     38 H16        5.5480    3.4165    9.6760 H         1 RES1    0.0000
     39 H17        4.8218    4.4481   11.9202 H         1 RES1    0.0000
     40 H18        6.0805    3.7387   12.5186 H         1 RES1    0.0000
     41 H19        4.6890    3.5673   13.1865 H         1 RES1    0.0000
     42 H20        6.0522   -0.9529    8.0869 H         1 RES1    0.0000
     43 H21        4.4608   -2.6612    8.3508 H         1 RES1    0.0000
     44 H22        4.2890   -2.3495    9.8346 H         1 RES1    0.0000
     45 H23        3.7291   -1.3441    8.8056 H         1 RES1    0.0000
     46 H24        6.9203   -2.9531    8.9422 H         1 RES1    0.0000
     47 H25        6.7301   -2.4037   10.4156 H         1 RES1    0.0000
     48 H26        7.7533   -1.7049    9.4156 H         1 RES1    0.0000
     49 H27        1.2374    2.4422    8.9063 H         1 RES1    0.0000
     50 H28        0.6381    3.0113    7.5024 H         1 RES1    0.0000
     51 H29        2.1116    0.0787    5.7501 H         1 RES1    0.0000
     52 H30        1.3819    1.4655    5.3542 H         1 RES1    0.0000
     53 C19        0.6828    1.7386    6.6841 Du        2 SUP2    0.0000
     54 H31       -0.0330    1.1424    6.9040 Du        2 SUP2    0.0000
     55 H32        0.3704    2.4365    6.0788 Du        2 SUP2    0.0000
     56 H33        1.3671    1.7968    8.6737 Du        2 SUP2    0.0000
     57 H34        0.7830    3.2032    8.2188 Du        2 SUP2    0.0000
     58 H35        1.9223    0.1411    6.5244 Du        2 SUP2    0.0000
     59 H36        1.8076    0.8668    5.0857 Du        2 SUP2    0.0000
@<TRIPOS>BOND
     1    1    2 1
     2    2    3 1
     3    3    4 1
     4    4    5 1
     5    5    6 1
     6    6    2 1
     7    7    6 1
     8    8    1 1
     9    9    8 1
    10   10    9 1
    11   11    7 1
    12   12    5 2
    13   13    4 1
    14   14    3 1
    15   15   14 1
    16   16   15 1
    17   17   16 1
    18   18    3 1
    19   19   17 1
    20   20   14 1
    21   21   20 1
    22   22   20 1
    23   23    6 1
    24   24    7 1
    25   25    8 1
    26   26   10 1
    27   27   10 1
    28   28   13 1
    29   29   13 1
    30   30   13 1
    31   31   14 1
    32   32   15 1
    33   33   15 1
    34   34   16 1
    35   35   16 1
    36   36   17 1
    37   37   18 1
    38   38   18 1
    39   39   19 1
    40   40   19 1
    41   41   19 1
    42   42   20 1
    43   43   21 1
    44   44   21 1
    45   45   21 1
    46   46   22 1
    47   47   22 1
    48   48   22 1
    49   49    9 1
    50   50    9 1
    51   51   11 1
    52   52   11 1
    53    7    8 1
    54   10   11 1
    55   17   18 1
@<TRIPOS>SUBSTRUCTURE
     1 RES1 1
     2 SUP2 53

@<TRIPOS>CRYSIN
  17.8050    8.2008   11.6483  90.0000  96.4670  90.0000   5 1

