# MOL2 file generated by ConQuest
# Please check atom types

@<TRIPOS>MOLECULE
QOGQOU
   112   120     2
SMALL
NO_CHARGES
****
Generated from CSD

@<TRIPOS>ATOM
      1 O1         5.6180    9.0602    4.5609 O.3       1 RES1    0.0000
      2 N1         5.8789    8.3365    3.2973 N.3       1 RES1    0.0000
      3 C1         5.8415    9.4393    2.3016 C.3       1 RES1    0.0000
      4 C2         7.2579    9.9775    2.2377 C.2       1 RES1    0.0000
      5 O2         7.6029   11.0344    1.7069 O.2       1 RES1    0.0000
      6 N2         8.0482    9.0860    2.8520 N.am      1 RES1    0.0000
      7 C3         7.3187    7.9045    3.3591 C.3       1 RES1    0.0000
      8 C4         7.5330    6.6614    2.4613 C.3       1 RES1    0.0000
      9 C5         6.8728    5.4219    3.0891 C.3       1 RES1    0.0000
     10 C6         7.2985    5.1718    4.5125 C.3       1 RES1    0.0000
     11 C7         7.0512    6.3787    5.3937 C.3       1 RES1    0.0000
     12 C8         7.7661    7.5964    4.7887 C.3       1 RES1    0.0000
     13 H1         8.7320    7.4279    4.7805 H         1 RES1    0.0000
     14 H2         7.5646    8.3611    5.3370 H         1 RES1    0.0000
     15 C9         7.4723    6.1612    6.8388 C.3       1 RES1    0.0000
     16 H3         7.2712    6.9495    7.3562 H         1 RES1    0.0000
     17 H4         8.4156    5.9818    6.8532 H         1 RES1    0.0000
     18 H5         6.9778    5.4201    7.2037 H         1 RES1    0.0000
     19 H6         6.1106    6.5599    5.3618 H         1 RES1    0.0000
     20 H7         8.2446    4.9561    4.5331 H         1 RES1    0.0000
     21 H8         6.7679    4.4270    4.8505 H         1 RES1    0.0000
     22 H9         7.1045    4.6590    2.5407 H         1 RES1    0.0000
     23 H10        5.9127    5.5288    3.0653 H         1 RES1    0.0000
     24 C10        7.1797    6.8208    0.9627 C.3       1 RES1    0.0000
     25 C11        5.7188    6.5454    0.6226 C.3       1 RES1    0.0000
     26 H11        5.4947    6.9241   -0.2278 H         1 RES1    0.0000
     27 H12        5.1367    6.8969    1.3100 H         1 RES1    0.0000
     28 H13        5.5641    5.5868    0.5741 H         1 RES1    0.0000
     29 C12        8.0866    5.9419    0.0989 C.3       1 RES1    0.0000
     30 H14        7.9303    6.1032   -0.8390 H         1 RES1    0.0000
     31 H15        9.0115    6.1358    0.3123 H         1 RES1    0.0000
     32 H16        7.8955    5.0268    0.3144 H         1 RES1    0.0000
     33 H17        7.3855    7.7522    0.7370 H         1 RES1    0.0000
     34 H18        8.4993    6.4584    2.4851 H         1 RES1    0.0000
     35 C13        9.4866    9.2382    2.9056 C.3       1 RES1    0.0000
     36 H19        9.8918    8.4300    2.5974 H         1 RES1    0.0000
     37 H20        9.7433    9.4103    3.8136 H         1 RES1    0.0000
     38 H21        9.7265    9.9630    2.3243 H         1 RES1    0.0000
     39 C14        4.8062   10.4451    2.7922 C.3       1 RES1    0.0000
     40 C15        4.6713   10.0953    4.2929 C.3       1 RES1    0.0000
     41 C16        3.2048    9.6894    4.4300 C.3       1 RES1    0.0000
     42 C17        2.3981   10.9887    4.3383 C.3       1 RES1    0.0000
     43 C18        2.4978   11.3421    2.8169 C.3       1 RES1    0.0000
     44 C19        3.3808   10.2349    2.2562 C.3       1 RES1    0.0000
     45 C20        2.9077    9.0334    3.0746 C.3       1 RES1    0.0000
     46 H22        1.9731    8.8250    2.9314 H         1 RES1    0.0000
     47 H23        3.4495    8.2470    2.9190 H         1 RES1    0.0000
     48 H24        3.3394   10.1298    1.2791 H         1 RES1    0.0000
     49 H25        2.8917   12.2046    2.6788 H         1 RES1    0.0000
     50 H26        1.6222   11.3312    2.3964 H         1 RES1    0.0000
     51 H27        2.8033   11.6809    4.8732 H         1 RES1    0.0000
     52 H28        1.4885   10.8618    4.6217 H         1 RES1    0.0000
     53 H29        2.9961    9.1494    5.2185 H         1 RES1    0.0000
     54 H30        4.8571   10.8528    4.8670 H         1 RES1    0.0000
     55 H31        5.1158   11.3493    2.6335 H         1 RES1    0.0000
     56 H32        5.5667    9.0751    1.4440 H         1 RES1    0.0000
     57 O3         7.5149   15.6703    8.6827 O.2       2 RES2    0.0000
     58 C21        7.0455   14.5803    8.3416 C.2       2 RES2    0.0000
     59 N3         6.4309   13.7014    9.1229 N.am      2 RES2    0.0000
     60 C22        6.0005   12.4710    8.3880 C.3       2 RES2    0.0000
     61 N4         6.1640   12.8510    6.9491 N.3       2 RES2    0.0000
     62 C23        7.0994   13.9896    6.9367 C.3       2 RES2    0.0000
     63 C24        6.6466   14.9373    5.8462 C.3       2 RES2    0.0000
     64 C25        7.2585   14.7035    4.4403 C.3       2 RES2    0.0000
     65 C26        6.7211   15.8126    3.5261 C.3       2 RES2    0.0000
     66 C27        5.2396   15.4501    3.3807 C.3       2 RES2    0.0000
     67 C28        5.0784   14.1508    4.2012 C.3       2 RES2    0.0000
     68 C29        6.4598   13.4858    3.9683 C.3       2 RES2    0.0000
     69 H33        6.6352   13.2702    3.0179 H         2 RES2    0.0000
     70 H34        6.5961   12.6921    4.5197 H         2 RES2    0.0000
     71 C30        5.1656   14.5731    5.6545 C.3       2 RES2    0.0000
     72 O4         4.8703   13.5182    6.5894 O.3       2 RES2    0.0000
     73 H35        4.5982   15.3414    5.8122 H         2 RES2    0.0000
     74 H36        4.3213   13.5855    3.9652 H         2 RES2    0.0000
     75 H37        4.6679   16.1514    3.7405 H         2 RES2    0.0000
     76 H38        4.9959   15.2961    2.4562 H         2 RES2    0.0000
     77 H39        6.8247   16.7005    3.9126 H         2 RES2    0.0000
     78 H40        7.1510   15.7818    2.6562 H         2 RES2    0.0000
     79 H41        8.2190   14.5785    4.4475 H         2 RES2    0.0000
     80 H42        6.7800   15.8760    6.0977 H         2 RES2    0.0000
     81 H43        8.0079   13.6924    6.7811 H         2 RES2    0.0000
     82 C31        4.5860   12.0977    8.7714 C.3       2 RES2    0.0000
     83 C32        4.0640   10.8365    8.0643 C.3       2 RES2    0.0000
     84 C33        4.9828    9.6677    8.3849 C.3       2 RES2    0.0000
     85 C34        6.4243    9.9866    8.0169 C.3       2 RES2    0.0000
     86 C35        6.9424   11.2750    8.7126 C.3       2 RES2    0.0000
     87 C36        8.4477   11.4780    8.5013 C.3       2 RES2    0.0000
     88 C37        8.9624   11.1246    7.1058 C.3       2 RES2    0.0000
     89 H44        9.8816   11.4472    7.0223 H         2 RES2    0.0000
     90 H45        8.3939   11.5178    6.4255 H         2 RES2    0.0000
     91 H46        8.9276   10.1696    7.0192 H         2 RES2    0.0000
     92 C38        9.2615   10.7241    9.5496 C.3       2 RES2    0.0000
     93 H47       10.1998   10.7404    9.3228 H         2 RES2    0.0000
     94 H48        9.1271   11.1391   10.4061 H         2 RES2    0.0000
     95 H49        8.9394    9.8126    9.5908 H         2 RES2    0.0000
     96 H50        8.6161   12.4475    8.6374 H         2 RES2    0.0000
     97 H51        6.8454   11.1500    9.6825 H         2 RES2    0.0000
     98 H52        6.9806    9.2418    8.2931 H         2 RES2    0.0000
     99 H53        6.4875   10.1044    7.0388 H         2 RES2    0.0000
    100 H54        4.9409    9.4720    9.3362 H         2 RES2    0.0000
    101 H55        4.6694    8.8884    7.8798 H         2 RES2    0.0000
    102 C39        2.6306   10.5665    8.4477 C.3       2 RES2    0.0000
    103 H56        2.3003    9.8018    7.9736 H         2 RES2    0.0000
    104 H57        2.5585   10.4215    9.3939 H         2 RES2    0.0000
    105 H58        2.0685   11.3149    8.2282 H         2 RES2    0.0000
    106 H59        4.0679   10.9307    7.0903 H         2 RES2    0.0000
    107 H60        4.5902   11.9636    9.7320 H         2 RES2    0.0000
    108 H61        3.9890   12.8516    8.5436 H         2 RES2    0.0000
    109 C40        6.2648   13.8971   10.5494 C.3       2 RES2    0.0000
    110 H62        5.3260   13.9461   10.7689 H         2 RES2    0.0000
    111 H63        6.6712   13.1832   11.0245 H         2 RES2    0.0000
    112 H64        6.7027   14.7090   10.7833 H         2 RES2    0.0000
@<TRIPOS>BOND
     1    1    2 1
     2    2    3 1
     3    3    4 1
     4    4    5 2
     5    6    4 1
     6    7    2 1
     7    8    7 1
     8    9    8 1
     9   10    9 1
    10   11   10 1
    11   12    7 1
    12   13   12 1
    13   14   12 1
    14   15   11 1
    15   16   15 1
    16   17   15 1
    17   18   15 1
    18   19   11 1
    19   20   10 1
    20   21   10 1
    21   22    9 1
    22   23    9 1
    23   24    8 1
    24   25   24 1
    25   26   25 1
    26   27   25 1
    27   28   25 1
    28   29   24 1
    29   30   29 1
    30   31   29 1
    31   32   29 1
    32   33   24 1
    33   34    8 1
    34   35    6 1
    35   36   35 1
    36   37   35 1
    37   38   35 1
    38   39    3 1
    39   40    1 1
    40   41   40 1
    41   42   41 1
    42   43   42 1
    43   44   39 1
    44   45   41 1
    45   46   45 1
    46   47   45 1
    47   48   44 1
    48   49   43 1
    49   50   43 1
    50   51   42 1
    51   52   42 1
    52   53   41 1
    53   54   40 1
    54   55   39 1
    55   56    3 1
    56   57   58 2
    57   58   59 1
    58   59   60 1
    59   60   61 1
    60   61   62 1
    61   62   58 1
    62   63   62 1
    63   64   63 1
    64   65   64 1
    65   66   65 1
    66   67   66 1
    67   68   64 1
    68   69   68 1
    69   70   68 1
    70   71   63 1
    71   72   61 1
    72   73   71 1
    73   74   67 1
    74   75   66 1
    75   76   66 1
    76   77   65 1
    77   78   65 1
    78   79   64 1
    79   80   63 1
    80   81   62 1
    81   82   60 1
    82   83   82 1
    83   84   83 1
    84   85   84 1
    85   86   60 1
    86   87   86 1
    87   88   87 1
    88   89   88 1
    89   90   88 1
    90   91   88 1
    91   92   87 1
    92   93   92 1
    93   94   92 1
    94   95   92 1
    95   96   87 1
    96   97   86 1
    97   98   85 1
    98   99   85 1
    99  100   84 1
   100  101   84 1
   101  102   83 1
   102  103  102 1
   103  104  102 1
   104  105  102 1
   105  106   83 1
   106  107   82 1
   107  108   82 1
   108  109   59 1
   109  110  109 1
   110  111  109 1
   111  112  109 1
   112    6    7 1
   113   11   12 1
   114   39   40 1
   115   43   44 1
   116   44   45 1
   117   67   68 1
   118   67   71 1
   119   71   72 1
   120   85   86 1
@<TRIPOS>SUBSTRUCTURE
     1 RES1 1
     2 RES2 57

@<TRIPOS>CRYSIN
  10.4453   18.1212   10.5386  90.0000 102.0300  90.0000   4 1

