# MOL2 file generated by ConQuest
# Please check atom types

@<TRIPOS>MOLECULE
QOGQIO
    54    57     1
SMALL
NO_CHARGES
****
Generated from CSD

@<TRIPOS>ATOM
      1 O1         4.1682    6.5032   10.2759 O.3       1 RES1    0.0000
      2 N1         2.7359    6.7857   10.1546 N.3       1 RES1    0.0000
      3 C1         2.0431    6.6212   11.4766 C.3       1 RES1    0.0000
      4 N2         1.3785    5.3025   11.3680 N.am      1 RES1    0.0000
      5 C2         1.3160    4.8471   10.0979 C.2       1 RES1    0.0000
      6 C3         2.2033    5.7302    9.2452 C.3       1 RES1    0.0000
      7 C4         3.4260    4.9707    8.7300 C.3       1 RES1    0.0000
      8 C5         4.3908    5.1322    9.8994 C.3       1 RES1    0.0000
      9 C6         5.8664    4.9504    9.5939 C.3       1 RES1    0.0000
     10 C7         6.2946    5.7100    8.3357 C.3       1 RES1    0.0000
     11 C8         5.4159    5.3180    7.1378 C.3       1 RES1    0.0000
     12 C9         3.9572    5.5559    7.4260 C.2       1 RES1    0.0000
     13 O2         3.2339    6.1552    6.6583 O.2       1 RES1    0.0000
     14 H1         5.5362    4.3512    6.9707 H         1 RES1    0.0000
     15 H2         5.6655    5.8088    6.3118 H         1 RES1    0.0000
     16 H3         7.2431    5.4900    8.1519 H         1 RES1    0.0000
     17 H4         6.2333    6.6735    8.4813 H         1 RES1    0.0000
     18 H5         6.0398    4.0082    9.4695 H         1 RES1    0.0000
     19 H6         6.3841    5.2388   10.3745 H         1 RES1    0.0000
     20 H7         4.1470    4.5408   10.6526 H         1 RES1    0.0000
     21 H8         3.2177    4.0046    8.5911 H         1 RES1    0.0000
     22 H9         1.7163    6.1288    8.5061 H         1 RES1    0.0000
     23 O3         0.6750    3.8849    9.6952 O.2       1 RES1    0.0000
     24 C10        0.5018    4.7526   12.3929 C.3       1 RES1    0.0000
     25 H10        0.3623    3.8307   12.2022 H         1 RES1    0.0000
     26 H11       -0.3700    5.1543   12.3439 H         1 RES1    0.0000
     27 H12        0.8847    4.8692   13.2701 H         1 RES1    0.0000
     28 C11        0.9788    7.7430   11.6436 C.3       1 RES1    0.0000
     29 C12       -0.1273    7.7761   10.5610 C.3       1 RES1    0.0000
     30 C13        0.2120    8.6069    9.3225 C.3       1 RES1    0.0000
     31 H13       -0.4479    8.4777    8.6106 H         1 RES1    0.0000
     32 H14        1.0903    8.3968    8.9559 H         1 RES1    0.0000
     33 H15        0.1841    9.5610    9.5386 H         1 RES1    0.0000
     34 C14       -1.4443    8.2685   11.1711 C.3       1 RES1    0.0000
     35 H16       -2.1771    8.2350   10.5268 H         1 RES1    0.0000
     36 H17       -1.7112    7.7410   11.9454 H         1 RES1    0.0000
     37 H18       -1.3438    9.1963   11.4814 H         1 RES1    0.0000
     38 H19       -0.2724    6.8752   10.2753 H         1 RES1    0.0000
     39 C15        1.6763    9.0955   11.8382 C.3       1 RES1    0.0000
     40 C16        2.6076    9.0901   13.0493 C.3       1 RES1    0.0000
     41 C17        3.6696    8.0010   12.9086 C.3       1 RES1    0.0000
     42 C18        2.9985    6.6422   12.6747 C.3       1 RES1    0.0000
     43 H20        3.6845    5.9296   12.5617 H         1 RES1    0.0000
     44 H21        2.4700    6.4042   13.4596 H         1 RES1    0.0000
     45 C19        4.5701    7.9339   14.1414 C.3       1 RES1    0.0000
     46 H22        5.2287    7.2085   14.0316 H         1 RES1    0.0000
     47 H23        4.0648    7.7326   14.9366 H         1 RES1    0.0000
     48 H24        5.0677    8.7687   14.2849 H         1 RES1    0.0000
     49 H25        4.2266    8.1999   12.1260 H         1 RES1    0.0000
     50 H26        2.0752    8.9004   13.8705 H         1 RES1    0.0000
     51 H27        3.0464    9.9595   13.1426 H         1 RES1    0.0000
     52 H28        2.2191    9.2965   11.0298 H         1 RES1    0.0000
     53 H29        0.9781    9.7795   11.9436 H         1 RES1    0.0000
     54 H30        0.5387    7.5043   12.4873 H         1 RES1    0.0000
@<TRIPOS>BOND
     1    1    2 1
     2    2    3 1
     3    3    4 1
     4    4    5 1
     5    5    6 1
     6    6    2 1
     7    7    6 1
     8    8    1 1
     9    9    8 1
    10   10    9 1
    11   11   10 1
    12   12    7 1
    13   13   12 2
    14   14   11 1
    15   15   11 1
    16   16   10 1
    17   17   10 1
    18   18    9 1
    19   19    9 1
    20   20    8 1
    21   21    7 1
    22   22    6 1
    23   23    5 2
    24   24    4 1
    25   25   24 1
    26   26   24 1
    27   27   24 1
    28   28    3 1
    29   29   28 1
    30   30   29 1
    31   31   30 1
    32   32   30 1
    33   33   30 1
    34   34   29 1
    35   35   34 1
    36   36   34 1
    37   37   34 1
    38   38   29 1
    39   39   28 1
    40   40   39 1
    41   41   40 1
    42   42    3 1
    43   43   42 1
    44   44   42 1
    45   45   41 1
    46   46   45 1
    47   47   45 1
    48   48   45 1
    49   49   41 1
    50   50   40 1
    51   51   40 1
    52   52   39 1
    53   53   39 1
    54   54   28 1
    55    7    8 1
    56   11   12 1
    57   41   42 1
@<TRIPOS>SUBSTRUCTURE
     1 RES1 1

@<TRIPOS>CRYSIN
   8.5646   12.0765   17.7100  90.0000  90.0000  90.0000  19 1

