# MOL2 file generated by ConQuest
# Please check atom types

@<TRIPOS>MOLECULE
QOGYER
    54    31     2
SMALL
NO_CHARGES
****
Generated from CSD

@<TRIPOS>ATOM
      1 O1         5.3076    0.7636   11.4264 O.2       1 RES1    0.0000
      2 C1         4.7933    1.6290   12.0759 C.2       1 RES1    0.0000
      3 C2         5.3247    2.2889   13.2956 C.3       1 RES1    0.0000
      4 H1         4.8042    2.0021   14.0752 H         1 RES1    0.0000
      5 H2         5.2573    3.2610   13.1970 H         1 RES1    0.0000
      6 H3         6.2635    2.0369   13.4201 H         1 RES1    0.0000
      7 O2         3.5389    2.0824   11.8285 O.3       1 RES1    0.0000
      8 O3         5.2216   -2.1692    8.9361 O.2       1 RES1    0.0000
      9 O4         5.8738   -0.3251    8.0605 O.2       1 RES1    0.0000
     10 N1         5.0234   -1.0200    8.5258 N.pl3     1 RES1    0.0000
     11 C3         3.7646    1.4312    7.1160 C.ar      1 RES1    0.0000
     12 H4         3.9546    0.8140    6.4188 H         1 RES1    0.0000
     13 C4         3.7248    2.7891    6.8509 C.ar      1 RES1    0.0000
     14 H5         3.8909    3.1016    5.9689 H         1 RES1    0.0000
     15 C5         3.4472    3.6931    7.8553 C.ar      1 RES1    0.0000
     16 H6         3.4375    4.6254    7.6679 H         1 RES1    0.0000
     17 C6         3.1834    3.2430    9.1298 C.ar      1 RES1    0.0000
     18 H7         2.9842    3.8680    9.8181 H         1 RES1    0.0000
     19 C7         2.8495    1.4324   10.7818 C.2       1 RES1    0.0000
     20 C8         1.8531    0.6339   11.1526 C.2       1 RES1    0.0000
     21 H8         1.7211    0.5208   12.0856 H         1 RES1    0.0000
     22 C9         0.9375   -0.0887   10.2642 C.2       1 RES1    0.0000
     23 H9         0.0088    0.0784   10.3713 H         1 RES1    0.0000
     24 C10        1.2935   -0.9631    9.3147 C.2       1 RES1    0.0000
     25 H10        0.6035   -1.3656    8.7997 H         1 RES1    0.0000
     26 C11        2.6857   -1.3438    9.0177 C.2       1 RES1    0.0000
     27 H11        2.9138   -2.2658    9.0483 H         1 RES1    0.0000
     28 C12        3.6368   -0.4772    8.7120 C.2       1 RES1    0.0000
     29 C13        3.5222    0.9684    8.4185 C.ar      1 RES1    0.0000
     30 C14        3.2054    1.8782    9.4230 C.ar      1 RES1    0.0000
     31 O5         3.7579    2.4959   11.4878 Du        2 SUP2    0.0000
     32 O6         4.9863   -1.9314    9.2751 Du        2 SUP2    0.0000
     33 O7         6.0214   -0.7985    7.6322 Du        2 SUP2    0.0000
     34 N2         5.0234   -1.0200    8.5258 Du        2 SUP2    0.0000
     35 C15        2.1392   -1.1496    8.9437 Du        2 SUP2    0.0000
     36 H12        2.4159   -1.8324    8.3434 Du        2 SUP2    0.0000
     37 C16        0.9857   -1.3258    9.6868 Du        2 SUP2    0.0000
     38 H13        0.4559   -2.1050    9.5606 Du        2 SUP2    0.0000
     39 C17        0.5974   -0.3742   10.6071 Du        2 SUP2    0.0000
     40 H14       -0.2105   -0.4681   11.1003 Du        2 SUP2    0.0000
     41 C18        1.4295    0.7214   10.7881 Du        2 SUP2    0.0000
     42 H15        1.2144    1.3335   11.4827 Du        2 SUP2    0.0000
     43 C19        3.3171    2.2092   10.1610 Du        2 SUP2    0.0000
     44 C20        3.4779    3.2070    9.2790 Du        2 SUP2    0.0000
     45 H16        3.8961    4.0017    9.5861 Du        2 SUP2    0.0000
     46 C21        3.0526    3.1620    7.8731 Du        2 SUP2    0.0000
     47 H17        2.4961    3.8718    7.5710 Du        2 SUP2    0.0000
     48 C22        3.3684    2.2182    6.9732 Du        2 SUP2    0.0000
     49 H18        2.9867    2.2992    6.1065 Du        2 SUP2    0.0000
     50 C23        4.2386    1.0827    7.2167 Du        2 SUP2    0.0000
     51 H19        4.9772    0.9683    6.6329 Du        2 SUP2    0.0000
     52 C24        4.0815    0.1890    8.1892 Du        2 SUP2    0.0000
     53 C25        2.9075    0.0090    9.0623 Du        2 SUP2    0.0000
     54 C26        2.5531    0.9760   10.0080 Du        2 SUP2    0.0000
@<TRIPOS>BOND
     1    1    2 2
     2    2    3 1
     3    3    4 1
     4    5    3 1
     5    6    3 1
     6    7    2 1
     7    8   10 2
     8    9   10 2
     9   10   28 1
    10   11   12 1
    11   13   11 ar
    12   14   13 1
    13   15   13 ar
    14   16   15 1
    15   17   15 ar
    16   18   17 1
    17   19    7 1
    18   20   19 2
    19   21   20 1
    20   22   20 1
    21   23   22 1
    22   24   22 2
    23   25   24 1
    24   26   24 1
    25   27   26 1
    26   28   26 2
    27   29   11 ar
    28   30   17 ar
    29   19   30 1
    30   28   29 1
    31   29   30 ar
@<TRIPOS>SUBSTRUCTURE
     1 RES1 1
     2 SUP2 31

@<TRIPOS>CRYSIN
   7.5375   12.8590   13.0890  90.0000 103.1490  90.0000  14 2

