# MOL2 file generated by ConQuest
# Please check atom types

@<TRIPOS>MOLECULE
QOHBIZ
   102   105     1
SMALL
USER_CHARGES
****
Generated from CSD

@<TRIPOS>ATOM
      1 N1        12.9123    7.2216    4.6508 N.pl3     1 RES1    1.0000
      2 O1        10.8896    2.4565    0.3547 O.2       1 RES1    0.0000
      3 O2         7.8334    5.6439    2.6811 O.3       1 RES1    0.0000
      4 O3         8.8727    5.2063    4.6165 O.2       1 RES1    0.0000
      5 O4        12.5050    8.4192    4.6780 O.2       1 RES1   -1.0000
      6 O5         8.0604    2.6262    3.3924 O.2       1 RES1    0.0000
      7 O6         9.6574    1.1137    2.9753 O.3       1 RES1    0.0000
      8 C1        12.5536    2.6067    2.0070 C.ar      1 RES1    0.0000
      9 C2        12.8423    2.7765    3.3491 C.ar      1 RES1    0.0000
     10 H1        12.1610    2.9958    3.9425 H         1 RES1    0.0000
     11 C3        14.1361    2.6237    3.8196 C.ar      1 RES1    0.0000
     12 H2        14.3244    2.7297    4.7244 H         1 RES1    0.0000
     13 C4        15.1274    2.3162    2.9410 C.ar      1 RES1    0.0000
     14 H3        15.9996    2.2239    3.2523 H         1 RES1    0.0000
     15 C5        14.8678    2.1381    1.6020 C.ar      1 RES1    0.0000
     16 H4        15.5581    1.9101    1.0216 H         1 RES1    0.0000
     17 C6        13.5818    2.2974    1.1174 C.ar      1 RES1    0.0000
     18 H5        13.4053    2.1986    0.2096 H         1 RES1    0.0000
     19 C7        11.1873    2.7540    1.4891 C.2       1 RES1    0.0000
     20 C8        10.0978    3.3219    2.3838 C.2       1 RES1    0.0000
     21 C9         9.9291    4.6261    2.5531 C.2       1 RES1    0.0000
     22 C10        8.8193    5.1561    3.4266 C.2       1 RES1    0.0000
     23 C11        6.6882    6.1494    3.4488 C.3       1 RES1    0.0000
     24 C12        5.7427    6.8164    2.4765 C.ar      1 RES1    0.0000
     25 C13        5.4746    8.1601    2.6136 C.ar      1 RES1    0.0000
     26 H6         5.9222    8.6612    3.2564 H         1 RES1    0.0000
     27 C14        4.5403    8.7627    1.7924 C.ar      1 RES1    0.0000
     28 H7         4.3423    9.6648    1.9063 H         1 RES1    0.0000
     29 C15        3.9119    8.0608    0.8302 C.ar      1 RES1    0.0000
     30 H8         3.2952    8.4852    0.2791 H         1 RES1    0.0000
     31 C16        4.1729    6.7353    0.6569 C.ar      1 RES1    0.0000
     32 H9         3.7398    6.2523   -0.0111 H         1 RES1    0.0000
     33 C17        5.0959    6.1108    1.4952 C.ar      1 RES1    0.0000
     34 H10        5.2760    5.2042    1.3864 H         1 RES1    0.0000
     35 C18       10.7601    5.7082    1.9012 C.3       1 RES1    0.0000
     36 H11       10.2173    6.1495    1.2292 H         1 RES1    0.0000
     37 H12       11.5067    5.2903    1.4458 H         1 RES1    0.0000
     38 C19       11.3067    6.7701    2.8574 C.3       1 RES1    0.0000
     39 H13       11.7103    7.4869    2.3445 H         1 RES1    0.0000
     40 H14       10.5761    7.1450    3.3732 H         1 RES1    0.0000
     41 C20       12.3257    6.1897    3.7894 C.3       1 RES1    0.0000
     42 H15       11.9068    5.5096    4.3405 H         1 RES1    0.0000
     43 H16       13.0282    5.7643    3.2725 H         1 RES1    0.0000
     44 C21        9.1440    2.3394    2.9763 C.2       1 RES1    0.0000
     45 C22        8.7989    0.0418    3.4589 C.3       1 RES1    0.0000
     46 H17        8.2237    0.3810    4.1621 H         1 RES1    0.0000
     47 H18        9.3460   -0.6664    3.8337 H         1 RES1    0.0000
     48 C23        7.9654   -0.5057    2.3546 C.3       1 RES1    0.0000
     49 H19        7.4019   -1.2032    2.6952 H         1 RES1    0.0000
     50 H20        8.5366   -0.8602    1.6695 H         1 RES1    0.0000
     51 H21        7.4221    0.1950    1.9879 H         1 RES1    0.0000
     52 N1A       13.9043    6.8494    5.4246 N.pl3     1 RES1    1.0000
     53 O1A       15.9270   11.6145    9.7207 O.2       1 RES1    0.0000
     54 O2A       18.9833    8.4271    7.3943 O.3       1 RES1    0.0000
     55 O3A       17.9439    8.8647    5.4588 O.2       1 RES1    0.0000
     56 O4A       14.3116    5.6518    5.3974 O.2       1 RES1   -1.0000
     57 O5A       18.7562   11.4448    6.6830 O.2       1 RES1    0.0000
     58 O6A       17.1592   12.9574    7.1001 O.3       1 RES1    0.0000
     59 C1A       14.2631   11.4643    8.0684 C.ar      1 RES1    0.0000
     60 C2A       13.9743   11.2945    6.7263 C.ar      1 RES1    0.0000
     61 H1A       14.6557   11.0753    6.1329 H         1 RES1    0.0000
     62 C3A       12.6805   11.4473    6.2558 C.ar      1 RES1    0.0000
     63 H2A       12.4922   11.3413    5.3510 H         1 RES1    0.0000
     64 C4A       11.6892   11.7548    7.1344 C.ar      1 RES1    0.0000
     65 H3A       10.8170   11.8471    6.8231 H         1 RES1    0.0000
     66 C5A       11.9488   11.9329    8.4734 C.ar      1 RES1    0.0000
     67 H4A       11.2585   12.1610    9.0537 H         1 RES1    0.0000
     68 C6A       13.2348   11.7736    8.9580 C.ar      1 RES1    0.0000
     69 H5A       13.4113   11.8724    9.8658 H         1 RES1    0.0000
     70 C7A       15.6293   11.3171    8.5862 C.2       1 RES1    0.0000
     71 C8A       16.7188   10.7491    7.6916 C.2       1 RES1    0.0000
     72 C9A       16.8875    9.4450    7.5223 C.2       1 RES1    0.0000
     73 C10A      17.9973    8.9149    6.6488 C.2       1 RES1    0.0000
     74 C11A      20.1284    7.9216    6.6266 C.3       1 RES1    0.0000
     75 C12A      21.0739    7.2546    7.5989 C.ar      1 RES1    0.0000
     76 C13A      21.3420    5.9109    7.4618 C.ar      1 RES1    0.0000
     77 H6A       20.8944    5.4098    6.8190 H         1 RES1    0.0000
     78 C14A      22.2763    5.3084    8.2830 C.ar      1 RES1    0.0000
     79 H7A       22.4743    4.4062    8.1691 H         1 RES1    0.0000
     80 C15A      22.9048    6.0102    9.2452 C.ar      1 RES1    0.0000
     81 H8A       23.5215    5.5859    9.7963 H         1 RES1    0.0000
     82 C16A      22.6437    7.3357    9.4185 C.ar      1 RES1    0.0000
     83 H9A       23.0768    7.8187   10.0865 H         1 RES1    0.0000
     84 C17A      21.7207    7.9602    8.5802 C.ar      1 RES1    0.0000
     85 H10A      21.5406    8.8668    8.6890 H         1 RES1    0.0000
     86 C18A      16.0565    8.3628    8.1742 C.3       1 RES1    0.0000
     87 H11A      16.5993    7.9215    8.8462 H         1 RES1    0.0000
     88 H12A      15.3099    8.7807    8.6296 H         1 RES1    0.0000
     89 C19A      15.5099    7.3009    7.2180 C.3       1 RES1    0.0000
     90 H13A      15.1063    6.5841    7.7308 H         1 RES1    0.0000
     91 H14A      16.2405    6.9260    6.7021 H         1 RES1    0.0000
     92 C20A      14.4909    7.8813    6.2860 C.3       1 RES1    0.0000
     93 H15A      14.9098    8.5614    5.7349 H         1 RES1    0.0000
     94 H16A      13.7884    8.3067    6.8029 H         1 RES1    0.0000
     95 C21A      17.6727   11.7316    7.0991 C.2       1 RES1    0.0000
     96 C22A      18.0177   14.0292    6.6165 C.3       1 RES1    0.0000
     97 H17A      18.5929   13.6900    5.9132 H         1 RES1    0.0000
     98 H18A      17.4707   14.7374    6.2417 H         1 RES1    0.0000
     99 C23A      18.8512   14.5767    7.7208 C.3       1 RES1    0.0000
    100 H19A      19.4147   15.2743    7.3802 H         1 RES1    0.0000
    101 H20A      18.2801   14.9313    8.4059 H         1 RES1    0.0000
    102 H21A      19.3946   13.8760    8.0875 H         1 RES1    0.0000
@<TRIPOS>BOND
     1    1    5 1
     2    2   19 2
     3    3   22 1
     4    4   22 2
     5    6   44 2
     6    7   44 1
     7    8    9 ar
     8    9   10 1
     9   11    9 ar
    10   12   11 1
    11   13   11 ar
    12   14   13 1
    13   15   13 ar
    14   16   15 1
    15   17    8 ar
    16   18   17 1
    17   19    8 1
    18   20   19 1
    19   21   20 2
    20   22   21 1
    21   23    3 1
    22   24   23 1
    23   25   24 ar
    24   26   25 1
    25   27   25 ar
    26   28   27 1
    27   29   27 ar
    28   30   29 1
    29   31   29 ar
    30   32   31 1
    31   33   24 ar
    32   34   33 1
    33   35   21 1
    34   36   35 1
    35   37   35 1
    36   38   35 1
    37   39   38 1
    38   40   38 1
    39   41    1 1
    40   42   41 1
    41   43   41 1
    42   44   20 1
    43   45    7 1
    44   46   45 1
    45   47   45 1
    46   48   45 1
    47   49   48 1
    48   50   48 1
    49   51   48 1
    50   52    1 2
    51   53   70 2
    52   54   73 1
    53   55   73 2
    54   56   52 1
    55   57   95 2
    56   58   95 1
    57   59   60 ar
    58   60   61 1
    59   62   60 ar
    60   63   62 1
    61   64   62 ar
    62   65   64 1
    63   66   64 ar
    64   67   66 1
    65   68   59 ar
    66   69   68 1
    67   70   59 1
    68   71   70 1
    69   72   71 2
    70   73   72 1
    71   74   54 1
    72   75   74 1
    73   76   75 ar
    74   77   76 1
    75   78   76 ar
    76   79   78 1
    77   80   78 ar
    78   81   80 1
    79   82   80 ar
    80   83   82 1
    81   84   75 ar
    82   85   84 1
    83   86   72 1
    84   87   86 1
    85   88   86 1
    86   89   86 1
    87   90   89 1
    88   91   89 1
    89   92   52 1
    90   93   92 1
    91   94   92 1
    92   95   71 1
    93   96   58 1
    94   97   96 1
    95   98   96 1
    96   99   96 1
    97  100   99 1
    98  101   99 1
    99  102   99 1
   100   15   17 ar
   101   31   33 ar
   102   38   41 1
   103   66   68 ar
   104   82   84 ar
   105   89   92 1
@<TRIPOS>SUBSTRUCTURE
     1 RES1 1

@<TRIPOS>CRYSIN
  10.2847   10.5128   11.8167  69.1620  65.0110  83.1420   2 1

