# MOL2 file generated by ConQuest
# Please check atom types

@<TRIPOS>MOLECULE
QOHBEV
    41    43     1
SMALL
NO_CHARGES
****
Generated from CSD

@<TRIPOS>ATOM
      1 O1         6.8985    0.4207    5.6857 O.2       1 RES1    0.0000
      2 O2        12.4051   -1.1071    8.3040 O.3       1 RES1    0.0000
      3 N1         7.5890    1.0181    4.7899 N.3       1 RES1    0.0000
      4 C1         8.7553    1.8805    5.1170 C.3       1 RES1    0.0000
      5 C2         9.3089    2.1272    3.6998 C.3       1 RES1    0.0000
      6 C3         8.1160    2.0539    2.7538 C.3       1 RES1    0.0000
      7 C4         7.1559    1.0260    3.3670 C.3       1 RES1    0.0000
      8 C5         8.2050    3.1597    5.7505 C.3       1 RES1    0.0000
      9 C6         9.7291    1.1182    6.0051 C.ar      1 RES1    0.0000
     10 C7        10.2708    1.6502    7.1663 C.ar      1 RES1    0.0000
     11 C8        11.1744    0.9389    7.9393 C.ar      1 RES1    0.0000
     12 C9        11.5511   -0.3389    7.5715 C.ar      1 RES1    0.0000
     13 C10       11.0403   -0.8820    6.3963 C.ar      1 RES1    0.0000
     14 C11       10.1415   -0.1603    5.6377 C.ar      1 RES1    0.0000
     15 C12        5.6937    1.4552    3.2766 C.3       1 RES1    0.0000
     16 C13        5.1546    1.3250    1.8566 C.3       1 RES1    0.0000
     17 C14        5.2835   -0.0981    1.3625 C.3       1 RES1    0.0000
     18 C15        6.7277   -0.5594    1.4192 C.3       1 RES1    0.0000
     19 C16        7.3222   -0.3985    2.8130 C.3       1 RES1    0.0000
     20 H1         9.9630    1.4133    3.4359 H         1 RES1    0.0000
     21 H2         9.7942    2.9902    3.6775 H         1 RES1    0.0000
     22 H3         8.3745    1.8190    1.8246 H         1 RES1    0.0000
     23 H4         7.6383    2.9575    2.7210 H         1 RES1    0.0000
     24 H5         7.7083    2.9248    6.5884 H         1 RES1    0.0000
     25 H6         8.9468    3.7688    5.9519 H         1 RES1    0.0000
     26 H7         7.5791    3.6052    5.1388 H         1 RES1    0.0000
     27 H8        10.0324    2.5453    7.4382 H         1 RES1    0.0000
     28 H9        11.5251    1.3152    8.7396 H         1 RES1    0.0000
     29 H10       11.2793   -1.7863    6.1552 H         1 RES1    0.0000
     30 H11        9.7698   -0.5365    4.8439 H         1 RES1    0.0000
     31 H12        5.6337    2.3882    3.5875 H         1 RES1    0.0000
     32 H13        5.1817    0.8441    3.9241 H         1 RES1    0.0000
     33 H14        5.6586    1.9433    1.2997 H         1 RES1    0.0000
     34 H15        4.2198    1.6292    1.8446 H         1 RES1    0.0000
     35 H16        4.9231   -0.1439    0.4649 H         1 RES1    0.0000
     36 H17        4.7226   -0.6936    1.9279 H         1 RES1    0.0000
     37 H18        7.2720   -0.0262    0.7698 H         1 RES1    0.0000
     38 H19        6.8811   -1.4853    1.1481 H         1 RES1    0.0000
     39 H20        8.3070   -0.6085    2.8160 H         1 RES1    0.0000
     40 H21        6.8907   -0.9946    3.4458 H         1 RES1    0.0000
     41 H22       12.4137   -0.8048    9.1312 H         1 RES1    0.0000
@<TRIPOS>BOND
     1    1    3 1
     2    2   12 1
     3    3    4 1
     4    4    5 1
     5    5    6 1
     6    6    7 1
     7    7    3 1
     8    8    4 1
     9    9    4 1
    10   10    9 ar
    11   11   10 ar
    12   12   11 ar
    13   13   12 ar
    14   14    9 ar
    15   15    7 1
    16   16   15 1
    17   17   16 1
    18   18   17 1
    19   19    7 1
    20   20    5 1
    21   21    5 1
    22   22    6 1
    23   23    6 1
    24   24    8 1
    25   25    8 1
    26   26    8 1
    27   27   10 1
    28   28   11 1
    29   29   13 1
    30   30   14 1
    31   31   15 1
    32   32   15 1
    33   33   16 1
    34   34   16 1
    35   35   17 1
    36   36   17 1
    37   37   18 1
    38   38   18 1
    39   39   19 1
    40   40   19 1
    41   41    2 1
    42   13   14 ar
    43   18   19 1
@<TRIPOS>SUBSTRUCTURE
     1 RES1 1

@<TRIPOS>CRYSIN
  25.3820    6.5431   17.7240  90.0000 109.9280  90.0000  15 1

