# MOL2 file generated by ConQuest
# Please check atom types

@<TRIPOS>MOLECULE
QOHBEV01
    41    43     1
SMALL
NO_CHARGES
****
Generated from CSD

@<TRIPOS>ATOM
      1 O1         2.7035    1.4789    4.4493 O.2       1 RES1    0.0000
      2 O2         1.4694    5.1316    9.9932 O.3       1 RES1    0.0000
      3 N1         2.4636    0.7347    5.4588 N.3       1 RES1    0.0000
      4 C1         3.2670    0.8344    6.7017 C.3       1 RES1    0.0000
      5 C2         2.9235   -0.5188    7.3428 C.3       1 RES1    0.0000
      6 C3         1.5028   -0.8154    6.8975 C.3       1 RES1    0.0000
      7 C4         1.4273   -0.3351    5.4440 C.3       1 RES1    0.0000
      8 C5         4.7422    0.9783    6.3479 C.3       1 RES1    0.0000
      9 C6         2.7811    2.0073    7.5607 C.ar      1 RES1    0.0000
     10 C7         3.4394    2.2997    8.7543 C.ar      1 RES1    0.0000
     11 C8         3.0208    3.3283    9.5828 C.ar      1 RES1    0.0000
     12 C9         1.9154    4.0895    9.2320 C.ar      1 RES1    0.0000
     13 C10        1.2491    3.8131    8.0513 C.ar      1 RES1    0.0000
     14 C11        1.6854    2.7912    7.2246 C.ar      1 RES1    0.0000
     15 C12        1.8405   -1.4181    4.4353 C.3       1 RES1    0.0000
     16 C13        0.7473   -2.4730    4.2571 C.3       1 RES1    0.0000
     17 C14       -0.5863   -1.8514    3.8853 C.3       1 RES1    0.0000
     18 C15       -0.9948   -0.8167    4.9203 C.3       1 RES1    0.0000
     19 C16        0.0702    0.2655    5.0630 C.3       1 RES1    0.0000
     20 H1         3.0147   -0.4652    8.3144 H         1 RES1    0.0000
     21 H2         3.5470   -1.1765    6.9876 H         1 RES1    0.0000
     22 H3         0.8562   -0.2812    7.4543 H         1 RES1    0.0000
     23 H4         1.2857   -1.7544    6.9781 H         1 RES1    0.0000
     24 H5         4.8410    1.8295    5.8806 H         1 RES1    0.0000
     25 H6         5.3108    0.9083    7.1931 H         1 RES1    0.0000
     26 H7         5.0370    0.2397    5.7405 H         1 RES1    0.0000
     27 H8         4.2114    1.7427    9.0248 H         1 RES1    0.0000
     28 H9         3.4734    3.5347   10.4026 H         1 RES1    0.0000
     29 H10        0.5018    4.3859    7.7840 H         1 RES1    0.0000
     30 H11        1.2217    2.6562    6.3823 H         1 RES1    0.0000
     31 H12        1.9028    5.1439   10.7912 H         1 RES1    0.0000
     32 H13        2.6964   -1.8360    4.7752 H         1 RES1    0.0000
     33 H14        1.9987   -0.9627    3.5870 H         1 RES1    0.0000
     34 H15        0.6491   -3.0319    5.0906 H         1 RES1    0.0000
     35 H16        1.0508   -3.1252    3.5711 H         1 RES1    0.0000
     36 H17       -1.2898   -2.5590    3.7861 H         1 RES1    0.0000
     37 H18       -0.4892   -1.3903    3.0040 H         1 RES1    0.0000
     38 H19       -1.1508   -1.2529    5.7914 H         1 RES1    0.0000
     39 H20       -1.8500   -0.3835    4.6844 H         1 RES1    0.0000
     40 H21       -0.1696    0.9497    5.7532 H         1 RES1    0.0000
     41 H22        0.1835    0.7619    4.2002 H         1 RES1    0.0000
@<TRIPOS>BOND
     1    1    3 1
     2    2   12 1
     3    3    4 1
     4    4    5 1
     5    5    6 1
     6    6    7 1
     7    7    3 1
     8    8    4 1
     9    9    4 1
    10   10    9 ar
    11   11   10 ar
    12   12   11 ar
    13   13   12 ar
    14   14    9 ar
    15   15    7 1
    16   16   15 1
    17   17   16 1
    18   18   17 1
    19   19    7 1
    20   20    5 1
    21   21    5 1
    22   22    6 1
    23   23    6 1
    24   24    8 1
    25   25    8 1
    26   26    8 1
    27   27   10 1
    28   28   11 1
    29   29   13 1
    30   30   14 1
    31   31    2 1
    32   32   15 1
    33   33   15 1
    34   34   16 1
    35   35   16 1
    36   36   17 1
    37   37   17 1
    38   38   18 1
    39   39   18 1
    40   40   19 1
    41   41   19 1
    42   13   14 ar
    43   18   19 1
@<TRIPOS>SUBSTRUCTURE
     1 RES1 1

@<TRIPOS>CRYSIN
  13.8990   12.9570   15.9280  90.0000  90.0000  90.0000  61 1

