# MOL2 file generated by ConQuest
# Please check atom types

@<TRIPOS>MOLECULE
QOHFOK
    43    44     1
SMALL
NO_CHARGES
****
Generated from CSD

@<TRIPOS>ATOM
      1 C1         2.6350   11.1106    8.1286 C.3       1 RES1    0.0000
      2 H1         2.9596   11.3264    9.0492 H         1 RES1    0.0000
      3 H2         2.3583   11.9052    7.7367 H         1 RES1    0.0000
      4 H3         3.2865   10.6743    7.6039 H         1 RES1    0.0000
      5 O1         1.4693   10.2613    8.2264 O.3       1 RES1    0.0000
      6 C2         1.6893    9.0493    8.7424 C.2       1 RES1    0.0000
      7 O2         2.7821    8.6530    9.0614 O.2       1 RES1    0.0000
      8 C3         0.4203    8.2661    8.9054 C.3       1 RES1    0.0000
      9 H4         0.1518    8.3185    9.8232 H         1 RES1    0.0000
     10 H5        -0.2277    8.6695    8.4229 H         1 RES1    0.0000
     11 C4         0.5989    6.8228    8.4862 C.3       1 RES1    0.0000
     12 H6         1.3309    6.3824    8.9763 H         1 RES1    0.0000
     13 C5        -0.6532    5.9735    8.6842 C.3       1 RES1    0.0000
     14 H7        -0.8581    5.9643    9.6026 H         1 RES1    0.0000
     15 H8        -1.3893    6.4292    8.1985 H         1 RES1    0.0000
     16 C6        -0.4255    4.5725    8.1366 C.3       1 RES1    0.0000
     17 H9         0.2101    4.1187    8.6528 H         1 RES1    0.0000
     18 H10       -1.2550    4.0734    8.1742 H         1 RES1    0.0000
     19 C7         0.0823    4.6337    6.7003 C.3       1 RES1    0.0000
     20 H11        0.3678    3.7786    6.3999 H         1 RES1    0.0000
     21 H12       -0.5662    4.9674    6.0708 H         1 RES1    0.0000
     22 C8         1.2720    5.5746    6.5805 C.3       1 RES1    0.0000
     23 H13        2.0373    5.1874    7.0711 H         1 RES1    0.0000
     24 O3         0.9542    6.8654    7.0988 O.3       1 RES1    0.0000
     25 C9         1.6619    5.7428    5.1521 C.3       1 RES1    0.0000
     26 H14        1.8855    4.8831    4.7920 H         1 RES1    0.0000
     27 H15        0.9807    6.2030    4.6517 H         1 RES1    0.0000
     28 O4         2.8411    6.5734    5.0902 O.3       1 RES1    0.0000
     29 C10        3.3302    6.8001    3.8697 C.2       1 RES1    0.0000
     30 O5         2.8738    6.3186    2.8600 O.2       1 RES1    0.0000
     31 C11        4.5094    7.7122    3.9039 C.ar      1 RES1    0.0000
     32 C12        5.2648    7.8472    2.7445 C.ar      1 RES1    0.0000
     33 H16        5.0143    7.3388    1.9762 H         1 RES1    0.0000
     34 C13        6.3814    8.6556    2.7344 C.ar      1 RES1    0.0000
     35 H17        6.9056    8.7335    1.9762 H         1 RES1    0.0000
     36 C14        6.7159    9.3215    3.8973 C.ar      1 RES1    0.0000
     37 C15        5.9792    9.2176    5.0616 C.ar      1 RES1    0.0000
     38 H18        6.2986    9.6961    5.8558 H         1 RES1    0.0000
     39 C16        4.8672    8.3985    5.0625 C.ar      1 RES1    0.0000
     40 H19        4.3664    8.2935    5.8614 H         1 RES1    0.0000
     41 N1         7.9120   10.1875    3.8934 N.pl3     1 RES1    0.0000
     42 O6         8.5588   10.2838    2.8623 O.2       1 RES1    0.0000
     43 O7         8.1998   10.7693    4.9298 O.2       1 RES1    0.0000
@<TRIPOS>BOND
     1    1    2 1
     2    3    1 1
     3    4    1 1
     4    5    1 1
     5    6    5 1
     6    7    6 2
     7    8    6 1
     8    9    8 1
     9   10    8 1
    10   11    8 1
    11   12   11 1
    12   13   11 1
    13   14   13 1
    14   15   13 1
    15   16   13 1
    16   17   16 1
    17   18   16 1
    18   19   16 1
    19   20   19 1
    20   21   19 1
    21   22   19 1
    22   23   22 1
    23   24   11 1
    24   25   22 1
    25   26   25 1
    26   27   25 1
    27   28   25 1
    28   29   28 1
    29   30   29 2
    30   31   29 1
    31   32   31 ar
    32   33   32 1
    33   34   32 ar
    34   35   34 1
    35   36   34 ar
    36   37   36 ar
    37   38   37 1
    38   39   31 ar
    39   40   39 1
    40   41   36 1
    41   42   41 2
    42   43   41 2
    43   22   24 1
    44   37   39 ar
@<TRIPOS>SUBSTRUCTURE
     1 RES1 1

@<TRIPOS>CRYSIN
   5.8374   15.6011   18.6967  90.0000  90.0000  90.0000  19 1

