# MOL2 file generated by ConQuest
# Please check atom types

@<TRIPOS>MOLECULE
QOHSEM
    37    38     1
SMALL
USER_CHARGES
****
Generated from CSD

@<TRIPOS>ATOM
      1 O1         4.9666    0.8880    1.7606 O.2       1 RES1   -1.0000
      2 N1         4.4020   -0.1767    2.2628 N.pl3     1 RES1    1.0000
      3 N2         2.4136   -0.1396    0.7417 N.3       1 RES1    0.0000
      4 C1         4.9567   -1.0669    3.0244 C.2       1 RES1    0.0000
      5 C2         3.9357   -2.0691    3.4593 C.3       1 RES1    0.0000
      6 H1         3.6386   -1.8884    4.3863 H         1 RES1    0.0000
      7 H2         4.3045   -2.9872    3.4157 H         1 RES1    0.0000
      8 C3         2.7606   -1.9022    2.4635 C.3       1 RES1    0.0000
      9 C4         2.9065   -0.4292    2.0366 C.3       1 RES1    0.0000
     10 H3         2.3985    0.1313    2.6906 H         1 RES1    0.0000
     11 C5         6.3991   -1.0419    3.4015 C.3       1 RES1    0.0000
     12 H4         6.8228   -0.2444    3.0199 H         1 RES1    0.0000
     13 H5         6.8413   -1.8452    3.0553 H         1 RES1    0.0000
     14 H6         6.4808   -1.0190    4.3777 H         1 RES1    0.0000
     15 C6         2.9589   -2.8557    1.2880 C.3       1 RES1    0.0000
     16 H7         2.8912   -3.7817    1.6033 H         1 RES1    0.0000
     17 H8         3.8435   -2.7079    0.8937 H         1 RES1    0.0000
     18 H9         2.2685   -2.6896    0.6128 H         1 RES1    0.0000
     19 C7         1.3967   -2.1442    3.0952 C.3       1 RES1    0.0000
     20 H10        0.6936   -1.9299    2.4468 H         1 RES1    0.0000
     21 H11        1.2968   -1.5742    3.8859 H         1 RES1    0.0000
     22 H12        1.3216   -3.0852    3.3595 H         1 RES1    0.0000
     23 C8         2.2465    1.2710    0.3602 C.3       1 RES1    0.0000
     24 H13        1.8635    1.3132   -0.5514 H         1 RES1    0.0000
     25 H14        3.1370    1.7039    0.3328 H         1 RES1    0.0000
     26 C9         1.3594    2.0431    1.2968 C.ar      1 RES1    0.0000
     27 C10       -0.0137    1.7945    1.3771 C.ar      1 RES1    0.0000
     28 H15       -0.3957    1.1021    0.8496 H         1 RES1    0.0000
     29 C11       -0.8233    2.5392    2.2120 C.ar      1 RES1    0.0000
     30 H16       -1.7550    2.3605    2.2576 H         1 RES1    0.0000
     31 C12       -0.2681    3.5492    2.9842 C.ar      1 RES1    0.0000
     32 H17       -0.8196    4.0643    3.5618 H         1 RES1    0.0000
     33 C13        1.0938    3.8063    2.9120 C.ar      1 RES1    0.0000
     34 H18        1.4741    4.4998    3.4373 H         1 RES1    0.0000
     35 C14        1.8979    3.0535    2.0761 C.ar      1 RES1    0.0000
     36 H19        2.8305    3.2315    2.0363 H         1 RES1    0.0000
     37 H20        2.8827   -0.5835    0.1046 H         1 RES1    0.0000
@<TRIPOS>BOND
     1    1    2 1
     2    2    4 2
     3    3    9 1
     4    4    5 1
     5    5    6 1
     6    7    5 1
     7    8    5 1
     8    9    2 1
     9   10    9 1
    10   11    4 1
    11   12   11 1
    12   13   11 1
    13   14   11 1
    14   15    8 1
    15   16   15 1
    16   17   15 1
    17   18   15 1
    18   19    8 1
    19   20   19 1
    20   21   19 1
    21   22   19 1
    22   23    3 1
    23   24   23 1
    24   25   23 1
    25   26   23 1
    26   27   26 ar
    27   28   27 1
    28   29   27 ar
    29   30   29 1
    30   31   29 ar
    31   32   31 1
    32   33   31 ar
    33   34   33 1
    34   35   26 ar
    35   36   35 1
    36   37    3 1
    37    8    9 1
    38   33   35 ar
@<TRIPOS>SUBSTRUCTURE
     1 RES1 1

@<TRIPOS>CRYSIN
   8.7650   16.6230    8.7650  90.0000  99.5700  90.0000  14 1

