# MOL2 file generated by ConQuest
# Please check atom types

@<TRIPOS>MOLECULE
QOHYAN
    45    45     1
SMALL
NO_CHARGES
****
Generated from CSD

@<TRIPOS>ATOM
      1 O1        -5.8956  -11.2421   -6.7474 O.2       1 RES1    0.0000
      2 O2        -6.5457  -10.0781   -8.3798 O.2       1 RES1    0.0000
      3 O3        -9.0749   -7.0375   -2.3471 O.2       1 RES1    0.0000
      4 O4        -9.4029   -4.5416   -0.5012 O.2       1 RES1    0.0000
      5 O5        -7.6055   -4.3662   -1.8360 O.3       1 RES1    0.0000
      6 N1        -6.4901  -10.2939   -7.1966 N.pl3     1 RES1    0.0000
      7 N2        -9.1436   -5.3871   -3.8564 N.am      1 RES1    0.0000
      8 C1        -7.1603   -9.3675   -6.2726 C.ar      1 RES1    0.0000
      9 C2        -7.7215   -8.2134   -6.7623 C.ar      1 RES1    0.0000
     10 C3        -8.3017   -7.3245   -5.8903 C.ar      1 RES1    0.0000
     11 C4        -8.3136   -7.5870   -4.5227 C.ar      1 RES1    0.0000
     12 C5        -7.7772   -8.7815   -4.0699 C.ar      1 RES1    0.0000
     13 C6        -7.2005   -9.6743   -4.9306 C.ar      1 RES1    0.0000
     14 C7        -8.8701   -6.6515   -3.4848 C.2       1 RES1    0.0000
     15 C8        -9.7049   -4.4086   -2.9124 C.3       1 RES1    0.0000
     16 C9       -11.1744   -4.7590   -2.6447 C.3       1 RES1    0.0000
     17 C10       -9.5142   -2.9932   -3.5203 C.3       1 RES1    0.0000
     18 C11      -10.3206   -2.7992   -4.7975 C.3       1 RES1    0.0000
     19 C12       -9.8600   -1.8885   -2.4973 C.3       1 RES1    0.0000
     20 C13       -9.5521   -0.4909   -2.9793 C.3       1 RES1    0.0000
     21 C14       -8.9044   -4.4739   -1.6053 C.2       1 RES1    0.0000
     22 C15       -6.7162   -4.2799   -0.6870 C.3       1 RES1    0.0000
     23 C16       -6.3338   -2.9615   -0.3631 C.3       1 RES1    0.0000
     24 H1        -9.0584   -5.0678   -4.7555 H         1 RES1    0.0000
     25 H2        -7.6848   -8.1164   -7.6743 H         1 RES1    0.0000
     26 H3        -8.5610   -6.5129   -6.2434 H         1 RES1    0.0000
     27 H4        -7.7203   -8.9676   -3.1751 H         1 RES1    0.0000
     28 H5        -6.8441  -10.2939   -4.5206 H         1 RES1    0.0000
     29 H6       -11.6042   -4.9490   -3.5097 H         1 RES1    0.0000
     30 H7       -11.5687   -3.9790   -2.0574 H         1 RES1    0.0000
     31 H8       -11.2726   -5.7012   -2.3279 H         1 RES1    0.0000
     32 H9        -8.5255   -2.8902   -3.8656 H         1 RES1    0.0000
     33 H10      -10.1241   -2.2765   -5.2111 H         1 RES1    0.0000
     34 H11      -11.3318   -3.0090   -4.4494 H         1 RES1    0.0000
     35 H12      -10.1359   -3.5237   -5.4887 H         1 RES1    0.0000
     36 H13       -9.4018   -1.9004   -1.7370 H         1 RES1    0.0000
     37 H14      -10.7516   -1.7618   -2.1784 H         1 RES1    0.0000
     38 H15       -8.6202   -0.4751   -3.1608 H         1 RES1    0.0000
     39 H16       -9.7096    0.0396   -2.3350 H         1 RES1    0.0000
     40 H17      -10.0885   -0.0594   -3.9155 H         1 RES1    0.0000
     41 H18       -5.9323   -4.6521   -0.7617 H         1 RES1    0.0000
     42 H19       -7.0099   -4.5927    0.1566 H         1 RES1    0.0000
     43 H20       -6.1928   -2.2567   -0.9611 H         1 RES1    0.0000
     44 H21       -5.8731   -2.6923    0.3987 H         1 RES1    0.0000
     45 H22       -6.9270   -2.5933   -0.2848 H         1 RES1    0.0000
@<TRIPOS>BOND
     1    1    6 2
     2    2    6 2
     3    3   14 2
     4    4   21 2
     5    5   21 1
     6    6    8 1
     7    7   14 1
     8    8    9 ar
     9    9   10 ar
    10   10   11 ar
    11   11   12 ar
    12   12   13 ar
    13   13    8 ar
    14   14   11 1
    15   15    7 1
    16   16   15 1
    17   17   15 1
    18   18   17 1
    19   19   17 1
    20   20   19 1
    21   21   15 1
    22   22    5 1
    23   23   22 1
    24   24    7 1
    25   25    9 1
    26   26   10 1
    27   27   12 1
    28   28   13 1
    29   29   16 1
    30   30   16 1
    31   31   16 1
    32   32   17 1
    33   33   18 1
    34   34   18 1
    35   35   18 1
    36   36   19 1
    37   37   19 1
    38   38   20 1
    39   39   20 1
    40   40   20 1
    41   41   22 1
    42   42   22 1
    43   43   23 1
    44   44   23 1
    45   45   23 1
@<TRIPOS>SUBSTRUCTURE
     1 RES1 1

@<TRIPOS>CRYSIN
  11.8410   19.7960    7.1190  90.0000  90.0000  90.0000  19 1

