# MOL2 file generated by ConQuest
# Please check atom types

@<TRIPOS>MOLECULE
QOJGED
   104   106     2
SMALL
NO_CHARGES
****
Generated from CSD

@<TRIPOS>ATOM
      1 C1         8.4559    7.8372    1.1382 C.2       1 RES1    0.0000
      2 C2         9.2785    7.6503    2.4108 C.3       1 RES1    0.0000
      3 H1         9.0788    6.7240    2.7290 H         1 RES1    0.0000
      4 C3         8.8815    8.6019    3.5982 C.3       1 RES1    0.0000
      5 H2         9.2728    9.5056    3.4222 H         1 RES1    0.0000
      6 C4         7.3734    8.7363    3.6430 C.2       1 RES1    0.0000
      7 C5         6.6041    7.6176    4.3252 C.3       1 RES1    0.0000
      8 H3         6.5760    6.8344    3.7206 H         1 RES1    0.0000
      9 H4         5.6717    7.9167    4.4750 H         1 RES1    0.0000
     10 C6         7.2150    7.1808    5.6843 C.3       1 RES1    0.0000
     11 H5         7.0916    7.9005    6.3523 H         1 RES1    0.0000
     12 H6         6.7515    6.3707    6.0145 H         1 RES1    0.0000
     13 C7         8.6892    6.8909    5.5148 C.3       1 RES1    0.0000
     14 H7         8.7891    6.1305    4.8741 H         1 RES1    0.0000
     15 C8         9.2762    6.4707    6.8509 C.3       1 RES1    0.0000
     16 H8        10.2300    6.2758    6.7426 H         1 RES1    0.0000
     17 H9         8.8138    5.6704    7.1745 H         1 RES1    0.0000
     18 H10        9.1640    7.1968    7.4992 H         1 RES1    0.0000
     19 C9         9.4333    8.0864    4.9572 C.3       1 RES1    0.0000
     20 H11       10.3857    7.8428    4.8424 H         1 RES1    0.0000
     21 H12        9.3907    8.8231    5.6176 H         1 RES1    0.0000
     22 C10       10.7788    7.6637    2.0905 C.ar      1 RES1    0.0000
     23 C11       11.6212    8.7530    2.3485 C.ar      1 RES1    0.0000
     24 H13       11.2520    9.5351    2.7410 H         1 RES1    0.0000
     25 C12       12.9618    8.7306    2.0533 C.ar      1 RES1    0.0000
     26 H14       13.5155    9.4712    2.2687 H         1 RES1    0.0000
     27 C13       13.4971    7.6104    1.4345 C.ar      1 RES1    0.0000
     28 H15       14.4184    7.5980    1.2038 H         1 RES1    0.0000
     29 C14       12.7065    6.5063    1.1469 C.ar      1 RES1    0.0000
     30 H16       13.0925    5.7349    0.7478 H         1 RES1    0.0000
     31 C15       11.3585    6.5316    1.4421 C.ar      1 RES1    0.0000
     32 C16       11.0075    4.3699    0.4986 C.3       1 RES1    0.0000
     33 H17       10.2972    3.7071    0.3706 H         1 RES1    0.0000
     34 H18       11.7307    3.9749    1.0299 H         1 RES1    0.0000
     35 H19       11.3573    4.6445   -0.3750 H         1 RES1    0.0000
     36 C17        7.7641    6.8995    0.4701 C.2       1 RES1    0.0000
     37 H20        7.3709    7.1487   -0.3575 H         1 RES1    0.0000
     38 C18        7.5681    5.5001    0.9348 C.2       1 RES1    0.0000
     39 C19        7.2723    3.3018    0.1629 C.3       1 RES1    0.0000
     40 H21        7.7180    3.0248    1.0026 H         1 RES1    0.0000
     41 H22        7.6372    2.7493   -0.5729 H         1 RES1    0.0000
     42 C20        5.7808    3.0576    0.2821 C.3       1 RES1    0.0000
     43 H23        5.6197    2.1101    0.4756 H         1 RES1    0.0000
     44 H24        5.3422    3.2976   -0.5609 H         1 RES1    0.0000
     45 H25        5.4168    3.6060    1.0081 H         1 RES1    0.0000
     46 N1         8.4866    9.1930    0.5193 N.pl3     1 RES1    0.0000
     47 O1         9.2412   10.0149    1.0048 O.2       1 RES1    0.0000
     48 O2         7.7495    9.3995   -0.4319 O.2       1 RES1    0.0000
     49 O3         6.8114    9.7115    3.1761 O.2       1 RES1    0.0000
     50 O4        10.4816    5.5068    1.1797 O.3       1 RES1    0.0000
     51 O5         7.4001    5.1597    2.0686 O.2       1 RES1    0.0000
     52 O6         7.5580    4.6779   -0.0929 O.3       1 RES1    0.0000
     53 C21        3.2196   10.6328    6.3665 C.2       2 RES2    0.0000
     54 C22        2.4222   11.6607    7.1428 C.3       2 RES2    0.0000
     55 H26        2.6132   12.5394    6.7054 H         2 RES2    0.0000
     56 C23        2.8677   11.8210    8.6264 C.3       2 RES2    0.0000
     57 H27        2.5202   11.0341    9.1359 H         2 RES2    0.0000
     58 C24        4.3974   11.8040    8.7238 C.2       2 RES2    0.0000
     59 C25        5.1153   13.0661    8.3673 C.3       2 RES2    0.0000
     60 H28        5.0702   13.2049    7.3888 H         2 RES2    0.0000
     61 H29        6.0694   12.9843    8.6210 H         2 RES2    0.0000
     62 C26        4.5023   14.2798    9.0813 C.3       2 RES2    0.0000
     63 H30        4.6805   14.2080   10.0522 H         2 RES2    0.0000
     64 H31        4.9390   15.1047    8.7522 H         2 RES2    0.0000
     65 C27        2.9993   14.3849    8.8539 C.3       2 RES2    0.0000
     66 H32        2.8302   14.5364    7.8808 H         2 RES2    0.0000
     67 C28        2.4341   15.5711    9.6443 C.3       2 RES2    0.0000
     68 H33        1.4727   15.6495    9.4716 H         2 RES2    0.0000
     69 H34        2.8848   16.3955    9.3655 H         2 RES2    0.0000
     70 H35        2.5829   15.4259   10.6021 H         2 RES2    0.0000
     71 C29        2.3005   13.0922    9.2814 C.3       2 RES2    0.0000
     72 H36        1.3390   13.1621    9.0572 H         2 RES2    0.0000
     73 H37        2.3739   13.0013   10.2643 H         2 RES2    0.0000
     74 C30        0.9114   11.4316    6.9788 C.ar      2 RES2    0.0000
     75 C31        0.1062   10.8004    7.9387 C.ar      2 RES2    0.0000
     76 H38        0.5072   10.5010    8.7467 H         2 RES2    0.0000
     77 C32       -1.2265   10.6022    7.7561 C.ar      2 RES2    0.0000
     78 H39       -1.7481   10.1868    8.4329 H         2 RES2    0.0000
     79 C33       -1.8265   11.0183    6.5491 C.ar      2 RES2    0.0000
     80 H40       -2.7513   10.8602    6.4037 H         2 RES2    0.0000
     81 C34       -1.0815   11.6521    5.5815 C.ar      2 RES2    0.0000
     82 H41       -1.4972   11.9646    4.7866 H         2 RES2    0.0000
     83 C35        0.2974   11.8356    5.7750 C.ar      2 RES2    0.0000
     84 C36        0.5178   12.8292    3.6244 C.3       2 RES2    0.0000
     85 H42        1.1897   13.2706    3.0635 H         2 RES2    0.0000
     86 H43       -0.2262   13.4461    3.7884 H         2 RES2    0.0000
     87 H44        0.1840   12.0299    3.1663 H         2 RES2    0.0000
     88 C37        3.8242   10.7410    5.1999 C.2       2 RES2    0.0000
     89 H45        4.2777    9.9665    4.8872 H         2 RES2    0.0000
     90 C38        3.8802   11.9441    4.3099 C.2       2 RES2    0.0000
     91 C39        4.4030   14.2637    4.1995 C.3       2 RES2    0.0000
     92 H46        5.3413   14.5776    4.1689 H         2 RES2    0.0000
     93 H47        4.1038   14.0946    3.2713 H         2 RES2    0.0000
     94 C40        3.5722   15.2818    4.7965 C.3       2 RES2    0.0000
     95 H48        3.6375   16.1076    4.2717 H         2 RES2    0.0000
     96 H49        3.8731   15.4541    5.7138 H         2 RES2    0.0000
     97 H50        2.6403   14.9775    4.8107 H         2 RES2    0.0000
     98 N2         3.2767    9.2618    6.9340 N.pl3     2 RES2    0.0000
     99 O7         2.4564    8.9831    7.8305 O.2       2 RES2    0.0000
    100 O8         4.1414    8.4930    6.5600 O.2       2 RES2    0.0000
    101 O9         4.9833   10.8120    9.0999 O.2       2 RES2    0.0000
    102 O10        1.1071   12.4551    4.8665 O.3       2 RES2    0.0000
    103 O11        3.6248   11.8928    3.1433 O.2       2 RES2    0.0000
    104 O12        4.3253   13.0283    4.9725 O.3       2 RES2    0.0000
@<TRIPOS>BOND
     1    1    2 1
     2    2    3 1
     3    4    2 1
     4    5    4 1
     5    6    4 1
     6    7    6 1
     7    8    7 1
     8    9    7 1
     9   10    7 1
    10   11   10 1
    11   12   10 1
    12   13   10 1
    13   14   13 1
    14   15   13 1
    15   16   15 1
    16   17   15 1
    17   18   15 1
    18   19    4 1
    19   20   19 1
    20   21   19 1
    21   22    2 1
    22   23   22 ar
    23   24   23 1
    24   25   23 ar
    25   26   25 1
    26   27   25 ar
    27   28   27 1
    28   29   27 ar
    29   30   29 1
    30   31   22 ar
    31   32   33 1
    32   34   32 1
    33   35   32 1
    34   36    1 2
    35   37   36 1
    36   38   36 1
    37   39   40 1
    38   41   39 1
    39   42   39 1
    40   43   42 1
    41   44   42 1
    42   45   42 1
    43   46    1 1
    44   47   46 2
    45   48   46 2
    46   49    6 2
    47   50   31 1
    48   51   38 2
    49   52   38 1
    50   53   54 1
    51   54   55 1
    52   56   54 1
    53   57   56 1
    54   58   56 1
    55   59   58 1
    56   60   59 1
    57   61   59 1
    58   62   59 1
    59   63   62 1
    60   64   62 1
    61   65   62 1
    62   66   65 1
    63   67   65 1
    64   68   67 1
    65   69   67 1
    66   70   67 1
    67   71   56 1
    68   72   71 1
    69   73   71 1
    70   74   54 1
    71   75   74 ar
    72   76   75 1
    73   77   75 ar
    74   78   77 1
    75   79   77 ar
    76   80   79 1
    77   81   79 ar
    78   82   81 1
    79   83   74 ar
    80   84   85 1
    81   86   84 1
    82   87   84 1
    83   88   53 2
    84   89   88 1
    85   90   88 1
    86   91   92 1
    87   93   91 1
    88   94   91 1
    89   95   94 1
    90   96   94 1
    91   97   94 1
    92   98   53 1
    93   99   98 2
    94  100   98 2
    95  101   58 2
    96  102   83 1
    97  103   90 2
    98  104   90 1
    99   13   19 1
   100   29   31 ar
   101   32   50 1
   102   39   52 1
   103   65   71 1
   104   81   83 ar
   105   84  102 1
   106   91  104 1
@<TRIPOS>SUBSTRUCTURE
     1 RES1 1
     2 RES2 53

@<TRIPOS>CRYSIN
   9.2607    9.6010   11.8070  67.8210  89.7780  89.4400   1 1

