# MOL2 file generated by ConQuest
# Please check atom types

@<TRIPOS>MOLECULE
QOJWAO
    55    58     1
SMALL
NO_CHARGES
****
Generated from CSD

@<TRIPOS>ATOM
      1 O1         0.8917    6.8354   -0.9009 O.3       1 RES1    0.0000
      2 N1         6.8143    0.8913    2.6912 N.pl3     1 RES1    0.0000
      3 C1         1.3801    8.1465   -0.5196 C.3       1 RES1    0.0000
      4 H1         1.6028    8.6681   -1.3428 H         1 RES1    0.0000
      5 O2        -0.9897    5.6543   -0.6475 O.2       1 RES1    0.0000
      6 C2         0.1961    8.7840    0.1691 C.2       1 RES1    0.0000
      7 O3         3.2172   12.1029    1.2988 O.3       1 RES1    0.0000
      8 C3         0.1304   10.2235    0.5811 C.3       1 RES1    0.0000
      9 H2        -0.1652   10.7592   -0.1973 H         1 RES1    0.0000
     10 H3        -0.5603   10.3175    1.2844 H         1 RES1    0.0000
     11 O4         4.1156    8.4245    2.8331 O.3       1 RES1    0.0000
     12 H4         4.5293    8.1396    3.5064 H         1 RES1    0.0000
     13 C4         1.4111   10.8036    1.0958 C.2       1 RES1    0.0000
     14 O5         3.2755    6.0457    1.6406 O.3       1 RES1    0.0000
     15 C5         2.1449   10.3834    2.2605 C.2       1 RES1    0.0000
     16 O6         1.7342    4.8365    2.7487 O.2       1 RES1    0.0000
     17 C6         1.8252    9.2163    3.1562 C.3       1 RES1    0.0000
     18 H5         0.8913    8.9234    2.9518 H         1 RES1    0.0000
     19 O7         7.8913    1.0642    2.1452 O.2       1 RES1    0.0000
     20 C7         2.7570    8.0145    2.9026 C.3       1 RES1    0.0000
     21 H6         2.6686    7.3941    3.6815 H         1 RES1    0.0000
     22 O8         6.5413   -0.0955    3.3578 O.2       1 RES1    0.0000
     23 C8         2.4074    7.2245    1.6425 C.3       1 RES1    0.0000
     24 H7         1.4528    6.9319    1.6907 H         1 RES1    0.0000
     25 C9         2.6512    7.9407    0.3081 C.3       1 RES1    0.0000
     26 H8         3.0609    8.8239    0.4892 H         1 RES1    0.0000
     27 H9         3.2973    7.4119   -0.2242 H         1 RES1    0.0000
     28 C10       -0.7789    7.8866    0.2519 C.2       1 RES1    0.0000
     29 H10       -1.6098    8.0145    0.6947 H         1 RES1    0.0000
     30 C11       -0.3719    6.6756   -0.4433 C.2       1 RES1    0.0000
     31 C12        2.1003   11.8295    0.5554 C.2       1 RES1    0.0000
     32 H11        1.8456   12.2962   -0.2312 H         1 RES1    0.0000
     33 C13        3.2124   11.2057    2.3295 C.2       1 RES1    0.0000
     34 H12        3.8765   11.1651    3.0078 H         1 RES1    0.0000
     35 C14        1.8778    9.6079    4.6466 C.3       1 RES1    0.0000
     36 H13        1.6983    8.8009    5.1936 H         1 RES1    0.0000
     37 H14        2.7929    9.9192    4.8620 H         1 RES1    0.0000
     38 C15        0.8837   10.7005    5.0427 C.3       1 RES1    0.0000
     39 H15        1.0133   10.9175    5.9993 H         1 RES1    0.0000
     40 H16        1.0822   11.5175    4.5199 H         1 RES1    0.0000
     41 C16       -0.5663   10.3177    4.8199 C.3       1 RES1    0.0000
     42 H17       -1.1458   11.0605    5.0932 H         1 RES1    0.0000
     43 H18       -0.7796    9.5234    5.3524 H         1 RES1    0.0000
     44 H19       -0.7101   10.1234    3.8707 H         1 RES1    0.0000
     45 C17        2.8398    4.9609    2.2876 C.2       1 RES1    0.0000
     46 C18        3.8990    3.9097    2.3760 C.ar      1 RES1    0.0000
     47 C19        3.5424    2.6525    2.8536 C.ar      1 RES1    0.0000
     48 H20        2.6458    2.4817    3.1164 H         1 RES1    0.0000
     49 C20        4.4942    1.6486    2.9471 C.ar      1 RES1    0.0000
     50 H21        4.2632    0.7838    3.2659 H         1 RES1    0.0000
     51 C21        5.7856    1.9412    2.5638 C.ar      1 RES1    0.0000
     52 C22        6.1686    3.1795    2.0854 C.ar      1 RES1    0.0000
     53 H22        7.0664    3.3472    1.8250 H         1 RES1    0.0000
     54 C23        5.2069    4.1689    1.9970 C.ar      1 RES1    0.0000
     55 H23        5.4436    5.0298    1.6744 H         1 RES1    0.0000
@<TRIPOS>BOND
     1    1    3 1
     2    2   19 2
     3    3    4 1
     4    5   30 2
     5    6    3 1
     6    7   31 1
     7    8    6 1
     8    9    8 1
     9   10    8 1
    10   11   12 1
    11   13    8 1
    12   14   23 1
    13   15   13 1
    14   16   45 2
    15   17   15 1
    16   18   17 1
    17   20   11 1
    18   21   20 1
    19   22    2 2
    20   23   20 1
    21   24   23 1
    22   25    3 1
    23   26   25 1
    24   27   25 1
    25   28    6 2
    26   29   28 1
    27   30    1 1
    28   31   13 2
    29   32   31 1
    30   33    7 1
    31   34   33 1
    32   35   17 1
    33   36   35 1
    34   37   35 1
    35   38   35 1
    36   39   38 1
    37   40   38 1
    38   41   38 1
    39   42   41 1
    40   43   41 1
    41   44   41 1
    42   45   14 1
    43   46   45 1
    44   47   46 ar
    45   48   47 1
    46   49   47 ar
    47   50   49 1
    48   51    2 1
    49   52   51 ar
    50   53   52 1
    51   54   46 ar
    52   55   54 1
    53   15   33 2
    54   17   20 1
    55   23   25 1
    56   28   30 1
    57   49   51 ar
    58   52   54 ar
@<TRIPOS>SUBSTRUCTURE
     1 RES1 1

@<TRIPOS>CRYSIN
   7.2351   25.5320   12.0626  90.0000 104.5390  90.0000  14 1

