# MOL2 file generated by ConQuest
# Please check atom types

@<TRIPOS>MOLECULE
QOLXIY
    68    68     2
SMALL
USER_CHARGES
****
Generated from CSD

@<TRIPOS>ATOM
      1 N1         2.5890   -1.0745    2.9750 N.pl3     1 RES1    1.0000
      2 O1         3.8147   -1.0237    2.8029 O.2       1 RES1   -1.0000
      3 C1         2.2987    0.4109    5.9661 C.ar      1 RES1    0.0000
      4 N2         1.9233   -0.5442    3.9334 N.2       1 RES1    0.0000
      5 O2         2.8792    0.0593    4.7842 O.3       1 RES1    0.0000
      6 C2         3.0192    1.2061    6.8547 C.ar      1 RES1    0.0000
      7 N3         4.3728    1.6975    6.5413 N.pl3     1 RES1    0.0000
      8 O3         4.8896    1.4133    5.5198 O.2       1 RES1    0.0000
      9 O4         4.9041    2.4121    7.3280 O.2       1 RES1    0.0000
     10 N4         1.8203   -1.8593    2.1174 N.3       1 RES1    0.0000
     11 C3         0.3620   -1.7225    2.3193 C.3       1 RES1    0.0000
     12 H1         0.0872   -0.8265    2.0697 H         1 RES1    0.0000
     13 H2         0.1566   -1.8473    3.2580 H         1 RES1    0.0000
     14 C4        -0.4068   -2.7212    1.5075 C.3       1 RES1    0.0000
     15 H3        -1.3466   -2.6039    1.6631 H         1 RES1    0.0000
     16 H4        -0.1484   -3.6091    1.7629 H         1 RES1    0.0000
     17 H5        -0.2177   -2.5891    0.5747 H         1 RES1    0.0000
     18 C5         2.3394   -1.8556    0.7371 C.3       1 RES1    0.0000
     19 H6         1.9930   -2.6357    0.2752 H         1 RES1    0.0000
     20 H7         3.3048   -1.9399    0.7694 H         1 RES1    0.0000
     21 C6         1.9961   -0.6447   -0.0565 C.3       1 RES1    0.0000
     22 H8         2.3704   -0.7231   -0.9375 H         1 RES1    0.0000
     23 H9         2.3553    0.1333    0.3750 H         1 RES1    0.0000
     24 H10        1.0416   -0.5641   -0.1193 H         1 RES1    0.0000
     25 C7         2.4839    1.5877    8.0595 C.ar      1 RES1    0.0000
     26 H11        2.9703    2.1229    8.6441 H         1 RES1    0.0000
     27 C8         1.2217    1.1681    8.3863 C.ar      1 RES1    0.0000
     28 N5         0.6601    1.5742    9.6719 N.pl3     1 RES1    0.0000
     29 O5        -0.4594    1.1763    9.9522 O.2       1 RES1    0.0000
     30 O6         1.3323    2.2791   10.4022 O.2       1 RES1    0.0000
     31 C9         0.4902    0.3770    7.5481 C.ar      1 RES1    0.0000
     32 H12       -0.3623    0.0985    7.7943 H         1 RES1    0.0000
     33 C10        1.0169   -0.0044    6.3404 C.ar      1 RES1    0.0000
     34 H13        0.5191   -0.5426    5.7684 H         1 RES1    0.0000
     35 N6         0.5043    5.5905    9.3797 N.pl3     2 RES2    1.0000
     36 O7         1.4218    6.3780    9.6400 O.2       2 RES2   -1.0000
     37 C11        1.5313    4.4404    6.4108 C.ar      2 RES2    0.0000
     38 N7         0.4384    4.7787    8.3921 N.2       2 RES2    0.0000
     39 O8         1.6034    5.0522    7.6188 O.3       2 RES2    0.0000
     40 C12        2.6489    4.5417    5.5644 C.ar      2 RES2    0.0000
     41 N8         3.8313    5.3179    5.9459 N.pl3     2 RES2    0.0000
     42 O9         3.7429    6.1472    6.8116 O.2       2 RES2    0.0000
     43 O10        4.8542    5.1216    5.3189 O.2       2 RES2    0.0000
     44 N9        -0.6318    5.6250   10.1721 N.3       2 RES2    0.0000
     45 C13       -1.6527    4.6251    9.8487 C.3       2 RES2    0.0000
     46 H14       -1.3740    3.7633   10.1952 H         2 RES2    0.0000
     47 H15       -1.7263    4.5475    8.8852 H         2 RES2    0.0000
     48 C14       -2.9798    4.9670   10.4095 C.3       2 RES2    0.0000
     49 H16       -3.6131    4.2857   10.1733 H         2 RES2    0.0000
     50 H17       -3.2696    5.8108   10.0564 H         2 RES2    0.0000
     51 H18       -2.9165    5.0258   11.3664 H         2 RES2    0.0000
     52 C15       -0.3527    5.9879   11.5612 C.3       2 RES2    0.0000
     53 H19       -1.1945    6.1667   12.0092 H         2 RES2    0.0000
     54 H20        0.1629    6.8093   11.5685 H         2 RES2    0.0000
     55 C16        0.3873    4.9601   12.3411 C.3       2 RES2    0.0000
     56 H21        0.5264    5.2773   13.2365 H         2 RES2    0.0000
     57 H22        1.2359    4.7926   11.9240 H         2 RES2    0.0000
     58 H23       -0.1240    4.1476   12.3647 H         2 RES2    0.0000
     59 C17        2.6679    3.9230    4.3415 C.ar      2 RES2    0.0000
     60 H24        3.4193    3.9763    3.7961 H         2 RES2    0.0000
     61 C18        1.5672    3.2298    3.9378 C.ar      2 RES2    0.0000
     62 N10        1.5722    2.6040    2.6105 N.pl3     2 RES2    0.0000
     63 O11        0.5552    2.0632    2.2217 O.2       2 RES2    0.0000
     64 O12        2.5926    2.6708    1.9450 O.2       2 RES2    0.0000
     65 C19        0.4479    3.1243    4.7360 C.ar      2 RES2    0.0000
     66 H25       -0.2964    2.6533    4.4365 H         2 RES2    0.0000
     67 C20        0.4387    3.7143    5.9652 C.ar      2 RES2    0.0000
     68 H26       -0.3099    3.6282    6.5111 H         2 RES2    0.0000
@<TRIPOS>BOND
     1    1    2 1
     2    3    5 1
     3    4    1 2
     4    5    4 1
     5    6    3 ar
     6    7    6 1
     7    8    7 2
     8    9    7 2
     9   10    1 1
    10   11   10 1
    11   12   11 1
    12   13   11 1
    13   14   11 1
    14   15   14 1
    15   16   14 1
    16   17   14 1
    17   18   10 1
    18   19   18 1
    19   20   18 1
    20   21   18 1
    21   22   21 1
    22   23   21 1
    23   24   21 1
    24   25    6 ar
    25   26   25 1
    26   27   25 ar
    27   28   27 1
    28   29   28 2
    29   30   28 2
    30   31   27 ar
    31   32   31 1
    32   33    3 ar
    33   34   33 1
    34   35   36 1
    35   37   39 1
    36   38   35 2
    37   39   38 1
    38   40   37 ar
    39   41   40 1
    40   42   41 2
    41   43   41 2
    42   44   35 1
    43   45   44 1
    44   46   45 1
    45   47   45 1
    46   48   45 1
    47   49   48 1
    48   50   48 1
    49   51   48 1
    50   52   44 1
    51   53   52 1
    52   54   52 1
    53   55   52 1
    54   56   55 1
    55   57   55 1
    56   58   55 1
    57   59   40 ar
    58   60   59 1
    59   61   59 ar
    60   62   61 1
    61   63   62 2
    62   64   62 2
    63   65   61 ar
    64   66   65 1
    65   67   37 ar
    66   68   67 1
    67   31   33 ar
    68   65   67 ar
@<TRIPOS>SUBSTRUCTURE
     1 RES1 1
     2 RES2 35

@<TRIPOS>CRYSIN
   7.3410    7.7480   24.4340  92.5200  93.5400  99.9800   2 1

