# MOL2 file generated by ConQuest
# Please check atom types

@<TRIPOS>MOLECULE
QOLXOE
    43    44     1
SMALL
USER_CHARGES
****
Generated from CSD

@<TRIPOS>ATOM
      1 C1         5.3778    2.1782    9.6081 C.ar      1 RES1    0.0000
      2 C2         6.1848    1.7723    8.5255 C.ar      1 RES1    0.0000
      3 C3         7.5521    1.8673    8.6366 C.ar      1 RES1    0.0000
      4 H1         8.0929    1.5609    7.9436 H         1 RES1    0.0000
      5 C4         8.1248    2.4058    9.7547 C.ar      1 RES1    0.0000
      6 C5         7.3639    2.9796   10.8010 C.ar      1 RES1    0.0000
      7 C6         5.9625    2.8035   10.6984 C.ar      1 RES1    0.0000
      8 H2         5.4176    3.1166   11.3838 H         1 RES1    0.0000
      9 O1         4.0348    1.9447    9.5149 O.3       1 RES1    0.0000
     10 N1         3.3219    2.5848   10.5612 N.2       1 RES1    0.0000
     11 N2         2.2242    1.9203   10.6748 N.pl3     1 RES1    1.0000
     12 O2         1.8744    0.9421   10.0010 O.2       1 RES1   -1.0000
     13 N3         1.3973    2.3299   11.7142 N.3       1 RES1    0.0000
     14 C7         1.7475    3.6131   12.3042 C.3       1 RES1    0.0000
     15 H3         2.6871    3.6300   12.4982 H         1 RES1    0.0000
     16 H4         1.2499    3.7390   13.1153 H         1 RES1    0.0000
     17 H5         1.5354    4.3173   11.6871 H         1 RES1    0.0000
     18 C8        -0.0237    2.1877   11.3767 C.3       1 RES1    0.0000
     19 H6        -0.1768    1.3200   10.9941 H         1 RES1    0.0000
     20 H7        -0.2713    2.8639   10.7419 H         1 RES1    0.0000
     21 H8        -0.5529    2.2850   12.1702 H         1 RES1    0.0000
     22 N4         5.6524    1.2294    7.2937 N.pl3     1 RES1    0.0000
     23 O3         6.4308    1.1314    6.3431 O.2       1 RES1    0.0000
     24 O4         4.4799    0.9163    7.2168 O.2       1 RES1    0.0000
     25 N5         9.5821    2.2165    9.8532 N.pl3     1 RES1    0.0000
     26 O5        10.2440    2.3358    8.8360 O.2       1 RES1    0.0000
     27 O6        10.0448    1.8784   10.9315 O.2       1 RES1    0.0000
     28 N6         7.8992    3.6786   11.8516 N.3       1 RES1    0.0000
     29 C9         9.1279    4.3917   11.7237 C.ar      1 RES1    0.0000
     30 C10        9.3553    5.1983   10.6291 C.ar      1 RES1    0.0000
     31 H9         8.6999    5.2896    9.9767 H         1 RES1    0.0000
     32 C11       10.5613    5.8745   10.5039 C.ar      1 RES1    0.0000
     33 H10       10.7237    6.4011    9.7545 H         1 RES1    0.0000
     34 C12       11.5201    5.7654   11.4913 C.ar      1 RES1    0.0000
     35 H11       12.3298    6.2140   11.4049 H         1 RES1    0.0000
     36 C13       11.2746    4.9927   12.6022 C.ar      1 RES1    0.0000
     37 H12       11.9137    4.9368   13.2758 H         1 RES1    0.0000
     38 C14       10.0786    4.2937   12.7221 C.ar      1 RES1    0.0000
     39 H13        9.9191    3.7641   13.4697 H         1 RES1    0.0000
     40 C15        7.0465    4.0742   12.9954 C.3       1 RES1    0.0000
     41 H14        6.2466    3.5438   12.9972 H         1 RES1    0.0000
     42 H15        6.8161    5.0031   12.9161 H         1 RES1    0.0000
     43 H16        7.5248    3.9328   13.8153 H         1 RES1    0.0000
@<TRIPOS>BOND
     1    1    2 ar
     2    2    3 ar
     3    3    4 1
     4    5    3 ar
     5    6    5 ar
     6    7    1 ar
     7    8    7 1
     8    9    1 1
     9   10    9 1
    10   11   10 2
    11   12   11 1
    12   13   11 1
    13   14   13 1
    14   15   14 1
    15   16   14 1
    16   17   14 1
    17   18   13 1
    18   19   18 1
    19   20   18 1
    20   21   18 1
    21   22    2 1
    22   23   22 2
    23   24   22 2
    24   25    5 1
    25   26   25 2
    26   27   25 2
    27   28    6 1
    28   29   28 1
    29   30   29 ar
    30   31   30 1
    31   32   30 ar
    32   33   32 1
    33   34   32 ar
    34   35   34 1
    35   36   34 ar
    36   37   36 1
    37   38   29 ar
    38   39   38 1
    39   40   28 1
    40   41   40 1
    41   42   40 1
    42   43   40 1
    43    6    7 ar
    44   36   38 ar
@<TRIPOS>SUBSTRUCTURE
     1 RES1 1

@<TRIPOS>CRYSIN
  13.1520    7.3661   17.8210  90.0000  98.3330  90.0000 231 1

