# MOL2 file generated by ConQuest
# Please check atom types

@<TRIPOS>MOLECULE
QOMQUG
    37    38     1
SMALL
NO_CHARGES
****
Generated from CSD

@<TRIPOS>ATOM
      1 O1         0.9269    9.2261    4.5035 O.3       1 RES1    0.0000
      2 O2        -0.9892   11.4105    5.8562 O.2       1 RES1    0.0000
      3 O3         3.9849   10.0335   -0.9844 O.2       1 RES1    0.0000
      4 O4         2.5965    8.5270   -1.5432 O.2       1 RES1    0.0000
      5 N1         3.0502    9.3025   -0.7151 N.pl3     1 RES1    0.0000
      6 C1         1.4733    9.3388    3.2409 C.ar      1 RES1    0.0000
      7 C2         2.5430   10.1361    2.9272 C.ar      1 RES1    0.0000
      8 H1         2.9274   10.6821    3.5745 H         1 RES1    0.0000
      9 C3         3.0534   10.1212    1.6187 C.ar      1 RES1    0.0000
     10 H2         3.7883   10.6499    1.4073 H         1 RES1    0.0000
     11 C4         2.4838    9.3393    0.6510 C.ar      1 RES1    0.0000
     12 C5         1.4008    8.5618    0.9411 C.ar      1 RES1    0.0000
     13 H3         1.0037    8.0406    0.2805 H         1 RES1    0.0000
     14 C6         0.8966    8.5597    2.2432 C.ar      1 RES1    0.0000
     15 H4         0.1619    8.0274    2.4476 H         1 RES1    0.0000
     16 C7         1.3412   10.1332    5.5473 C.3       1 RES1    0.0000
     17 H5         1.2334   11.0510    5.2524 H         1 RES1    0.0000
     18 H6         2.2754    9.9877    5.7627 H         1 RES1    0.0000
     19 C8         0.4806    9.8743    6.7652 C.2       1 RES1    0.0000
     20 C9        -0.7455   10.6966    6.8149 C.2       1 RES1    0.0000
     21 C10       -1.6556   10.6386    8.0193 C.3       1 RES1    0.0000
     22 H7        -2.3662   11.2753    7.9138 H         1 RES1    0.0000
     23 H8        -1.1534   10.8476    8.8108 H         1 RES1    0.0000
     24 H9        -2.0260    9.7568    8.0991 H         1 RES1    0.0000
     25 C11        0.7238    8.9605    7.7258 C.2       1 RES1    0.0000
     26 H10        0.0890    8.9309    8.4055 H         1 RES1    0.0000
     27 C12        1.8144    8.0171    7.8709 C.ar      1 RES1    0.0000
     28 C13        2.6436    7.5793    6.8146 C.ar      1 RES1    0.0000
     29 H11        2.4990    7.8864    5.9492 H         1 RES1    0.0000
     30 C14        3.6559    6.7048    7.0690 C.ar      1 RES1    0.0000
     31 H12        4.2126    6.4267    6.3780 H         1 RES1    0.0000
     32 C15        3.8613    6.2276    8.3555 C.ar      1 RES1    0.0000
     33 H13        4.5660    5.6424    8.5180 H         1 RES1    0.0000
     34 C16        3.0375    6.6067    9.3999 C.ar      1 RES1    0.0000
     35 H14        3.1731    6.2668   10.2552 H         1 RES1    0.0000
     36 C17        2.0224    7.4862    9.1600 C.ar      1 RES1    0.0000
     37 H15        1.4600    7.7389    9.8561 H         1 RES1    0.0000
@<TRIPOS>BOND
     1    1    6 1
     2    2   20 2
     3    3    5 2
     4    4    5 2
     5    5   11 1
     6    6    7 ar
     7    7    8 1
     8    9    7 ar
     9   10    9 1
    10   11    9 ar
    11   12   11 ar
    12   13   12 1
    13   14    6 ar
    14   15   14 1
    15   16    1 1
    16   17   16 1
    17   18   16 1
    18   19   16 1
    19   20   19 1
    20   21   20 1
    21   22   21 1
    22   23   21 1
    23   24   21 1
    24   25   19 2
    25   26   25 1
    26   27   25 1
    27   28   27 ar
    28   29   28 1
    29   30   28 ar
    30   31   30 1
    31   32   30 ar
    32   33   32 1
    33   34   32 ar
    34   35   34 1
    35   36   27 ar
    36   37   36 1
    37   12   14 ar
    38   34   36 ar
@<TRIPOS>SUBSTRUCTURE
     1 RES1 1

@<TRIPOS>CRYSIN
  12.7690    9.4607   13.0022  90.0000 108.1450  90.0000  14 1

