# MOL2 file generated by ConQuest
# Please check atom types

@<TRIPOS>MOLECULE
QONMUB
    33    34     1
SMALL
USER_CHARGES
****
Generated from CSD

@<TRIPOS>ATOM
      1 N1         0.9469    2.7775   13.1316 N.pl3     1 RES1    1.0000
      2 O1         1.8716    3.6356   13.1276 O.2       1 RES1   -1.0000
      3 C1         1.0378    1.6299   14.0194 C.ar      1 RES1    0.0000
      4 C2         0.0932    0.6379   13.9930 C.ar      1 RES1    0.0000
      5 C3         0.2346   -0.4620   14.8178 C.ar      1 RES1    0.0000
      6 C4         1.3098   -0.5505   15.6507 C.ar      1 RES1    0.0000
      7 C5         2.2328    0.4472   15.6893 C.ar      1 RES1    0.0000
      8 C6         2.1096    1.5550   14.8665 C.ar      1 RES1    0.0000
      9 N2        -0.1034    2.8217   12.4023 N.2       1 RES1    0.0000
     10 O2        -0.0557    3.9534   11.6324 O.3       1 RES1    0.0000
     11 C7        -1.2218    3.9114   10.7568 C.3       1 RES1    0.0000
     12 C8        -1.2479    5.1951    9.9848 C.ar      1 RES1    0.0000
     13 C9        -2.2772    6.0873   10.1412 C.ar      1 RES1    0.0000
     14 C10       -2.3402    7.2677    9.4201 C.ar      1 RES1    0.0000
     15 C11       -1.3399    7.5617    8.5181 C.ar      1 RES1    0.0000
     16 C12       -0.2942    6.6775    8.3556 C.ar      1 RES1    0.0000
     17 C13       -0.2545    5.5061    9.0625 C.ar      1 RES1    0.0000
     18 O3        -1.3013    8.6922    7.7542 O.3       1 RES1    0.0000
     19 C14       -2.4067    9.5923    7.8538 C.3       1 RES1    0.0000
     20 H1        -0.5953    0.7332   13.4932 H         1 RES1    0.0000
     21 H2        -0.4090   -1.1793   14.7507 H         1 RES1    0.0000
     22 H3         1.4007   -1.2917   16.1707 H         1 RES1    0.0000
     23 H4         2.9718    0.3519   16.2967 H         1 RES1    0.0000
     24 H5         2.7134    2.2815   14.8645 H         1 RES1    0.0000
     25 H6        -2.0272    3.8864   11.3276 H         1 RES1    0.0000
     26 H7        -1.0911    3.0533   10.1433 H         1 RES1    0.0000
     27 H8        -2.8872    5.8943   10.7304 H         1 RES1    0.0000
     28 H9        -3.0701    7.8239    9.5237 H         1 RES1    0.0000
     29 H10        0.3578    6.9522    7.6872 H         1 RES1    0.0000
     30 H11        0.4981    4.9023    8.9447 H         1 RES1    0.0000
     31 H12       -3.3109    9.1235    7.5592 H         1 RES1    0.0000
     32 H13       -2.1778   10.2813    7.2911 H         1 RES1    0.0000
     33 H14       -2.4919    9.8647    8.7497 H         1 RES1    0.0000
@<TRIPOS>BOND
     1    1    2 1
     2    3    1 1
     3    4    3 ar
     4    5    4 ar
     5    6    5 ar
     6    7    6 ar
     7    8    3 ar
     8    9    1 2
     9   10    9 1
    10   11   10 1
    11   12   11 1
    12   13   12 ar
    13   14   13 ar
    14   15   14 ar
    15   16   15 ar
    16   17   12 ar
    17   18   15 1
    18   19   18 1
    19   20    4 1
    20   21    5 1
    21   22    6 1
    22   23    7 1
    23   24    8 1
    24   25   11 1
    25   26   11 1
    26   27   13 1
    27   28   14 1
    28   29   16 1
    29   30   17 1
    30   31   19 1
    31   32   19 1
    32   33   19 1
    33    7    8 ar
    34   16   17 ar
@<TRIPOS>SUBSTRUCTURE
     1 RES1 1

@<TRIPOS>CRYSIN
   5.6801   11.3505   20.3150  90.0000  90.0000  90.0000  19 1

