# MOL2 file generated by ConQuest
# Please check atom types

@<TRIPOS>MOLECULE
QONMUC
    30    31     1
SMALL
NO_CHARGES
****
Generated from CSD

@<TRIPOS>ATOM
      1 C1        13.7677    2.7976   16.0207 C.ar      1 RES1    0.0000
      2 C2        13.4114    2.2843   17.2622 C.ar      1 RES1    0.0000
      3 H1        12.5265    2.0632   17.4481 H         1 RES1    0.0000
      4 C3        14.4044    2.1010   18.2192 C.ar      1 RES1    0.0000
      5 H2        14.2014    1.7508   19.0568 H         1 RES1    0.0000
      6 C4        15.6997    2.4603   17.8933 C.ar      1 RES1    0.0000
      7 C5        16.0502    2.9626   16.6266 C.ar      1 RES1    0.0000
      8 H3        16.9351    3.1632   16.4292 H         1 RES1    0.0000
      9 C6        15.0615    3.1496   15.6811 C.ar      1 RES1    0.0000
     10 H4        15.2601    3.5020   14.8434 H         1 RES1    0.0000
     11 N1        12.6798    3.0506   15.0936 N.pl3     1 RES1    0.0000
     12 N2        16.7613    2.2476   18.8824 N.pl3     1 RES1    0.0000
     13 O1        11.7101    3.7656   15.4034 O.2       1 RES1    0.0000
     14 O2        16.4897    1.5986   19.8830 O.2       1 RES1    0.0000
     15 O3        17.8595    2.7170   18.6575 O.2       1 RES1    0.0000
     16 C7        11.6795    2.7023   12.9341 C.ar      1 RES1    0.0000
     17 C8        12.0226    3.2193   11.6948 C.ar      1 RES1    0.0000
     18 H5        12.9091    3.4257   11.4974 H         1 RES1    0.0000
     19 C9        11.0282    3.4283   10.7539 C.ar      1 RES1    0.0000
     20 H6        11.2297    3.7737    9.9140 H         1 RES1    0.0000
     21 C10        9.7227    3.1056   11.0981 C.ar      1 RES1    0.0000
     22 C11        9.3824    2.5410   12.3420 C.ar      1 RES1    0.0000
     23 H7         8.5106    2.2762   12.5256 H         1 RES1    0.0000
     24 C12       10.3871    2.3943   13.2737 C.ar      1 RES1    0.0000
     25 H8        10.1914    2.0863   14.1297 H         1 RES1    0.0000
     26 N3        12.7703    2.5006   13.8658 N.pl3     1 RES1    0.0000
     27 N4         8.6625    3.3219   10.1113 N.pl3     1 RES1    0.0000
     28 O4        13.7473    1.7911   13.5353 O.2       1 RES1    0.0000
     29 O5         7.5498    2.8636   10.3385 O.2       1 RES1    0.0000
     30 O6         8.9633    3.9599    9.1176 O.2       1 RES1    0.0000
@<TRIPOS>BOND
     1    1    2 ar
     2    2    3 1
     3    4    2 ar
     4    5    4 1
     5    6    4 ar
     6    7    6 ar
     7    8    7 1
     8    9    1 ar
     9   10    9 1
    10   11    1 1
    11   12    6 1
    12   13   11 1
    13   14   12 2
    14   15   12 2
    15   16   17 ar
    16   17   18 1
    17   19   17 ar
    18   20   19 1
    19   21   19 ar
    20   22   21 ar
    21   23   22 1
    22   24   16 ar
    23   25   24 1
    24   26   11 2
    25   27   21 1
    26   28   26 1
    27   29   27 2
    28   30   27 2
    29    7    9 ar
    30   16   26 1
    31   22   24 ar
@<TRIPOS>SUBSTRUCTURE
     1 RES1 1

@<TRIPOS>CRYSIN
  14.6030    3.6666   22.9490  90.0000  90.0000  90.0000  29 1

