# MOL2 file generated by ConQuest
# Please check atom types

@<TRIPOS>MOLECULE
QONRUI
    39    36     3
SMALL
NO_CHARGES
****
Generated from CSD

@<TRIPOS>ATOM
      1 O1         1.8730    4.2608    5.6017 O.2       1 RES1    0.0000
      2 O2         2.2171    5.9372    6.9460 O.2       1 RES1    0.0000
      3 O3         4.9329    7.1808    5.5926 O.3       1 RES1    0.0000
      4 N1         3.9176    5.0448    5.8342 N.3       1 RES1    0.0000
      5 N2         2.6029    5.0954    6.1346 N.pl3     1 RES1    0.0000
      6 C1         4.3319    4.1349    4.7785 C.3       1 RES1    0.0000
      7 C2         4.8073    6.0397    6.3960 C.3       1 RES1    0.0000
      8 H1         4.4320    6.2677    7.2756 H         1 RES1    0.0000
      9 H2         5.6516    5.6292    6.4705 H         1 RES1    0.0000
     10 H3         3.9711    4.3835    3.9465 H         1 RES1    0.0000
     11 H4         4.0984    3.2114    4.9948 H         1 RES1    0.0000
     12 H5         5.2593    4.1817    4.7068 H         1 RES1    0.0000
     13 H6         5.5772    7.0341    5.0916 H         1 RES1    0.0000
     14 O4        -0.5742    1.5613    3.4378 O.2       2 RES2    0.0000
     15 O5        -0.6407    0.1094    1.8116 O.2       2 RES2    0.0000
     16 O6         2.0853   -1.0269    1.4927 O.3       2 RES2    0.0000
     17 N3         1.2904    1.0150    2.3991 N.3       2 RES2    0.0000
     18 N4        -0.0348    0.8876    2.5555 N.pl3     2 RES2    0.0000
     19 C3         2.0020    1.8137    3.3711 C.3       2 RES2    0.0000
     20 C4         1.9089    0.3433    1.2784 C.3       2 RES2    0.0000
     21 H7         1.3459    0.5220    0.5123 H         2 RES2    0.0000
     22 H8         2.7919    0.7218    1.1900 H         2 RES2    0.0000
     23 H9         2.9146    1.7212    3.1697 H         2 RES2    0.0000
     24 H10        1.7190    2.7147    3.3362 H         2 RES2    0.0000
     25 H11        1.4735   -1.4204    1.1451 H         2 RES2    0.0000
     26 H12        1.9022    1.4204    4.1862 H         2 RES2    0.0000
     27 O7        -1.4055    8.2892    1.1646 O.2       3 RES3    0.0000
     28 O8        -1.4830    6.5372    2.4536 O.2       3 RES3    0.0000
     29 O9         1.0600    6.8950    3.9982 O.3       3 RES3    0.0000
     30 N5         0.4780    7.2713    1.7189 N.3       3 RES3    0.0000
     31 N6        -0.8715    7.3780    1.7958 N.pl3     3 RES3    0.0000
     32 C5         1.1814    8.3843    1.0991 C.3       3 RES3    0.0000
     33 C6         1.1186    6.4078    2.6871 C.3       3 RES3    0.0000
     34 H13        2.1178    8.1945    1.1475 H         3 RES3    0.0000
     35 H14        1.9893    6.3472    2.3634 H         3 RES3    0.0000
     36 H15        0.7022    5.5613    2.6881 H         3 RES3    0.0000
     37 H16        0.9082    8.4662    0.1983 H         3 RES3    0.0000
     38 H17        1.0187    9.1725    1.5772 H         3 RES3    0.0000
     39 H18        1.6069    7.4998    4.0740 H         3 RES3    0.0000
@<TRIPOS>BOND
     1    1    5 2
     2    2    5 2
     3    3    7 1
     4    4    5 1
     5    6    4 1
     6    7    4 1
     7    8    7 1
     8    9    7 1
     9   10    6 1
    10   11    6 1
    11   12    6 1
    12   13    3 1
    13   14   18 2
    14   15   18 2
    15   16   20 1
    16   17   18 1
    17   19   17 1
    18   20   17 1
    19   21   20 1
    20   22   20 1
    21   23   19 1
    22   24   19 1
    23   25   16 1
    24   26   19 1
    25   27   31 2
    26   28   31 2
    27   29   33 1
    28   30   31 1
    29   32   30 1
    30   33   30 1
    31   34   32 1
    32   35   33 1
    33   36   33 1
    34   37   32 1
    35   38   32 1
    36   39   29 1
@<TRIPOS>SUBSTRUCTURE
     1 RES1 1
     2 RES2 14
     3 RES3 27

@<TRIPOS>CRYSIN
   6.0253   19.4045   11.9558  90.0000  99.1010  90.0000  14 1

