# MOL2 file generated by ConQuest
# Please check atom types

@<TRIPOS>MOLECULE
QONSAP
    54    52     2
SMALL
NO_CHARGES
****
Generated from CSD

@<TRIPOS>ATOM
      1 O1         5.8463    7.0045    1.1507 O.3       1 RES1    0.0000
      2 O2         7.4789    2.5406    0.9631 O.2       1 RES1    0.0000
      3 O3         7.1206    2.0736    3.0618 O.2       1 RES1    0.0000
      4 O4         2.9234    6.8813    1.6497 O.2       1 RES1    0.0000
      5 O5         7.5038    7.0011    2.6952 O.2       1 RES1    0.0000
      6 N1         7.4865    5.5118    0.9978 N.am      1 RES1    0.0000
      7 N2         4.4807    7.6525    3.0130 N.3       1 RES1    0.0000
      8 O6         2.7713    6.4695    3.7787 O.2       1 RES1    0.0000
      9 N3         7.6056    2.7663    2.1789 N.pl3     1 RES1    0.0000
     10 C1         8.6364    4.8011    1.4837 C.3       1 RES1    0.0000
     11 H1         9.2924    5.4574    1.8308 H         1 RES1    0.0000
     12 H2         9.0609    4.3261    0.7267 H         1 RES1    0.0000
     13 C2         5.2055    8.0830    1.8568 C.3       1 RES1    0.0000
     14 H3         5.8937    8.7376    2.1366 H         1 RES1    0.0000
     15 H4         4.5833    8.5450    1.2418 H         1 RES1    0.0000
     16 N4         8.3407    3.8426    2.5293 N.3       1 RES1    0.0000
     17 N5         3.3378    6.9599    2.8069 N.pl3     1 RES1    0.0000
     18 C3         8.3846    4.1810    3.9468 C.3       1 RES1    0.0000
     19 H5         8.1547    3.3905    4.4793 H         1 RES1    0.0000
     20 H6         7.7422    4.8984    4.1323 H         1 RES1    0.0000
     21 H7         9.2873    4.4821    4.1832 H         1 RES1    0.0000
     22 C4         5.0057    7.6921    4.3882 C.3       1 RES1    0.0000
     23 H8         4.3305    7.3432    5.0064 H         1 RES1    0.0000
     24 H9         5.2213    8.6173    4.6279 H         1 RES1    0.0000
     25 H10        5.8153    7.1426    4.4446 H         1 RES1    0.0000
     26 C5         6.9844    6.5250    1.7071 C.2       1 RES1    0.0000
     27 H11        7.1858    5.2203    0.5640 H         1 RES1    0.0000
     28 O7         4.5216    1.5473    1.1366 O.3       2 RES2    0.0000
     29 O8         4.1684   -0.3808    2.2885 O.2       2 RES2    0.0000
     30 N6         5.9949   -0.1207    0.9674 N.am      2 RES2    0.0000
     31 O9         8.9185   -0.1241    1.6507 O.2       2 RES2    0.0000
     32 O10        4.8129    3.9964    4.3383 O.2       2 RES2    0.0000
     33 O11        4.7673    4.2900    2.1789 O.2       2 RES2    0.0000
     34 O12        8.9269   -0.3324    3.8318 O.2       2 RES2    0.0000
     35 N7         3.5999    2.6309    3.0770 N.3       2 RES2    0.0000
     36 N8         7.3114   -1.2681    2.6605 N.3       2 RES2    0.0000
     37 N9         8.4405   -0.5359    2.7191 N.pl3     2 RES2    0.0000
     38 N10        4.4370    3.6973    3.2028 N.pl3     2 RES2    0.0000
     39 C6         3.3672    2.1317    1.7462 C.3       2 RES2    0.0000
     40 H12        2.6466    1.4536    1.7809 H         2 RES2    0.0000
     41 H13        3.0501    2.8781    1.1768 H         2 RES2    0.0000
     42 C7         6.6297   -1.3409    1.3666 C.3       2 RES2    0.0000
     43 H14        7.2892   -1.5970    0.6735 H         2 RES2    0.0000
     44 H15        5.9464   -2.0555    1.4078 H         2 RES2    0.0000
     45 C8         4.8433    0.2825    1.5412 C.2       2 RES2    0.0000
     46 C9         6.6290   -1.5494    3.9219 C.3       2 RES2    0.0000
     47 H16        7.2602   -1.4451    4.6648 H         2 RES2    0.0000
     48 H17        6.2863   -2.4667    3.9099 H         2 RES2    0.0000
     49 H18        5.8835   -0.9234    4.0368 H         2 RES2    0.0000
     50 C10        3.3317    1.8584    4.2841 C.3       2 RES2    0.0000
     51 H19        3.5559    2.3955    5.0726 H         2 RES2    0.0000
     52 H20        3.8761    1.0430    4.2787 H         2 RES2    0.0000
     53 H21        2.3819    1.6161    4.3134 H         2 RES2    0.0000
     54 H22        6.3957    0.4209    0.7484 H         2 RES2    0.0000
@<TRIPOS>BOND
     1    1   13 1
     2    2    9 2
     3    3    9 2
     4    4   17 2
     5    5   26 2
     6    6   10 1
     7    7   13 1
     8    8   17 2
     9    9   16 1
    10   10   11 1
    11   12   10 1
    12   13   14 1
    13   15   13 1
    14   16   10 1
    15   17    7 1
    16   18   16 1
    17   19   18 1
    18   20   18 1
    19   21   18 1
    20   22    7 1
    21   23   22 1
    22   24   22 1
    23   25   22 1
    24   26    1 1
    25   27    6 1
    26   28   39 1
    27   29   45 2
    28   30   42 1
    29   31   37 2
    30   32   38 2
    31   33   38 2
    32   34   37 2
    33   35   38 1
    34   36   37 1
    35   39   35 1
    36   40   39 1
    37   41   39 1
    38   42   36 1
    39   43   42 1
    40   44   42 1
    41   45   28 1
    42   46   36 1
    43   47   46 1
    44   48   46 1
    45   49   46 1
    46   50   35 1
    47   51   50 1
    48   52   50 1
    49   53   50 1
    50   54   30 1
    51    6   26 1
    52   30   45 1
@<TRIPOS>SUBSTRUCTURE
     1 RES1 1
     2 RES2 28

@<TRIPOS>CRYSIN
   8.2688   11.4521   11.6600  68.8960  80.7850  75.3870   2 1

