# MOL2 file generated by ConQuest
# Please check atom types

@<TRIPOS>MOLECULE
QONWIB
    54    58     1
SMALL
NO_CHARGES
****
Generated from CSD

@<TRIPOS>ATOM
      1 C1         1.2103    6.6160    2.0585 C.2       1 RES1    0.0000
      2 C2         2.1303    6.6941    3.2442 C.2       1 RES1    0.0000
      3 C3         3.2393    7.3400    2.8257 C.2       1 RES1    0.0000
      4 C4         3.0530    7.7788    1.3899 C.2       1 RES1    0.0000
      5 C5         1.8716    7.3400    0.9247 C.2       1 RES1    0.0000
      6 C6         1.2251    7.5707   -0.3833 C.ar      1 RES1    0.0000
      7 C7         0.5368    6.5454   -1.0226 C.ar      1 RES1    0.0000
      8 H1         0.4766    5.7112   -0.6145 H         1 RES1    0.0000
      9 C8        -0.0630    6.7431   -2.2575 C.ar      1 RES1    0.0000
     10 H2        -0.5057    6.0492   -2.6901 H         1 RES1    0.0000
     11 C9         0.0144    7.9915   -2.8231 C.ar      1 RES1    0.0000
     12 C10        0.6828    9.0394   -2.2215 C.ar      1 RES1    0.0000
     13 H3         0.7217    9.8746   -2.6290 H         1 RES1    0.0000
     14 C11        1.2944    8.8210   -0.9997 C.ar      1 RES1    0.0000
     15 H4         1.7545    9.5140   -0.5848 H         1 RES1    0.0000
     16 C12        4.0468    8.6205    0.6981 C.ar      1 RES1    0.0000
     17 C13        4.5278    8.2768   -0.5661 C.ar      1 RES1    0.0000
     18 H5         4.2559    7.4831   -0.9671 H         1 RES1    0.0000
     19 C14        5.4067    9.1148   -1.2197 C.ar      1 RES1    0.0000
     20 H6         5.7322    8.8747   -2.0564 H         1 RES1    0.0000
     21 C15        5.8090   10.3020   -0.6494 C.ar      1 RES1    0.0000
     22 H7         6.3951   10.8650   -1.1015 H         1 RES1    0.0000
     23 C16        5.3344   10.6494    0.6017 C.ar      1 RES1    0.0000
     24 H8         5.6000   11.4525    0.9898 H         1 RES1    0.0000
     25 C17        4.4712    9.8115    1.2754 C.ar      1 RES1    0.0000
     26 H9         4.1712   10.0450    2.1245 H         1 RES1    0.0000
     27 C18        4.4743    7.6112    3.5730 C.ar      1 RES1    0.0000
     28 C19        5.7158    7.2101    3.0863 C.ar      1 RES1    0.0000
     29 H10        5.7765    6.8128    2.2484 H         1 RES1    0.0000
     30 C20        6.8550    7.3974    3.8373 C.ar      1 RES1    0.0000
     31 H11        7.6759    7.1028    3.5175 H         1 RES1    0.0000
     32 C21        6.7745    8.0292    5.0738 C.ar      1 RES1    0.0000
     33 H12        7.5410    8.1488    5.5861 H         1 RES1    0.0000
     34 C22        5.5563    8.4774    5.5394 C.ar      1 RES1    0.0000
     35 H13        5.5063    8.9265    6.3525 H         1 RES1    0.0000
     36 C23        4.4136    8.2618    4.8022 C.ar      1 RES1    0.0000
     37 H14        3.5916    8.5527    5.1288 H         1 RES1    0.0000
     38 C24        1.8034    6.1547    4.5817 C.ar      1 RES1    0.0000
     39 C25        0.4952    6.2384    5.0700 C.ar      1 RES1    0.0000
     40 H15       -0.1736    6.5802    4.5213 H         1 RES1    0.0000
     41 C26        0.1721    5.8251    6.3535 C.ar      1 RES1    0.0000
     42 H16       -0.6945    5.9042    6.6789 H         1 RES1    0.0000
     43 C27        1.1797    5.2903    7.1360 C.ar      1 RES1    0.0000
     44 C28        2.4720    5.1529    6.6823 C.ar      1 RES1    0.0000
     45 H17        3.1265    4.7716    7.2218 H         1 RES1    0.0000
     46 C29        2.7762    5.5945    5.4074 C.ar      1 RES1    0.0000
     47 H18        3.6489    5.5154    5.0939 H         1 RES1    0.0000
     48 N1        -0.6491    8.2335   -4.1187 N.pl3     1 RES1    0.0000
     49 N2         0.8602    4.8883    8.5190 N.pl3     1 RES1    0.0000
     50 O1         0.1226    6.0699    2.0302 O.2       1 RES1    0.0000
     51 O2        -1.1214    7.2609   -4.7233 O.2       1 RES1    0.0000
     52 O3        -0.6688    9.3793   -4.5529 O.2       1 RES1    0.0000
     53 O4        -0.2516    5.1501    8.9698 O.2       1 RES1    0.0000
     54 O5         1.7311    4.3131    9.1655 O.2       1 RES1    0.0000
@<TRIPOS>BOND
     1    1    2 1
     2    2    3 2
     3    3    4 1
     4    4    5 2
     5    5    1 1
     6    6    5 1
     7    7    6 ar
     8    8    7 1
     9    9    7 ar
    10   10    9 1
    11   11    9 ar
    12   12   11 ar
    13   13   12 1
    14   14    6 ar
    15   15   14 1
    16   16    4 1
    17   17   16 ar
    18   18   17 1
    19   19   17 ar
    20   20   19 1
    21   21   19 ar
    22   22   21 1
    23   23   21 ar
    24   24   23 1
    25   25   16 ar
    26   26   25 1
    27   27    3 1
    28   28   27 ar
    29   29   28 1
    30   30   28 ar
    31   31   30 1
    32   32   30 ar
    33   33   32 1
    34   34   32 ar
    35   35   34 1
    36   36   27 ar
    37   37   36 1
    38   38    2 1
    39   39   38 ar
    40   40   39 1
    41   41   39 ar
    42   42   41 1
    43   43   41 ar
    44   44   43 ar
    45   45   44 1
    46   46   38 ar
    47   47   46 1
    48   48   11 1
    49   49   43 1
    50   50    1 2
    51   51   48 2
    52   52   48 2
    53   53   49 2
    54   54   49 2
    55   12   14 ar
    56   23   25 ar
    57   34   36 ar
    58   44   46 ar
@<TRIPOS>SUBSTRUCTURE
     1 RES1 1

@<TRIPOS>CRYSIN
  28.4910    9.4151   18.4113  90.0000 108.5310  90.0000  15 1

