# MOL2 file generated by ConQuest
# Please check atom types

@<TRIPOS>MOLECULE
QONWOH
    56    60     1
SMALL
NO_CHARGES
****
Generated from CSD

@<TRIPOS>ATOM
      1 O1         3.1028    2.5491   -0.0814 O.2       1 RES1    0.0000
      2 O2         8.2497    6.2362    6.0663 O.3       1 RES1    0.0000
      3 O3        11.5071   -0.4686    2.1611 O.2       1 RES1    0.0000
      4 N1        10.2968   -0.2604    2.1714 N.pl3     1 RES1    0.0000
      5 C1         6.4818    2.5515    0.7262 C.2       1 RES1    0.0000
      6 O4         9.4826   -0.9816    2.7463 O.2       1 RES1    0.0000
      7 C2         4.5331    3.5032    1.6288 C.2       1 RES1    0.0000
      8 C3         7.6948    4.9098    2.6677 C.ar      1 RES1    0.0000
      9 H1         8.0234    4.9941    1.8022 H         1 RES1    0.0000
     10 C4         3.5386    4.3364    2.3337 C.ar      1 RES1    0.0000
     11 C5         7.9375    2.2466    0.7145 C.ar      1 RES1    0.0000
     12 C6         4.2179    2.7034    0.3981 C.2       1 RES1    0.0000
     13 C7         9.7860    0.9126    1.4337 C.ar      1 RES1    0.0000
     14 C8         8.4238    1.1674    1.4475 C.ar      1 RES1    0.0000
     15 H2         7.8456    0.6283    1.9364 H         1 RES1    0.0000
     16 C9         5.8705    3.4080    1.8118 C.2       1 RES1    0.0000
     17 C10        6.6368    4.0433    2.9067 C.ar      1 RES1    0.0000
     18 C11        8.2798    5.6577    3.6913 C.ar      1 RES1    0.0000
     19 H3         8.9810    6.2409    3.5085 H         1 RES1    0.0000
     20 C12        6.1981    3.8943    4.2356 C.ar      1 RES1    0.0000
     21 H4         5.5077    3.3013    4.4245 H         1 RES1    0.0000
     22 C13        8.8443    3.0445    0.0081 C.ar      1 RES1    0.0000
     23 H5         8.5320    3.7708   -0.4814 H         1 RES1    0.0000
     24 C14       10.2046    2.7671    0.0275 C.ar      1 RES1    0.0000
     25 H6        10.7936    3.3131   -0.4410 H         1 RES1    0.0000
     26 C15        5.6101    1.3034   -1.3427 C.ar      1 RES1    0.0000
     27 C16        7.7993    5.5185    4.9886 C.ar      1 RES1    0.0000
     28 C17        1.6250    6.0272    3.4851 C.ar      1 RES1    0.0000
     29 H7         0.9843    6.5938    3.8494 H         1 RES1    0.0000
     30 C18        6.6385    0.3754   -1.5483 C.ar      1 RES1    0.0000
     31 H8         7.2634    0.2294   -0.8755 H         1 RES1    0.0000
     32 C19        2.2219    3.9090    2.5248 C.ar      1 RES1    0.0000
     33 H9         1.9765    3.0504    2.2666 H         1 RES1    0.0000
     34 C20        4.7983    0.7724   -3.5703 C.ar      1 RES1    0.0000
     35 H10        4.1755    0.9037   -4.2477 H         1 RES1    0.0000
     36 C21        4.6742    1.4742   -2.3823 C.ar      1 RES1    0.0000
     37 H11        3.9656    2.0653   -2.2708 H         1 RES1    0.0000
     38 C22        5.5180    2.1202   -0.1282 C.2       1 RES1    0.0000
     39 C23        2.9360    6.4625    3.3328 C.ar      1 RES1    0.0000
     40 H12        3.1793    7.3162    3.6086 H         1 RES1    0.0000
     41 C24        3.8825    5.6185    2.7659 C.ar      1 RES1    0.0000
     42 H13        4.7598    5.9126    2.6735 H         1 RES1    0.0000
     43 C25       10.6881    1.6908    0.7360 C.ar      1 RES1    0.0000
     44 H14       11.5974    1.4928    0.7435 H         1 RES1    0.0000
     45 C26        6.7427   -0.3274   -2.7352 C.ar      1 RES1    0.0000
     46 H15        7.4290   -0.9449   -2.8460 H         1 RES1    0.0000
     47 C27        6.7736    4.6118    5.2585 C.ar      1 RES1    0.0000
     48 H16        6.4776    4.4913    6.1330 H         1 RES1    0.0000
     49 C28        1.2805    4.7481    3.0931 C.ar      1 RES1    0.0000
     50 H17        0.4083    4.4481    3.2124 H         1 RES1    0.0000
     51 C29        5.8340   -0.1196   -3.7599 C.ar      1 RES1    0.0000
     52 H18        5.9208   -0.5754   -4.5651 H         1 RES1    0.0000
     53 C30        9.3711    7.1025    5.8595 C.3       1 RES1    0.0000
     54 H19       10.1311    6.5820    5.5855 H         1 RES1    0.0000
     55 H20        9.5754    7.5622    6.6762 H         1 RES1    0.0000
     56 H21        9.1590    7.7426    5.1765 H         1 RES1    0.0000
@<TRIPOS>BOND
     1    1   12 2
     2    2   27 1
     3    3    4 2
     4    4    6 2
     5    5   11 1
     6    7   10 1
     7    8    9 1
     8   10   32 ar
     9   11   14 ar
    10   12    7 1
    11   13    4 1
    12   14   13 ar
    13   15   14 1
    14   16    5 1
    15   17    8 ar
    16   18    8 ar
    17   19   18 1
    18   20   17 ar
    19   21   20 1
    20   22   11 ar
    21   23   22 1
    22   24   22 ar
    23   25   24 1
    24   26   30 ar
    25   27   18 ar
    26   28   29 1
    27   30   31 1
    28   32   33 1
    29   34   35 1
    30   36   26 ar
    31   37   36 1
    32   38    5 2
    33   39   28 ar
    34   40   39 1
    35   41   10 ar
    36   42   41 1
    37   43   13 ar
    38   44   43 1
    39   45   30 ar
    40   46   45 1
    41   47   20 ar
    42   48   47 1
    43   49   28 ar
    44   50   49 1
    45   51   34 ar
    46   52   51 1
    47   53    2 1
    48   54   53 1
    49   55   53 1
    50   56   53 1
    51    7   16 2
    52   12   38 1
    53   16   17 1
    54   24   43 ar
    55   26   38 1
    56   27   47 ar
    57   32   49 ar
    58   34   36 ar
    59   39   41 ar
    60   45   51 ar
@<TRIPOS>SUBSTRUCTURE
     1 RES1 1

@<TRIPOS>CRYSIN
  10.6891    9.8020   21.9169  90.0000 103.5990  90.0000  14 1

