# MOL2 file generated by ConQuest
# Please check atom types

@<TRIPOS>MOLECULE
QOPWID
    47    50     1
SMALL
NO_CHARGES
****
Generated from CSD

@<TRIPOS>ATOM
      1 C1        12.1802    5.8061    6.9952 C.ar      1 RES1    0.0000
      2 H1        13.1078    5.8544    7.0438 H         1 RES1    0.0000
      3 C2        11.5319    6.0700    5.8036 C.ar      1 RES1    0.0000
      4 C3        10.1654    6.0067    5.6680 C.ar      1 RES1    0.0000
      5 H2         9.7515    6.1743    4.8526 H         1 RES1    0.0000
      6 C4         9.4258    5.6811    6.7984 C.ar      1 RES1    0.0000
      7 H3         8.4982    5.6400    6.7411 H         1 RES1    0.0000
      8 C5        10.0443    5.4154    8.0091 C.ar      1 RES1    0.0000
      9 H4         9.5288    5.2014    8.7534 H         1 RES1    0.0000
     10 C6        11.4371    5.4671    8.1223 C.ar      1 RES1    0.0000
     11 C7        12.1294    5.1661    9.4267 C.3       1 RES1    0.0000
     12 H5        13.0927    5.1029    9.2591 H         1 RES1    0.0000
     13 C8        11.8940    6.2268   10.5039 C.3       1 RES1    0.0000
     14 H6        10.9551    6.2404   10.7486 H         1 RES1    0.0000
     15 H7        12.1290    7.1017   10.1569 H         1 RES1    0.0000
     16 C9        12.7445    5.9188   11.7415 C.3       1 RES1    0.0000
     17 H8        13.6768    6.0972   11.4996 H         1 RES1    0.0000
     18 C10       12.3956    6.8589   12.8901 C.ar      1 RES1    0.0000
     19 C11       13.2347    7.8869   13.2540 C.ar      1 RES1    0.0000
     20 H9        14.0295    8.0185   12.7884 H         1 RES1    0.0000
     21 C12       12.9107    8.7315   14.3100 C.ar      1 RES1    0.0000
     22 H10       13.4862    9.4233   14.5439 H         1 RES1    0.0000
     23 C13       11.7466    8.5472   15.0083 C.ar      1 RES1    0.0000
     24 H11       11.5333    9.1120   15.7158 H         1 RES1    0.0000
     25 C14       10.9011    7.5354   14.6632 C.ar      1 RES1    0.0000
     26 H12       10.1156    7.4047   15.1425 H         1 RES1    0.0000
     27 C15       11.2101    6.7008   13.6002 C.ar      1 RES1    0.0000
     28 H13       10.6170    6.0260   13.3594 H         1 RES1    0.0000
     29 C16       12.6570    4.4349   12.1245 C.ar      1 RES1    0.0000
     30 C17       13.1210    3.9976   13.3588 C.ar      1 RES1    0.0000
     31 H14       13.4576    4.6201   13.9626 H         1 RES1    0.0000
     32 C18       13.0954    2.6445   13.7167 C.ar      1 RES1    0.0000
     33 C19       12.5982    1.7044   12.8259 C.ar      1 RES1    0.0000
     34 H15       12.5768    0.8021   13.0510 H         1 RES1    0.0000
     35 C20       12.1311    2.1379   11.5862 C.ar      1 RES1    0.0000
     36 H16       11.7873    1.5127   10.9893 H         1 RES1    0.0000
     37 C21       12.1633    3.4884   11.2110 C.ar      1 RES1    0.0000
     38 C22       13.5839    0.9707   15.3798 C.3       1 RES1    0.0000
     39 H17       12.6871    0.6299   15.3523 H         1 RES1    0.0000
     40 H18       13.9269    0.8989   16.2730 H         1 RES1    0.0000
     41 H19       14.1381    0.4621   14.7824 H         1 RES1    0.0000
     42 N1        12.3421    6.4459    4.6303 N.pl3     1 RES1    0.0000
     43 N2        11.6627    3.8753    9.9567 N.pl3     1 RES1    0.0000
     44 O1        11.8213    6.4385    3.5367 O.2       1 RES1    0.0000
     45 O2        13.5154    6.7056    4.7896 O.2       1 RES1    0.0000
     46 O3        13.5850    2.3404   14.9788 O.3       1 RES1    0.0000
     47 H20       11.7638    3.2097    9.3451 H         1 RES1    0.0000
@<TRIPOS>BOND
     1    1    2 1
     2    3    1 ar
     3    4    3 ar
     4    5    4 1
     5    6    4 ar
     6    7    6 1
     7    8    6 ar
     8    9    8 1
     9   10    1 ar
    10   11   10 1
    11   12   11 1
    12   13   11 1
    13   14   13 1
    14   15   13 1
    15   16   13 1
    16   17   16 1
    17   18   16 1
    18   19   18 ar
    19   20   19 1
    20   21   19 ar
    21   22   21 1
    22   23   21 ar
    23   24   23 1
    24   25   23 ar
    25   26   25 1
    26   27   18 ar
    27   28   27 1
    28   29   16 1
    29   30   29 ar
    30   31   30 1
    31   32   30 ar
    32   33   32 ar
    33   34   33 1
    34   35   33 ar
    35   36   35 1
    36   37   29 ar
    37   38   39 1
    38   40   38 1
    39   41   38 1
    40   42    3 1
    41   43   11 1
    42   44   42 2
    43   45   42 2
    44   46   32 1
    45   47   43 1
    46    8   10 ar
    47   25   27 ar
    48   35   37 ar
    49   37   43 1
    50   38   46 1
@<TRIPOS>SUBSTRUCTURE
     1 RES1 1

@<TRIPOS>CRYSIN
   9.2260    9.6090   12.0060  84.0630  72.7570  69.0080   2 1

