# MOL2 file generated by ConQuest
# Please check atom types

@<TRIPOS>MOLECULE
QOQHOV
    58    61     1
SMALL
NO_CHARGES
****
Generated from CSD

@<TRIPOS>ATOM
      1 O1         4.9640    6.5875    9.1205 O.3       1 RES1    0.0000
      2 O2         5.0509    8.8762    9.5229 O.3       1 RES1    0.0000
      3 O3         8.2399   10.5461    2.7174 O.3       1 RES1    0.0000
      4 N1         5.3040    9.4388    8.2359 N.2       1 RES1    0.0000
      5 O4         6.4772   11.9597    3.9331 O.3       1 RES1    0.0000
      6 C1         4.2325    6.0247   11.3511 C.ar      1 RES1    0.0000
      7 C2         6.8332    9.2301    6.4034 C.ar      1 RES1    0.0000
      8 C3         4.0508    6.0003    9.9665 C.ar      1 RES1    0.0000
      9 C4         6.3227    8.8422    7.7210 C.2       1 RES1    0.0000
     10 C5         6.3759   10.4145    5.8036 C.ar      1 RES1    0.0000
     11 H1         5.7202   10.9507    6.2556 H         1 RES1    0.0000
     12 C6         7.8161   10.0385    3.9095 C.ar      1 RES1    0.0000
     13 C7         2.0757    4.6088   10.1203 C.ar      1 RES1    0.0000
     14 C8         5.3900    6.7252   11.8935 C.2       1 RES1    0.0000
     15 C9         6.1475    7.4501   11.0652 C.2       1 RES1    0.0000
     16 H2         6.9410    7.8686   11.4057 H         1 RES1    0.0000
     17 C10        3.0130    5.3298    9.3515 C.ar      1 RES1    0.0000
     18 H3         2.9282    5.3547    8.3959 H         1 RES1    0.0000
     19 C11        6.8514   10.8161    4.5833 C.ar      1 RES1    0.0000
     20 C12        8.2523    8.8592    4.4856 C.ar      1 RES1    0.0000
     21 H4         8.8931    8.3114    4.0272 H         1 RES1    0.0000
     22 C13        3.2740    5.3438   12.1025 C.ar      1 RES1    0.0000
     23 H5         3.3472    5.3519   13.0591 H         1 RES1    0.0000
     24 C14        7.7627    8.4626    5.7333 C.ar      1 RES1    0.0000
     25 H6         8.0775    7.6466    6.1289 H         1 RES1    0.0000
     26 N2         1.0920    3.8602    9.5113 N.3       1 RES1    0.0000
     27 C15        2.2261    4.6608   11.5243 C.ar      1 RES1    0.0000
     28 H7         1.5875    4.2128   12.0839 H         1 RES1    0.0000
     29 C16        5.7957    7.6251    9.6318 C.3       1 RES1    0.0000
     30 C17        6.9037    7.7968    8.6210 C.3       1 RES1    0.0000
     31 H8         7.7146    8.1007    9.0356 H         1 RES1    0.0000
     32 H9         7.0765    6.9812    8.1462 H         1 RES1    0.0000
     33 C18        9.3122    9.8562    2.0733 C.3       1 RES1    0.0000
     34 H10       10.0613    9.7992    2.6707 H         1 RES1    0.0000
     35 H11        9.5698   10.3332    1.2819 H         1 RES1    0.0000
     36 H12        9.0251    8.9714    1.8347 H         1 RES1    0.0000
     37 C19        5.4476   12.7321    4.5485 C.3       1 RES1    0.0000
     38 H13        4.6765   12.1792    4.6942 H         1 RES1    0.0000
     39 H14        5.2116   13.4659    3.9762 H         1 RES1    0.0000
     40 H15        5.7612   13.0708    5.3898 H         1 RES1    0.0000
     41 C20        5.6903    6.6244   13.3590 C.3       1 RES1    0.0000
     42 H16        6.4509    7.1713   13.5684 H         1 RES1    0.0000
     43 H17        5.8808    5.7116   13.5845 H         1 RES1    0.0000
     44 H18        4.9314    6.9271   13.8627 H         1 RES1    0.0000
     45 C21        0.0543    3.1840   10.3101 C.3       1 RES1    0.0000
     46 H19        0.4643    2.7971   11.0865 H         1 RES1    0.0000
     47 H20       -0.3200    2.4690    9.7909 H         1 RES1    0.0000
     48 C22        1.0413    3.7466    8.0431 C.3       1 RES1    0.0000
     49 H21        0.5670    2.9441    7.8133 H         1 RES1    0.0000
     50 H22        1.9379    3.6596    7.7115 H         1 RES1    0.0000
     51 C23       -1.0544    4.0922   10.7511 C.3       1 RES1    0.0000
     52 H23       -0.6912    4.8066   11.2803 H         1 RES1    0.0000
     53 H24       -1.6858    3.5954   11.2753 H         1 RES1    0.0000
     54 H25       -1.4938    4.4578    9.9797 H         1 RES1    0.0000
     55 C24        0.3816    4.9120    7.3512 C.3       1 RES1    0.0000
     56 H26       -0.5321    4.9778    7.6369 H         1 RES1    0.0000
     57 H27        0.4112    4.7784    6.4010 H         1 RES1    0.0000
     58 H28        0.8456    5.7218    7.5761 H         1 RES1    0.0000
@<TRIPOS>BOND
     1    1    8 1
     2    2    4 1
     3    3   12 1
     4    4    9 2
     5    5   19 1
     6    6    8 ar
     7    7    9 1
     8    8   17 ar
     9    9   30 1
    10   10    7 ar
    11   11   10 1
    12   12   19 ar
    13   13   17 ar
    14   14    6 1
    15   15   14 2
    16   16   15 1
    17   17   18 1
    18   19   10 ar
    19   20   12 ar
    20   21   20 1
    21   22    6 ar
    22   23   22 1
    23   24    7 ar
    24   25   24 1
    25   26   13 1
    26   27   13 ar
    27   28   27 1
    28   29    1 1
    29   30   29 1
    30   31   30 1
    31   32   30 1
    32   33    3 1
    33   34   33 1
    34   35   33 1
    35   36   33 1
    36   37    5 1
    37   38   37 1
    38   39   37 1
    39   40   37 1
    40   41   14 1
    41   42   41 1
    42   43   41 1
    43   44   41 1
    44   45   26 1
    45   46   45 1
    46   47   45 1
    47   48   26 1
    48   49   48 1
    49   50   48 1
    50   51   45 1
    51   52   51 1
    52   53   51 1
    53   54   51 1
    54   55   48 1
    55   56   55 1
    56   57   55 1
    57   58   55 1
    58    2   29 1
    59   15   29 1
    60   20   24 ar
    61   22   27 ar
@<TRIPOS>SUBSTRUCTURE
     1 RES1 1

@<TRIPOS>CRYSIN
   9.1606    9.7158   12.8690  75.8400  81.0300  73.9600   2 1

