# MOL2 file generated by ConQuest
# Please check atom types

@<TRIPOS>MOLECULE
QOQPOB
    65    70     1
SMALL
NO_CHARGES
****
Generated from CSD

@<TRIPOS>ATOM
      1 O1        -1.5643    1.8520    0.8014 O.3       1 RES1    0.0000
      2 O2         0.1028    0.5627    1.5340 O.2       1 RES1    0.0000
      3 O3        -4.6951    0.1285    2.5913 O.3       1 RES1    0.0000
      4 O4        -1.1392    5.2583    5.3410 O.3       1 RES1    0.0000
      5 N1        -2.5962    2.6549    1.4051 N.2       1 RES1    0.0000
      6 N2        -1.2393   -0.3665    4.6794 N.2       1 RES1    0.0000
      7 C1        -1.5489    1.4662    3.0996 C.3       1 RES1    0.0000
      8 C2        -2.5712    2.4764    2.6790 C.2       1 RES1    0.0000
      9 C3        -0.8710    1.1958    1.7757 C.2       1 RES1    0.0000
     10 C4        -2.1991    0.1336    3.6847 C.3       1 RES1    0.0000
     11 H1        -3.0097    0.3955    4.1708 H         1 RES1    0.0000
     12 C5        -0.3750    0.5477    4.9614 C.2       1 RES1    0.0000
     13 C6        -0.5237    1.7999    4.1722 C.2       1 RES1    0.0000
     14 C7        -2.6048   -0.8977    2.6690 C.ar      1 RES1    0.0000
     15 C8        -1.7403   -1.8846    2.2577 C.ar      1 RES1    0.0000
     16 H2        -0.8800   -1.9080    2.6096 H         1 RES1    0.0000
     17 C9        -2.1165   -2.8384    1.3392 C.ar      1 RES1    0.0000
     18 H3        -1.5132   -3.4914    1.0652 H         1 RES1    0.0000
     19 C10       -3.3834   -2.8134    0.8375 C.ar      1 RES1    0.0000
     20 H4        -3.6460   -3.4582    0.2206 H         1 RES1    0.0000
     21 C11       -4.2751   -1.8487    1.2283 C.ar      1 RES1    0.0000
     22 H5        -5.1373   -1.8424    0.8797 H         1 RES1    0.0000
     23 C12       -3.8919   -0.8854    2.1406 C.ar      1 RES1    0.0000
     24 C13       -6.0191    0.2193    2.0924 C.3       1 RES1    0.0000
     25 H6        -6.4620    0.9696    2.4943 H         1 RES1    0.0000
     26 H7        -6.4966   -0.5856    2.3046 H         1 RES1    0.0000
     27 H8        -5.9942    0.3336    1.1397 H         1 RES1    0.0000
     28 C14       -3.5490    3.1607    3.5303 C.ar      1 RES1    0.0000
     29 C15       -4.5043    3.9857    2.9811 C.ar      1 RES1    0.0000
     30 H9        -4.5168    4.1289    2.0615 H         1 RES1    0.0000
     31 C16       -5.4450    4.6041    3.7830 C.ar      1 RES1    0.0000
     32 H10       -6.0830    5.1613    3.3979 H         1 RES1    0.0000
     33 C17       -5.4485    4.4050    5.1419 C.ar      1 RES1    0.0000
     34 H11       -6.0964    4.8061    5.6745 H         1 RES1    0.0000
     35 C18       -4.4865    3.6102    5.7027 C.ar      1 RES1    0.0000
     36 H12       -4.4671    3.4823    6.6230 H         1 RES1    0.0000
     37 C19       -3.5486    3.0009    4.9011 C.ar      1 RES1    0.0000
     38 H13       -2.8962    2.4678    5.2936 H         1 RES1    0.0000
     39 C20        0.6485    0.3351    5.9995 C.ar      1 RES1    0.0000
     40 C21        1.9554    0.7809    5.8455 C.ar      1 RES1    0.0000
     41 H14        2.1968    1.2362    5.0716 H         1 RES1    0.0000
     42 C22        2.8960    0.5557    6.8254 C.ar      1 RES1    0.0000
     43 H15        3.7705    0.8495    6.7045 H         1 RES1    0.0000
     44 C23        2.5487   -0.1002    7.9816 C.ar      1 RES1    0.0000
     45 H16        3.1794   -0.2343    8.6522 H         1 RES1    0.0000
     46 C24        1.2600   -0.5569    8.1413 C.ar      1 RES1    0.0000
     47 H17        1.0246   -1.0150    8.9150 H         1 RES1    0.0000
     48 C25        0.3217   -0.3403    7.1662 C.ar      1 RES1    0.0000
     49 H18       -0.5459   -0.6510    7.2877 H         1 RES1    0.0000
     50 C26        0.0486    2.9750    4.3986 C.2       1 RES1    0.0000
     51 H19        0.5896    3.0490    5.1517 H         1 RES1    0.0000
     52 C27       -0.1031    4.1778    3.5494 C.ar      1 RES1    0.0000
     53 C28        0.3608    4.1846    2.2408 C.ar      1 RES1    0.0000
     54 H20        0.7737    3.4259    1.8943 H         1 RES1    0.0000
     55 C29        0.2171    5.3167    1.4396 C.ar      1 RES1    0.0000
     56 H21        0.5226    5.3160    0.5607 H         1 RES1    0.0000
     57 C30       -0.3826    6.4335    1.9660 C.ar      1 RES1    0.0000
     58 H22       -0.4892    7.1886    1.4334 H         1 RES1    0.0000
     59 C31       -0.8269    6.4569    3.2554 C.ar      1 RES1    0.0000
     60 H23       -1.2172    7.2283    3.6003 H         1 RES1    0.0000
     61 C32       -0.6950    5.3283    4.0498 C.ar      1 RES1    0.0000
     62 C33       -2.0509    6.2612    5.7789 C.3       1 RES1    0.0000
     63 H24       -2.2856    6.1022    6.6961 H         1 RES1    0.0000
     64 H25       -2.8428    6.2333    5.2360 H         1 RES1    0.0000
     65 H26       -1.6394    7.1254    5.6998 H         1 RES1    0.0000
@<TRIPOS>BOND
     1    1    5 1
     2    2    9 2
     3    3   23 1
     4    4   61 1
     5    5    8 2
     6    6   10 1
     7    7    8 1
     8    8   28 1
     9    9    1 1
    10   10    7 1
    11   11   10 1
    12   12    6 2
    13   13    7 1
    14   14   10 1
    15   15   14 ar
    16   16   15 1
    17   17   15 ar
    18   18   17 1
    19   19   17 ar
    20   20   19 1
    21   21   19 ar
    22   22   21 1
    23   23   14 ar
    24   24    3 1
    25   25   24 1
    26   26   24 1
    27   27   24 1
    28   28   29 ar
    29   29   30 1
    30   31   29 ar
    31   32   31 1
    32   33   31 ar
    33   34   33 1
    34   35   33 ar
    35   36   35 1
    36   37   28 ar
    37   38   37 1
    38   39   12 1
    39   40   39 ar
    40   41   40 1
    41   42   40 ar
    42   43   42 1
    43   44   42 ar
    44   45   44 1
    45   46   44 ar
    46   47   46 1
    47   48   39 ar
    48   49   48 1
    49   50   13 2
    50   51   50 1
    51   52   50 1
    52   53   52 ar
    53   54   53 1
    54   55   53 ar
    55   56   55 1
    56   57   55 ar
    57   58   57 1
    58   59   57 ar
    59   60   59 1
    60   61   52 ar
    61   62    4 1
    62   63   62 1
    63   64   62 1
    64   65   62 1
    65    7    9 1
    66   12   13 1
    67   21   23 ar
    68   35   37 ar
    69   46   48 ar
    70   59   61 ar
@<TRIPOS>SUBSTRUCTURE
     1 RES1 1

@<TRIPOS>CRYSIN
   9.1270   10.4500   14.6320  99.1720 101.1310 101.2390   2 1

