# MOL2 file generated by ConQuest
# Please check atom types

@<TRIPOS>MOLECULE
QOQPIW
    76    79     1
SMALL
NO_CHARGES
****
Generated from CSD

@<TRIPOS>ATOM
      1 O1         4.7513   -0.6769    0.7521 O.2       1 RES1    0.0000
      2 O2         5.9539    0.5218   -0.5826 O.2       1 RES1    0.0000
      3 O3         9.3078    4.1478    4.4556 O.2       1 RES1    0.0000
      4 O4         9.4895    6.1820    3.7829 O.2       1 RES1    0.0000
      5 N1         1.1674    5.0207    2.3362 N.2       1 RES1    0.0000
      6 N2         2.6457    6.9051    3.9807 N.2       1 RES1    0.0000
      7 N3         5.0984    0.4051    0.2937 N.pl3     1 RES1    0.0000
      8 N4         8.8247    5.2054    4.0793 N.pl3     1 RES1    0.0000
      9 C1         2.6242    5.1863    2.2533 C.3       1 RES1    0.0000
     10 H1         2.8387    5.9381    1.6297 H         1 RES1    0.0000
     11 C2         3.1105    5.5522    3.6943 C.3       1 RES1    0.0000
     12 H2         2.7000    4.9179    4.3500 H         1 RES1    0.0000
     13 C3         3.2499    3.9117    1.7387 C.ar      1 RES1    0.0000
     14 C4         4.4143    3.9875    0.9727 C.ar      1 RES1    0.0000
     15 H3         4.7967    4.8352    0.7802 H         1 RES1    0.0000
     16 C5         5.0140    2.8349    0.4915 C.ar      1 RES1    0.0000
     17 H4         5.7976    2.8837   -0.0423 H         1 RES1    0.0000
     18 C6         4.4553    1.6222    0.7994 C.ar      1 RES1    0.0000
     19 C7         3.3166    1.5046    1.5809 C.ar      1 RES1    0.0000
     20 H5         2.9585    0.6517    1.7978 H         1 RES1    0.0000
     21 C8         2.7185    2.6633    2.0326 C.ar      1 RES1    0.0000
     22 H6         1.9284    2.6058    2.5548 H         1 RES1    0.0000
     23 C9         4.6185    5.4868    3.8149 C.ar      1 RES1    0.0000
     24 C10        5.4154    6.5767    3.4941 C.ar      1 RES1    0.0000
     25 H7         5.0084    7.3913    3.2234 H         1 RES1    0.0000
     26 C11        6.7958    6.4931    3.5647 C.ar      1 RES1    0.0000
     27 H8         7.3434    7.2344    3.3337 H         1 RES1    0.0000
     28 C12        7.3519    5.2995    3.9805 C.ar      1 RES1    0.0000
     29 C13        6.6028    4.2123    4.3167 C.ar      1 RES1    0.0000
     30 H9         7.0159    3.4055    4.6003 H         1 RES1    0.0000
     31 C14        5.2256    4.3090    4.2345 C.ar      1 RES1    0.0000
     32 H10        4.6885    3.5615    4.4681 H         1 RES1    0.0000
     33 C15        1.6989    7.0471    4.8120 C.2       1 RES1    0.0000
     34 H11        1.3481    6.2753    5.2419 H         1 RES1    0.0000
     35 C16        1.1212    8.3661    5.1384 C.ar      1 RES1    0.0000
     36 C17       -0.2799    8.4567    5.2855 C.ar      1 RES1    0.0000
     37 C18       -0.8552    9.7069    5.4831 C.ar      1 RES1    0.0000
     38 H12       -1.8006    9.7757    5.5434 H         1 RES1    0.0000
     39 C19       -0.0925   10.8491    5.5947 C.ar      1 RES1    0.0000
     40 C20        1.2860   10.7323    5.5216 C.ar      1 RES1    0.0000
     41 H13        1.8180   11.5103    5.6384 H         1 RES1    0.0000
     42 C21        1.9175    9.5161    5.2842 C.ar      1 RES1    0.0000
     43 C22        3.4306    9.4691    5.2727 C.3       1 RES1    0.0000
     44 H14        3.7339    8.6179    5.6499 H         1 RES1    0.0000
     45 H15        3.7845   10.2096    5.8090 H         1 RES1    0.0000
     46 H16        3.7532    9.5510    4.3500 H         1 RES1    0.0000
     47 C23       -0.7504   12.1994    5.8167 C.3       1 RES1    0.0000
     48 H17       -0.5080   12.8049    5.0853 H         1 RES1    0.0000
     49 H18       -0.4420   12.5758    6.6675 H         1 RES1    0.0000
     50 H19       -1.7226   12.0888    5.8411 H         1 RES1    0.0000
     51 C24       -1.1592    7.2257    5.2547 C.3       1 RES1    0.0000
     52 H20       -2.0966    7.4958    5.1533 H         1 RES1    0.0000
     53 H21       -1.0501    6.7257    6.0900 H         1 RES1    0.0000
     54 H22       -0.8990    6.6586    4.4976 H         1 RES1    0.0000
     55 C25        0.4430    5.8815    1.7387 C.2       1 RES1    0.0000
     56 H23        0.8678    6.5706    1.2421 H         1 RES1    0.0000
     57 C26       -1.0275    5.8475    1.7888 C.ar      1 RES1    0.0000
     58 C27       -1.7465    4.6461    1.9030 C.ar      1 RES1    0.0000
     59 C28       -3.1383    4.6993    2.0351 C.ar      1 RES1    0.0000
     60 H24       -3.6232    3.8873    2.1250 H         1 RES1    0.0000
     61 C29       -3.8302    5.8972    2.0390 C.ar      1 RES1    0.0000
     62 C30       -3.1109    7.0619    1.8876 C.ar      1 RES1    0.0000
     63 H25       -3.5796    7.8878    1.8581 H         1 RES1    0.0000
     64 C31       -1.7223    7.0750    1.7747 C.ar      1 RES1    0.0000
     65 C32       -1.0270    8.4062    1.7041 C.3       1 RES1    0.0000
     66 H26       -1.6517    9.1154    1.9659 H         1 RES1    0.0000
     67 H27       -0.7174    8.5648    0.7866 H         1 RES1    0.0000
     68 H28       -0.2569    8.4062    2.3110 H         1 RES1    0.0000
     69 C33       -5.3358    5.9163    2.1968 C.3       1 RES1    0.0000
     70 H29       -5.6792    6.8032    1.9594 H         1 RES1    0.0000
     71 H30       -5.5684    5.7142    3.1271 H         1 RES1    0.0000
     72 H31       -5.7341    5.2429    1.6066 H         1 RES1    0.0000
     73 C34       -1.1151    3.2783    1.8529 C.3       1 RES1    0.0000
     74 H32       -1.7814    2.6223    1.5578 H         1 RES1    0.0000
     75 H33       -0.7903    3.0361    2.7460 H         1 RES1    0.0000
     76 H34       -0.3648    3.2888    1.2242 H         1 RES1    0.0000
@<TRIPOS>BOND
     1    1    7 2
     2    2    7 2
     3    3    8 2
     4    4    8 2
     5    5    9 1
     6    6   11 1
     7    7   18 1
     8    8   28 1
     9    9   10 1
    10   11    9 1
    11   12   11 1
    12   13    9 1
    13   14   13 ar
    14   15   14 1
    15   16   14 ar
    16   17   16 1
    17   18   16 ar
    18   19   18 ar
    19   20   19 1
    20   21   13 ar
    21   22   21 1
    22   23   11 1
    23   24   23 ar
    24   25   24 1
    25   26   24 ar
    26   27   26 1
    27   28   26 ar
    28   29   28 ar
    29   30   29 1
    30   31   23 ar
    31   32   31 1
    32   33    6 2
    33   34   33 1
    34   35   33 1
    35   36   35 ar
    36   37   36 ar
    37   38   37 1
    38   39   37 ar
    39   40   39 ar
    40   41   40 1
    41   42   35 ar
    42   43   42 1
    43   44   43 1
    44   45   43 1
    45   46   43 1
    46   47   39 1
    47   48   47 1
    48   49   47 1
    49   50   47 1
    50   51   36 1
    51   52   51 1
    52   53   51 1
    53   54   51 1
    54   55    5 2
    55   56   55 1
    56   57   55 1
    57   58   57 ar
    58   59   58 ar
    59   60   59 1
    60   61   59 ar
    61   62   61 ar
    62   63   62 1
    63   64   57 ar
    64   65   64 1
    65   66   65 1
    66   67   65 1
    67   68   65 1
    68   69   61 1
    69   70   69 1
    70   71   69 1
    71   72   69 1
    72   73   58 1
    73   74   73 1
    74   75   73 1
    75   76   73 1
    76   19   21 ar
    77   29   31 ar
    78   40   42 ar
    79   62   64 ar
@<TRIPOS>SUBSTRUCTURE
     1 RES1 1

@<TRIPOS>CRYSIN
  27.2150    8.7120   14.1740  90.0000 115.1340  90.0000   5 1

