# MOL2 file generated by ConQuest
# Please check atom types

@<TRIPOS>MOLECULE
QOQWUO
    39    41     1
SMALL
NO_CHARGES
****
Generated from CSD

@<TRIPOS>ATOM
      1 N1        -1.6231    4.0594    9.8173 N.2       1 RES1    0.0000
      2 N2        -0.4068    4.3842    9.2779 N.pl3     1 RES1    0.0000
      3 N3         1.9060    1.3051    5.1737 N.pl3     1 RES1    0.0000
      4 N4        -2.1005    2.8957    7.3591 N.pl3     1 RES1    0.0000
      5 O1         0.5722    7.6094   11.6745 O.2       1 RES1    0.0000
      6 O2        -4.0981    3.2580   10.0327 O.3       1 RES1    0.0000
      7 H1        -3.3214    3.2293    9.7722 H         1 RES1    0.0000
      8 O3         3.0909    1.4349    4.9727 O.2       1 RES1    0.0000
      9 O4         1.1908    0.5090    4.5861 O.2       1 RES1    0.0000
     10 O5        -2.6253    3.9686    7.1376 O.2       1 RES1    0.0000
     11 O6        -2.6800    1.8535    7.5540 O.2       1 RES1    0.0000
     12 C1         0.1405    3.6300    8.2216 C.ar      1 RES1    0.0000
     13 C2         1.5193    3.6229    8.0524 C.ar      1 RES1    0.0000
     14 H2         2.0564    4.1185    8.6267 H         1 RES1    0.0000
     15 C3         2.0961    2.8867    7.0392 C.ar      1 RES1    0.0000
     16 H3         3.0169    2.9094    6.9069 H         1 RES1    0.0000
     17 C4         1.3005    2.1254    6.2321 C.ar      1 RES1    0.0000
     18 C5        -0.0561    2.0904    6.3808 C.ar      1 RES1    0.0000
     19 H4        -0.5809    1.5494    5.8362 H         1 RES1    0.0000
     20 C6        -0.6276    2.8724    7.3509 C.ar      1 RES1    0.0000
     21 C7        -3.1344    4.9431   11.4899 C.ar      1 RES1    0.0000
     22 C8        -4.1986    4.1417   11.0602 C.ar      1 RES1    0.0000
     23 C9        -5.4296    4.2304   11.6827 C.ar      1 RES1    0.0000
     24 H5        -6.1313    3.6944   11.3915 H         1 RES1    0.0000
     25 C10       -5.6272    5.0923   12.7154 C.ar      1 RES1    0.0000
     26 H6        -6.4702    5.1546   13.1041 H         1 RES1    0.0000
     27 C11       -4.5948    5.8782   13.1995 C.ar      1 RES1    0.0000
     28 C12       -3.3588    5.7683   12.5872 C.ar      1 RES1    0.0000
     29 H7        -2.6483    6.2655   12.9236 H         1 RES1    0.0000
     30 C13       -4.8055    6.8283   14.3593 C.3       1 RES1    0.0000
     31 H8        -4.5661    6.3898   15.1787 H         1 RES1    0.0000
     32 H9        -5.7281    7.0909   14.3942 H         1 RES1    0.0000
     33 H10       -4.2560    7.6061   14.2404 H         1 RES1    0.0000
     34 C14        0.1277    5.4574    9.8788 C.2       1 RES1    0.0000
     35 H11        0.9478    5.8461    9.6768 H         1 RES1    0.0000
     36 C15       -0.7523    5.8781   10.8428 C.2       1 RES1    0.0000
     37 C16       -1.8536    4.9653   10.7628 C.2       1 RES1    0.0000
     38 C17       -0.5032    7.0773   11.6294 C.2       1 RES1    0.0000
     39 H12       -1.2043    7.4456   12.1155 H         1 RES1    0.0000
@<TRIPOS>BOND
     1    1    2 1
     2    2   12 1
     3    3    8 2
     4    4   10 2
     5    5   38 2
     6    6    7 1
     7    9    3 2
     8   11    4 2
     9   12   13 ar
    10   13   14 1
    11   15   13 ar
    12   16   15 1
    13   17    3 1
    14   18   17 ar
    15   19   18 1
    16   20    4 1
    17   21   22 ar
    18   22    6 1
    19   23   22 ar
    20   24   23 1
    21   25   23 ar
    22   26   25 1
    23   27   25 ar
    24   28   21 ar
    25   29   28 1
    26   30   27 1
    27   31   30 1
    28   32   30 1
    29   33   30 1
    30   34    2 1
    31   35   34 1
    32   36   34 2
    33   37    1 2
    34   38   36 1
    35   39   38 1
    36   12   20 ar
    37   15   17 ar
    38   18   20 ar
    39   21   37 1
    40   27   28 ar
    41   36   37 1
@<TRIPOS>SUBSTRUCTURE
     1 RES1 1

@<TRIPOS>CRYSIN
   8.4110    9.6170   10.5380 102.6200  91.2300 102.9400   2 1

