# MOL2 file generated by ConQuest
# Please check atom types

@<TRIPOS>MOLECULE
QOQZIH
    41    43     1
SMALL
NO_CHARGES
****
Generated from CSD

@<TRIPOS>ATOM
      1 O1        -0.5729   -1.2294   17.2454 O.2       1 RES1    0.0000
      2 O2        -1.3226   -1.9338   15.3378 O.2       1 RES1    0.0000
      3 O3         3.3352    3.4785   13.8939 O.2       1 RES1    0.0000
      4 O4         2.2563    2.8412   12.0237 O.3       1 RES1    0.0000
      5 O5         3.2457    1.1801    5.8790 O.2       1 RES1    0.0000
      6 N1        -0.6515   -1.1712   16.0159 N.pl3     1 RES1    0.0000
      7 N2         2.5874    2.1373    7.8525 N.am      1 RES1    0.0000
      8 C1         0.1514   -0.1243   15.3365 C.ar      1 RES1    0.0000
      9 C2         0.9497    0.7128   16.0786 C.ar      1 RES1    0.0000
     10 H1         0.9811    0.6467   17.0259 H         1 RES1    0.0000
     11 C3         1.7042    1.6501   15.4084 C.ar      1 RES1    0.0000
     12 H2         2.2688    2.2317   15.9036 H         1 RES1    0.0000
     13 C4         1.6565    1.7639   14.0129 C.ar      1 RES1    0.0000
     14 C5         0.8249    0.9058   13.2983 C.ar      1 RES1    0.0000
     15 H3         0.7789    0.9782   12.3510 H         1 RES1    0.0000
     16 C6         0.0648   -0.0493   13.9450 C.ar      1 RES1    0.0000
     17 H4        -0.4983   -0.6383   13.4577 H         1 RES1    0.0000
     18 C7         2.5151    2.7846   13.3414 C.2       1 RES1    0.0000
     19 C8         3.0625    3.7848   11.2522 C.3       1 RES1    0.0000
     20 H5         4.0254    3.5792   11.3580 H         1 RES1    0.0000
     21 H6         2.9019    4.7095   11.5671 H         1 RES1    0.0000
     22 C9         2.6532    3.6463    9.7967 C.3       1 RES1    0.0000
     23 H7         3.1712    4.3282    9.2806 H         1 RES1    0.0000
     24 C10        3.0370    2.2831    9.2427 C.3       1 RES1    0.0000
     25 H8         2.6198    1.5672    9.8032 H         1 RES1    0.0000
     26 C11        4.5519    2.0214    9.1225 C.3       1 RES1    0.0000
     27 H9         5.0501    2.8743    9.0676 H         1 RES1    0.0000
     28 H10        4.8809    1.5085    9.9025 H         1 RES1    0.0000
     29 C12        4.7191    1.2116    7.8303 C.3       1 RES1    0.0000
     30 H11        5.5184    1.5106    7.3272 H         1 RES1    0.0000
     31 H12        4.8072    0.2455    8.0289 H         1 RES1    0.0000
     32 C13        3.4649    1.4870    7.0568 C.2       1 RES1    0.0000
     33 C14        1.2074    2.4589    7.5023 C.3       1 RES1    0.0000
     34 H13        0.5987    1.7770    7.8812 H         1 RES1    0.0000
     35 H14        1.1040    2.4526    6.5172 H         1 RES1    0.0000
     36 C15        0.8433    3.8404    8.0511 C.3       1 RES1    0.0000
     37 H15       -0.1219    4.0072    7.9113 H         1 RES1    0.0000
     38 H16        1.3498    4.5354    7.5611 H         1 RES1    0.0000
     39 C16        1.1673    3.9301    9.5471 C.3       1 RES1    0.0000
     40 H17        0.9430    4.8348    9.8790 H         1 RES1    0.0000
     41 H18        0.6173    3.2745   10.0436 H         1 RES1    0.0000
@<TRIPOS>BOND
     1    1    6 2
     2    2    6 2
     3    3   18 2
     4    4   18 1
     5    5   32 2
     6    6    8 1
     7    7   24 1
     8    8    9 ar
     9    9   10 1
    10   11    9 ar
    11   12   11 1
    12   13   11 ar
    13   14   13 ar
    14   15   14 1
    15   16    8 ar
    16   17   16 1
    17   18   13 1
    18   19    4 1
    19   20   19 1
    20   21   19 1
    21   22   19 1
    22   23   22 1
    23   24   22 1
    24   25   24 1
    25   26   24 1
    26   27   26 1
    27   28   26 1
    28   29   26 1
    29   30   29 1
    30   31   29 1
    31   32    7 1
    32   33    7 1
    33   34   33 1
    34   35   33 1
    35   36   33 1
    36   37   36 1
    37   38   36 1
    38   39   22 1
    39   40   39 1
    40   41   39 1
    41   14   16 ar
    42   29   32 1
    43   36   39 1
@<TRIPOS>SUBSTRUCTURE
     1 RES1 1

@<TRIPOS>CRYSIN
  11.3030    5.2450   13.1270  90.0000  95.5400  90.0000   4 1

