# MOL2 file generated by ConQuest
# Please check atom types

@<TRIPOS>MOLECULE
QORQUK
    35    35     1
SMALL
NO_CHARGES
****
Generated from CSD

@<TRIPOS>ATOM
      1 C1        10.3920    0.4398    7.6863 C.2       1 RES1    0.0000
      2 C2         7.0672    0.7680    6.7719 C.3       1 RES1    0.0000
      3 C3         5.9193    0.4417    7.7071 C.3       1 RES1    0.0000
      4 C4        11.5098   -0.3451    9.6781 C.3       1 RES1    0.0000
      5 C5        11.4372   -1.8025   10.1099 C.3       1 RES1    0.0000
      6 N1         9.4023    1.0443    7.0292 N.3       1 RES1    0.0000
      7 N2         9.8040    1.2745    5.7407 N.2       1 RES1    0.0000
      8 N3        11.0027    0.8004    5.6740 N.2       1 RES1    0.0000
      9 N4        11.4179    0.2718    6.8697 N.2       1 RES1    0.0000
     10 N5        10.3113    0.0571    8.9873 N.3       1 RES1    0.0000
     11 N6         8.1548    1.3874    7.5413 N.3       1 RES1    0.0000
     12 N7         5.1363    1.6708    8.1195 N.pl3     1 RES1    0.0000
     13 N8         4.9239   -0.5150    7.0858 N.pl3     1 RES1    0.0000
     14 N9         6.4102   -0.2108    8.9931 N.pl3     1 RES1    0.0000
     15 N10       10.8493   -2.6801    9.0194 N.pl3     1 RES1    0.0000
     16 N11       10.5745   -2.0152   11.3638 N.pl3     1 RES1    0.0000
     17 N12       12.8135   -2.3603   10.4381 N.pl3     1 RES1    0.0000
     18 O1         5.8010    2.6801    8.3164 O.2       1 RES1    0.0000
     19 O2         3.9254    1.5586    8.2144 O.2       1 RES1    0.0000
     20 O3         4.7592   -0.3645    5.8879 O.2       1 RES1    0.0000
     21 O4         4.3690   -1.3044    7.8077 O.2       1 RES1    0.0000
     22 O5         5.9999    0.2413   10.0464 O.2       1 RES1    0.0000
     23 O6         7.1706   -1.1422    8.8324 O.2       1 RES1    0.0000
     24 O7        11.5052   -2.7216    8.0002 O.2       1 RES1    0.0000
     25 O8         9.7956   -3.2366    9.2456 O.2       1 RES1    0.0000
     26 O9         9.6880   -1.2103   11.5175 O.2       1 RES1    0.0000
     27 O10       10.8347   -2.9570   12.0791 O.2       1 RES1    0.0000
     28 O11       12.9577   -3.5550   10.3280 O.2       1 RES1    0.0000
     29 O12       13.6299   -1.5372   10.7859 O.2       1 RES1    0.0000
     30 H1         9.7181    0.2659    9.3704 H         1 RES1    0.0000
     31 H2         8.0557    2.1599    7.5471 H         1 RES1    0.0000
     32 H3        12.2524   -0.3373    9.0935 H         1 RES1    0.0000
     33 H4        11.6158    0.1622   10.4783 H         1 RES1    0.0000
     34 H5         6.7796    1.3361    6.1392 H         1 RES1    0.0000
     35 H6         7.3526   -0.0584    6.4624 H         1 RES1    0.0000
@<TRIPOS>BOND
     1    1    6 1
     2    2    3 1
     3    3   12 1
     4    4    5 1
     5    5   15 1
     6    6    7 1
     7    7    8 2
     8    8    9 1
     9    9    1 2
    10   10    1 1
    11   11    2 1
    12   12   18 2
    13   13    3 1
    14   14    3 1
    15   15   24 2
    16   16    5 1
    17   17    5 1
    18   19   12 2
    19   20   13 2
    20   21   13 2
    21   22   14 2
    22   23   14 2
    23   25   15 2
    24   26   16 2
    25   27   16 2
    26   28   17 2
    27   29   17 2
    28   30   10 1
    29   31   11 1
    30   32    4 1
    31   33    4 1
    32   34    2 1
    33   35    2 1
    34    4   10 1
    35    6   11 1
@<TRIPOS>SUBSTRUCTURE
     1 RES1 1

@<TRIPOS>CRYSIN
   9.9710    6.4861   23.1501  90.0000  94.4640  90.0000  14 1

