# MOL2 file generated by ConQuest
# Please check atom types

@<TRIPOS>MOLECULE
QORRUK
    50    53     1
SMALL
NO_CHARGES
****
Generated from CSD

@<TRIPOS>ATOM
      1 C1         2.4098    4.4231    0.8210 C.ar      1 RES1    0.0000
      2 H1         1.6471    4.3256    0.1791 H         1 RES1    0.0000
      3 C2         3.2285    5.5145    0.8882 C.ar      1 RES1    0.0000
      4 H2         3.0807    6.1803    0.2712 H         1 RES1    0.0000
      5 C3         4.2817    5.5562    1.7776 C.ar      1 RES1    0.0000
      6 H3         4.8914    6.3540    1.8335 H         1 RES1    0.0000
      7 C4         4.4612    4.4704    2.5861 C.ar      1 RES1    0.0000
      8 H4         5.1055    4.4391    3.2056 H         1 RES1    0.0000
      9 C5         3.6304    3.3791    2.5500 C.ar      1 RES1    0.0000
     10 C6         3.7778    2.1869    3.4344 C.3       1 RES1    0.0000
     11 H5         2.8278    1.8447    3.6011 H         1 RES1    0.0000
     12 C7         5.1084    0.3811    3.9880 C.3       1 RES1    0.0000
     13 H6         4.5645   -0.5079    4.0825 H         1 RES1    0.0000
     14 H7         5.9773    0.0335    3.7019 H         1 RES1    0.0000
     15 C8         4.9617    1.2736    5.2132 C.3       1 RES1    0.0000
     16 H8         4.3413    0.9379    5.8775 H         1 RES1    0.0000
     17 H9         5.8008    1.4824    5.6648 H         1 RES1    0.0000
     18 C9         3.5918    3.2394    5.6436 C.3       1 RES1    0.0000
     19 H10        3.1828    4.0338    5.1001 H         1 RES1    0.0000
     20 H11        2.9101    2.6787    5.9783 H         1 RES1    0.0000
     21 N1         2.6105    3.3640    1.6407 N.pl3     1 RES1    0.0000
     22 N2         4.6233    1.1620    2.8386 N.3       1 RES1    0.0000
     23 H12        5.3550    1.5963    2.4455 H         1 RES1    0.0000
     24 N3         4.4483    2.5424    4.6983 N.3       1 RES1    0.0000
     25 O1         1.8183    2.3199    1.5449 O.2       1 RES1    0.0000
     26 C9A        4.3943    3.7978    6.7955 C.3       1 RES1    0.0000
     27 H10A       4.8033    3.0033    7.3391 H         1 RES1    0.0000
     28 H11A       5.0760    4.3584    6.4609 H         1 RES1    0.0000
     29 N3A        3.5378    4.4947    7.7409 N.3       1 RES1    0.0000
     30 C6A        4.2083    4.8503    9.0047 C.3       1 RES1    0.0000
     31 C5A        4.3557    3.6581    9.8891 C.ar      1 RES1    0.0000
     32 C4A        3.5248    2.5667    9.8531 C.ar      1 RES1    0.0000
     33 C3A        3.7044    1.4809   10.6616 C.ar      1 RES1    0.0000
     34 C2A        4.7576    1.5226   11.5510 C.ar      1 RES1    0.0000
     35 C1A        5.5763    2.6140   11.6182 C.ar      1 RES1    0.0000
     36 H1A        6.3390    2.7115   12.2600 H         1 RES1    0.0000
     37 N1A        5.3755    3.6732   10.7984 N.pl3     1 RES1    0.0000
     38 O1A        6.1678    4.7172   10.8942 O.2       1 RES1    0.0000
     39 H2A        4.9054    0.8568   12.1680 H         1 RES1    0.0000
     40 H3A        3.0947    0.6831   10.6056 H         1 RES1    0.0000
     41 H4A        2.8805    2.5980    9.2336 H         1 RES1    0.0000
     42 H5A        5.1583    5.1924    8.8380 H         1 RES1    0.0000
     43 N2A        3.3628    5.8752    9.6005 N.3       1 RES1    0.0000
     44 C7A        2.8777    6.6560    8.4512 C.3       1 RES1    0.0000
     45 H6A        3.4216    7.5450    8.3566 H         1 RES1    0.0000
     46 H7A        2.0088    7.0036    8.7373 H         1 RES1    0.0000
     47 C8A        3.0244    5.7635    7.2259 C.3       1 RES1    0.0000
     48 H8A        3.6448    6.0992    6.5617 H         1 RES1    0.0000
     49 H9A        2.1853    5.5547    6.7744 H         1 RES1    0.0000
     50 H12A       2.6311    5.4408    9.9936 H         1 RES1    0.0000
@<TRIPOS>BOND
     1    1    2 1
     2    3    1 ar
     3    4    3 1
     4    5    3 ar
     5    6    5 1
     6    7    5 ar
     7    8    7 1
     8    9    7 ar
     9   10    9 1
    10   11   10 1
    11   12   13 1
    12   14   12 1
    13   15   12 1
    14   16   15 1
    15   17   15 1
    16   18   19 1
    17   20   18 1
    18   21    1 ar
    19   22   10 1
    20   23   22 1
    21   24   10 1
    22   25   21 1
    23   26   18 1
    24   27   26 1
    25   28   26 1
    26   29   26 1
    27   30   29 1
    28   31   30 1
    29   32   31 ar
    30   33   32 ar
    31   34   33 ar
    32   35   34 ar
    33   36   35 1
    34   37   31 ar
    35   38   37 1
    36   39   34 1
    37   40   33 1
    38   41   32 1
    39   42   30 1
    40   43   30 1
    41   44   43 1
    42   45   44 1
    43   46   44 1
    44   47   29 1
    45   48   47 1
    46   49   47 1
    47   50   43 1
    48    9   21 ar
    49   12   22 1
    50   15   24 1
    51   18   24 1
    52   35   37 ar
    53   44   47 1
@<TRIPOS>SUBSTRUCTURE
     1 RES1 1

@<TRIPOS>CRYSIN
   5.2290    7.0140   12.4730  87.6800  85.9800  74.4300   2 1

