# MOL2 file generated by ConQuest
# Please check atom types

@<TRIPOS>MOLECULE
QORRAR
    38    36     2
SMALL
USER_CHARGES
****
Generated from CSD

@<TRIPOS>ATOM
      1 C1         4.4480   13.2882    7.0577 C.2       1 RES1    0.0000
      2 C2         3.1333   11.4674    7.7345 C.3       1 RES1    0.0000
      3 C3         1.6482   11.3109    7.4882 C.3       1 RES1    0.0000
      4 C4         5.6467    8.1336    8.1481 C.2       2 RES2    0.0000
      5 C5         5.9642    8.5471   10.4474 C.3       2 RES2    0.0000
      6 C6         5.0749    7.8988   11.4964 C.3       2 RES2    0.0000
      7 N1         4.7730   13.9899    5.8945 N.2       1 RES1    0.0000
      8 N2         5.6531   14.8651    6.1460 N.1       1 RES1    1.0000
      9 N3         6.4438   15.6451    6.2417 N.2       1 RES1   -1.0000
     10 N4         0.9729   12.6334    7.1663 N.pl3     1 RES1    0.0000
     11 N5         1.3278   10.3522    6.3357 N.pl3     1 RES1    0.0000
     12 N6         0.9561   10.7318    8.7142 N.pl3     1 RES1    0.0000
     13 N7         4.7697    8.5301    7.1270 N.2       2 RES2    0.0000
     14 N8         5.0958    8.0280    6.0124 N.1       2 RES2    1.0000
     15 N9         5.2675    7.6536    4.9671 N.2       2 RES2   -1.0000
     16 N10        3.6959    8.5523   11.5756 N.pl3     2 RES2    0.0000
     17 N11        5.7238    8.0567   12.8700 N.pl3     2 RES2    0.0000
     18 N12        4.8555    6.4106   11.2671 N.pl3     2 RES2    0.0000
     19 O1         4.8085   13.5125    8.1802 O.2       1 RES1    0.0000
     20 O2         3.6423   12.2800    6.6803 O.3       1 RES1    0.0000
     21 O3         1.4049   13.5921    7.7708 O.2       1 RES1    0.0000
     22 O4         0.0664   12.6100    6.3602 O.2       1 RES1    0.0000
     23 O5         2.1621   10.2922    5.4594 O.2       1 RES1    0.0000
     24 O6         0.2695    9.7523    6.4040 O.2       1 RES1    0.0000
     25 O7        -0.1208   11.2065    9.0251 O.2       1 RES1    0.0000
     26 O8         1.5528    9.8162    9.2447 O.2       1 RES1    0.0000
     27 O9         6.5997    7.4136    8.0791 O.2       2 RES2    0.0000
     28 O10        5.1963    8.7649    9.2596 O.3       2 RES2    0.0000
     29 O11        3.7049    9.7640   11.5348 O.2       2 RES2    0.0000
     30 O12        2.7344    7.8128   11.6965 O.2       2 RES2    0.0000
     31 O13        5.0500    8.5184   13.7690 O.2       2 RES2    0.0000
     32 O14        6.8851    7.6954   12.9108 O.2       2 RES2    0.0000
     33 O15        4.8871    5.6881   12.2445 O.2       2 RES2    0.0000
     34 O16        4.6433    6.0989   10.1178 O.2       2 RES2    0.0000
     35 H1         3.2397   11.9083    8.5730 H         1 RES1    0.0000
     36 H2         3.5364   10.6040    7.7269 H         1 RES1    0.0000
     37 H3         6.1956    9.4431   10.8290 H         2 RES2    0.0000
     38 H4         6.7416    7.9954   10.2838 H         2 RES2    0.0000
@<TRIPOS>BOND
     1    1    7 1
     2    2    3 1
     3    3   10 1
     4    4   13 1
     5    5    6 1
     6    6   16 1
     7    7    8 2
     8    8    9 2
     9   10   21 2
    10   11    3 1
    11   12    3 1
    12   13   14 2
    13   14   15 2
    14   16   29 2
    15   17    6 1
    16   18    6 1
    17   19    1 2
    18   20    1 1
    19   22   10 2
    20   23   11 2
    21   24   11 2
    22   25   12 2
    23   26   12 2
    24   27    4 2
    25   28    4 1
    26   30   16 2
    27   31   17 2
    28   32   17 2
    29   33   18 2
    30   34   18 2
    31   35    2 1
    32   36    2 1
    33   37    5 1
    34   38    5 1
    35    2   20 1
    36    5   28 1
@<TRIPOS>SUBSTRUCTURE
     1 RES1 1
     2 RES2 4

@<TRIPOS>CRYSIN
   7.3139   13.0430   18.8050  90.0000  91.2730  90.0000  14 1

