# MOL2 file generated by ConQuest
# Please check atom types

@<TRIPOS>MOLECULE
QORRUL
    36    36     1
SMALL
NO_CHARGES
****
Generated from CSD

@<TRIPOS>ATOM
      1 C1         1.9969    2.2298    3.0037 C.ar      1 RES1    0.0000
      2 C2         3.7858    4.0553    2.7517 C.ar      1 RES1    0.0000
      3 C3         6.1306    4.7037    2.6461 C.3       1 RES1    0.0000
      4 H1         6.2337    3.7489    2.8857 H         1 RES1    0.0000
      5 H2         6.5681    5.2425    3.3523 H         1 RES1    0.0000
      6 C4         6.8321    4.9634    1.3110 C.3       1 RES1    0.0000
      7 C5        -0.3369    1.5630    3.1287 C.3       1 RES1    0.0000
      8 H3        -0.7763    1.0189    2.4279 H         1 RES1    0.0000
      9 H4        -0.4443    2.5161    2.8834 H         1 RES1    0.0000
     10 C6        -1.0358    1.3099    4.4739 C.3       1 RES1    0.0000
     11 N1         1.5937    3.5041    3.0267 N.ar      1 RES1    0.0000
     12 N2         2.5043    4.4513    2.8958 N.ar      1 RES1    0.0000
     13 N3         4.1899    2.7733    2.7162 N.ar      1 RES1    0.0000
     14 N4         3.2808    1.8279    2.8406 N.ar      1 RES1    0.0000
     15 N5         1.0597    1.2423    3.1623 N.3       1 RES1    0.0000
     16 N6         4.7279    5.0315    2.6006 N.3       1 RES1    0.0000
     17 N7         7.2918    6.4161    1.1589 N.pl3     1 RES1    0.0000
     18 N8         8.0849    4.1099    1.1431 N.pl3     1 RES1    0.0000
     19 N9         5.9179    4.6818    0.1340 N.pl3     1 RES1    0.0000
     20 N10       -1.5227   -0.1316    4.6228 N.pl3     1 RES1    0.0000
     21 N11       -0.1251    1.5778    5.6595 N.pl3     1 RES1    0.0000
     22 N12       -2.2700    2.1717    4.6202 N.pl3     1 RES1    0.0000
     23 O1         6.6467    7.2269    1.7900 O.2       1 RES1    0.0000
     24 O2         8.2435    6.6289    0.4259 O.2       1 RES1    0.0000
     25 O3         8.6683    3.8514    2.1798 O.2       1 RES1    0.0000
     26 O4         8.4043    3.7762    0.0233 O.2       1 RES1    0.0000
     27 O5         5.6090    3.5124    0.0025 O.2       1 RES1    0.0000
     28 O6         5.5355    5.6236   -0.5193 O.2       1 RES1    0.0000
     29 O7        -0.8333   -0.9655    4.0793 O.2       1 RES1    0.0000
     30 O8        -2.5349   -0.3058    5.2713 O.2       1 RES1    0.0000
     31 O9         0.0676    0.6674    6.4350 O.2       1 RES1    0.0000
     32 O10        0.3341    2.7004    5.7042 O.2       1 RES1    0.0000
     33 O11       -2.5157    2.6494    5.7049 O.2       1 RES1    0.0000
     34 O12       -2.9230    2.2825    3.5999 O.2       1 RES1    0.0000
     35 H5         1.2369    0.4208    3.1407 H         1 RES1    0.0000
     36 H6         4.4684    5.8738    2.7286 H         1 RES1    0.0000
@<TRIPOS>BOND
     1    1   11 ar
     2    2   12 ar
     3    3    4 1
     4    5    3 1
     5    6    3 1
     6    7    8 1
     7    9    7 1
     8   10    7 1
     9   11   12 ar
    10   13    2 ar
    11   14    1 ar
    12   15    1 1
    13   16    2 1
    14   17    6 1
    15   18    6 1
    16   19    6 1
    17   20   10 1
    18   21   10 1
    19   22   10 1
    20   23   17 2
    21   24   17 2
    22   25   18 2
    23   26   18 2
    24   27   19 2
    25   28   19 2
    26   29   20 2
    27   30   20 2
    28   31   21 2
    29   32   21 2
    30   33   22 2
    31   34   22 2
    32   35   15 1
    33   36   16 1
    34    3   16 1
    35    7   15 1
    36   13   14 ar
@<TRIPOS>SUBSTRUCTURE
     1 RES1 1

@<TRIPOS>CRYSIN
  23.3824    5.9271   11.1373  90.0000  90.0000  90.0000  33 1

