# MOL2 file generated by ConQuest
# Please check atom types

@<TRIPOS>MOLECULE
QORROF
    23    23     1
SMALL
NO_CHARGES
****
Generated from CSD

@<TRIPOS>ATOM
      1 C1        11.4270    0.4217    5.6961 C.2       1 RES1    0.0000
      2 C2        13.5877    2.1533    3.5943 C.3       1 RES1    0.0000
      3 H1        13.5905    2.7773    2.8257 H         1 RES1    0.0000
      4 H2        13.7567    1.2399    3.2515 H         1 RES1    0.0000
      5 C3        14.6852    2.5439    4.5745 C.3       1 RES1    0.0000
      6 N1        11.7200    0.9552    4.4884 N.3       1 RES1    0.0000
      7 N2        11.4682    0.0331    3.5083 N.2       1 RES1    0.0000
      8 N3        11.0597   -1.0169    4.1290 N.2       1 RES1    0.0000
      9 N4        11.0149   -0.8222    5.4941 N.2       1 RES1    0.0000
     10 N5        11.5832    1.0606    6.8547 N.3       1 RES1    0.0000
     11 N6        12.2888    2.1977    4.2571 N.3       1 RES1    0.0000
     12 N7        14.5804    1.7697    5.8726 N.pl3     1 RES1    0.0000
     13 N8        14.6718    4.0331    4.9250 N.pl3     1 RES1    0.0000
     14 N9        16.0796    2.2885    4.0124 N.pl3     1 RES1    0.0000
     15 O1        14.4969    0.5596    5.7235 O.2       1 RES1    0.0000
     16 O2        14.5695    2.3957    6.9114 O.2       1 RES1    0.0000
     17 O3        15.7349    4.5390    5.2149 O.2       1 RES1    0.0000
     18 O4        13.5985    4.5842    4.8829 O.2       1 RES1    0.0000
     19 O5        16.2423    2.6568    2.8748 O.2       1 RES1    0.0000
     20 O6        16.9055    1.7774    4.7529 O.2       1 RES1    0.0000
     21 H3        11.5907    1.8829    6.8254 H         1 RES1    0.0000
     22 H4        11.3182    0.6710    7.5200 H         1 RES1    0.0000
     23 H5        11.8526    2.7042    3.8556 H         1 RES1    0.0000
@<TRIPOS>BOND
     1    1    6 1
     2    2    3 1
     3    4    2 1
     4    5    2 1
     5    6    7 1
     6    7    8 2
     7    8    9 1
     8    9    1 2
     9   10    1 1
    10   11    2 1
    11   12    5 1
    12   13    5 1
    13   14    5 1
    14   15   12 2
    15   16   12 2
    16   17   13 2
    17   18   13 2
    18   19   14 2
    19   20   14 2
    20   21   10 1
    21   22   10 1
    22   23   11 1
    23    6   11 1
@<TRIPOS>SUBSTRUCTURE
     1 RES1 1

@<TRIPOS>CRYSIN
  14.9692   10.0155    6.3729  90.0000  90.0000  90.0000  33 1

