# MOL2 file generated by ConQuest
# Please check atom types

@<TRIPOS>MOLECULE
QORSAS
    28    27     1
SMALL
NO_CHARGES
****
Generated from CSD

@<TRIPOS>ATOM
      1 C1         7.2737    0.9202    4.5196 C.3       1 RES1    0.0000
      2 C2         7.5429    2.1858    5.3200 C.3       1 RES1    0.0000
      3 C3        10.2121    2.0702    7.9548 C.3       1 RES1    0.0000
      4 C4         9.4324    2.6391    6.7917 C.3       1 RES1    0.0000
      5 N1         6.2149    0.0084    5.1290 N.pl3     1 RES1    0.0000
      6 N2         8.5616    0.1123    4.3970 N.pl3     1 RES1    0.0000
      7 N3         6.7737    1.2274    3.1255 N.pl3     1 RES1    0.0000
      8 N4         9.6419    2.4632    9.3193 N.pl3     1 RES1    0.0000
      9 N5        11.6535    2.5529    7.9794 N.pl3     1 RES1    0.0000
     10 N6        10.2507    0.5512    7.8888 N.pl3     1 RES1    0.0000
     11 N7         8.2400    1.8374    6.5513 N.3       1 RES1    0.0000
     12 O1         5.9482    0.1935    6.2901 O.2       1 RES1    0.0000
     13 O2         5.7266   -0.8183    4.3837 O.2       1 RES1    0.0000
     14 O3         8.5556   -1.0304    4.7867 O.2       1 RES1    0.0000
     15 O4         9.4921    0.7347    3.9431 O.2       1 RES1    0.0000
     16 O5         5.9215    2.0914    3.0817 O.2       1 RES1    0.0000
     17 O6         7.2243    0.5963    2.1970 O.2       1 RES1    0.0000
     18 O7        10.4197    2.5939   10.2384 O.2       1 RES1    0.0000
     19 O8         8.4408    2.6120    9.3578 O.2       1 RES1    0.0000
     20 O9        12.5013    1.7864    8.3845 O.2       1 RES1    0.0000
     21 O10       11.8102    3.7051    7.6310 O.2       1 RES1    0.0000
     22 O11        9.7450   -0.0693    8.7989 O.2       1 RES1    0.0000
     23 O12       10.7622    0.1070    6.8827 O.2       1 RES1    0.0000
     24 H1         6.6722    2.6060    5.4595 H         1 RES1    0.0000
     25 H2         8.0966    2.7991    4.7255 H         1 RES1    0.0000
     26 H3         9.2452    3.5343    6.9565 H         1 RES1    0.0000
     27 H4         9.9813    2.5954    6.0619 H         1 RES1    0.0000
     28 H5         7.6906    1.8918    7.1862 H         1 RES1    0.0000
@<TRIPOS>BOND
     1    1    2 1
     2    2   11 1
     3    3    4 1
     4    4   11 1
     5    5    1 1
     6    6    1 1
     7    7    1 1
     8    8    3 1
     9    9    3 1
    10   10    3 1
    11   11   28 1
    12   12    5 2
    13   13    5 2
    14   14    6 2
    15   15    6 2
    16   16    7 2
    17   17    7 2
    18   18    8 2
    19   19    8 2
    20   20    9 2
    21   21    9 2
    22   22   10 2
    23   23   10 2
    24   24    2 1
    25   25    2 1
    26   26    4 1
    27   27    4 1
@<TRIPOS>SUBSTRUCTURE
     1 RES1 1

@<TRIPOS>CRYSIN
  12.8907   11.7069   16.0622  90.0000  90.0000  90.0000  61 1

