# MOL2 file generated by ConQuest
# Please check atom types

@<TRIPOS>MOLECULE
QOSPUK
    66    70     1
SMALL
NO_CHARGES
****
Generated from CSD

@<TRIPOS>ATOM
      1 O1        -1.8362    8.4091    7.0132 O.2       1 RES1    0.0000
      2 O2        -2.0565    6.3407   13.3803 O.2       1 RES1    0.0000
      3 N1        -1.5575    7.3104   12.8143 N.pl3     1 RES1    0.0000
      4 N2         0.9272    3.6003    9.8482 N.2       1 RES1    0.0000
      5 N3        -1.8722    8.7404    8.2019 N.pl3     1 RES1    0.0000
      6 O3        -2.3267    9.8076    8.6053 O.2       1 RES1    0.0000
      7 N4         0.2142    5.0910   11.9414 N.3       1 RES1    0.0000
      8 C1        -0.7407    6.6294    8.7606 C.ar      1 RES1    0.0000
      9 C2        -0.2270    5.7155    9.6638 C.ar      1 RES1    0.0000
     10 C3         2.8619    2.3464    8.9465 C.ar      1 RES1    0.0000
     11 C4        -1.5314    8.0521   10.5287 C.ar      1 RES1    0.0000
     12 O4        -1.4971    8.4343   13.3069 O.2       1 RES1    0.0000
     13 C5         1.1989    5.6321   15.9907 C.ar      1 RES1    0.0000
     14 C6         0.0302    4.3090   14.2816 C.ar      1 RES1    0.0000
     15 C7         0.8558    1.2145   10.0277 C.ar      1 RES1    0.0000
     16 C8        -1.0919    7.1108   11.4374 C.ar      1 RES1    0.0000
     17 C9         1.2687    6.3663   13.6961 C.ar      1 RES1    0.0000
     18 C10       -0.3617    5.9593   11.0794 C.ar      1 RES1    0.0000
     19 C11        1.8667    7.3286   12.7032 C.3       1 RES1    0.0000
     20 C12        1.3592    2.3573    9.1727 C.3       1 RES1    0.0000
     21 C13       -1.4945    2.9516   12.6500 C.3       1 RES1    0.0000
     22 C14        0.3727    4.5003    9.1297 C.2       1 RES1    0.0000
     23 C15        5.1183    2.9048    9.5919 C.ar      1 RES1    0.0000
     24 C16        0.4851    5.2902   13.3325 C.ar      1 RES1    0.0000
     25 C17       -1.0491    2.2524   14.9725 C.ar      1 RES1    0.0000
     26 C18        4.7423    1.5955    7.6375 C.ar      1 RES1    0.0000
     27 C19        3.7492    2.9833    9.8066 C.ar      1 RES1    0.0000
     28 C20       -0.5594    2.3980   16.2893 C.ar      1 RES1    0.0000
     29 C21        3.3746    1.6654    7.8547 C.ar      1 RES1    0.0000
     30 C22        0.4619    4.4841   15.6381 C.ar      1 RES1    0.0000
     31 C23        1.5894    6.5388   15.0680 C.ar      1 RES1    0.0000
     32 C24       -0.9785   -0.2067   10.6915 C.ar      1 RES1    0.0000
     33 C25       -0.8005    3.1738   13.9751 C.ar      1 RES1    0.0000
     34 C26       -0.4437    0.7381    9.8380 C.ar      1 RES1    0.0000
     35 C27        0.1515    3.5042   16.6170 C.ar      1 RES1    0.0000
     36 C28       -1.3482    7.7910    9.1823 C.ar      1 RES1    0.0000
     37 C29        1.6053    0.6953   11.0799 C.ar      1 RES1    0.0000
     38 C30        1.0632   -0.2522   11.9278 C.ar      1 RES1    0.0000
     39 C31        5.6211    2.2036    8.5154 C.ar      1 RES1    0.0000
     40 C32       -0.2318   -0.6989   11.7427 C.ar      1 RES1    0.0000
     41 H1         0.5990    4.3386   11.5068 H         1 RES1    0.0000
     42 H2        -2.0062    8.8464   10.8312 H         1 RES1    0.0000
     43 H3        -0.6373    6.4700    7.8331 H         1 RES1    0.0000
     44 H4         0.9512    2.3128    8.2449 H         1 RES1    0.0000
     45 H5         0.3104    4.4034    8.1601 H         1 RES1    0.0000
     46 H6         1.4511    5.7279   16.9756 H         1 RES1    0.0000
     47 H7        -1.5466    1.4722   14.7732 H         1 RES1    0.0000
     48 H8        -0.8959    2.6790   11.8661 H         1 RES1    0.0000
     49 H9        -0.7833    1.7076   16.9602 H         1 RES1    0.0000
     50 H10       -2.1238    2.2107   12.7992 H         1 RES1    0.0000
     51 H11        3.3615    3.4992   10.5413 H         1 RES1    0.0000
     52 H12        6.5833    2.1507    8.3698 H         1 RES1    0.0000
     53 H13        2.7651    1.1996    7.2609 H         1 RES1    0.0000
     54 H14        2.0919    7.3082   15.2806 H         1 RES1    0.0000
     55 H15       -1.9469    3.7934   12.2948 H         1 RES1    0.0000
     56 H16        2.6887    7.7477   13.1107 H         1 RES1    0.0000
     57 H17        1.2835    8.0839   12.4321 H         1 RES1    0.0000
     58 H18       -0.6163   -1.3305   12.3334 H         1 RES1    0.0000
     59 H19        0.4820    3.7009   17.5385 H         1 RES1    0.0000
     60 H20        5.7345    3.3695   10.1881 H         1 RES1    0.0000
     61 H21       -1.9115   -0.4983   10.5968 H         1 RES1    0.0000
     62 H22        2.1347    6.8483   11.8353 H         1 RES1    0.0000
     63 H23        5.0994    1.1072    6.8707 H         1 RES1    0.0000
     64 H24        1.6212   -0.6364   12.6480 H         1 RES1    0.0000
     65 H25       -0.9683    1.1072    9.1548 H         1 RES1    0.0000
     66 H26        2.5124    1.0147   11.1906 H         1 RES1    0.0000
@<TRIPOS>BOND
     1    1    5 2
     2    2    3 2
     3    3   12 2
     4    4   20 1
     5    5    6 2
     6    7   18 1
     7    8    9 ar
     8    9   18 ar
     9   10   20 1
    10   11   16 ar
    11   13   30 ar
    12   14   24 ar
    13   15   20 1
    14   16    3 1
    15   17   19 1
    16   18   16 ar
    17   19   56 1
    18   20   44 1
    19   21   33 1
    20   22    4 2
    21   23   27 ar
    22   24    7 1
    23   25   28 ar
    24   26   29 ar
    25   27   10 ar
    26   28   35 ar
    27   29   10 ar
    28   30   14 ar
    29   31   13 ar
    30   32   34 ar
    31   33   14 ar
    32   34   15 ar
    33   35   30 ar
    34   36    5 1
    35   37   15 ar
    36   38   37 ar
    37   39   23 ar
    38   40   32 ar
    39   41    7 1
    40   42   11 1
    41   43    8 1
    42   45   22 1
    43   46   13 1
    44   47   25 1
    45   48   21 1
    46   49   28 1
    47   50   21 1
    48   51   27 1
    49   52   39 1
    50   53   29 1
    51   54   31 1
    52   55   21 1
    53   57   19 1
    54   58   40 1
    55   59   35 1
    56   60   23 1
    57   61   32 1
    58   62   19 1
    59   63   26 1
    60   64   38 1
    61   65   34 1
    62   66   37 1
    63    8   36 ar
    64    9   22 1
    65   11   36 ar
    66   17   24 ar
    67   17   31 ar
    68   25   33 ar
    69   26   39 ar
    70   38   40 ar
@<TRIPOS>SUBSTRUCTURE
     1 RES1 1

@<TRIPOS>CRYSIN
  14.7861   12.0082   15.9814  90.0000 105.1970  90.0000  13 1

