# MOL2 file generated by ConQuest
# Please check atom types

@<TRIPOS>MOLECULE
QOTGOV
    39    42     1
SMALL
NO_CHARGES
****
Generated from CSD

@<TRIPOS>ATOM
      1 O1         6.6189    0.1415   -1.1794 O.2       1 RES1    0.0000
      2 O2         8.6374   -0.6242   -1.1674 O.2       1 RES1    0.0000
      3 N1         9.9934    2.5588    0.9275 N.ar      1 RES1    0.0000
      4 N2         9.5037    4.5834    2.0053 N.3       1 RES1    0.0000
      5 H1         8.7648    5.3491    2.0329 H         1 RES1    0.0000
      6 N3         7.8136    0.2513   -0.9006 N.pl3     1 RES1    0.0000
      7 C1         9.1300    3.5420    1.2459 C.ar      1 RES1    0.0000
      8 C2         7.7768    3.5202    0.7758 C.ar      1 RES1    0.0000
      9 H2         7.2106    4.2390    0.9440 H         1 RES1    0.0000
     10 C3         7.3266    2.4484    0.0867 C.ar      1 RES1    0.0000
     11 H3         6.4405    2.3942   -0.1869 H         1 RES1    0.0000
     12 C4         8.2325    1.4255   -0.2033 C.ar      1 RES1    0.0000
     13 C5         9.5433    1.5690    0.2160 C.ar      1 RES1    0.0000
     14 H4        10.1491    0.9065   -0.0306 H         1 RES1    0.0000
     15 C6        10.7635    4.7302    2.7676 C.3       1 RES1    0.0000
     16 C7        10.6474    6.0916    3.4971 C.3       1 RES1    0.0000
     17 H5        10.5625    6.8084    2.8483 H         1 RES1    0.0000
     18 H6         9.8604    6.0976    4.0636 H         1 RES1    0.0000
     19 C8        11.9100    6.3026    4.3506 C.3       1 RES1    0.0000
     20 H7        11.8336    7.1542    4.8290 H         1 RES1    0.0000
     21 C9        13.1358    6.3462    3.4575 C.3       1 RES1    0.0000
     22 H8        13.0509    7.0629    2.8095 H         1 RES1    0.0000
     23 H9        13.9314    6.5082    3.9904 H         1 RES1    0.0000
     24 C10       13.2519    5.0159    2.7474 C.3       1 RES1    0.0000
     25 H10       14.0418    5.0370    2.1712 H         1 RES1    0.0000
     26 C11       12.0006    4.7858    1.8610 C.3       1 RES1    0.0000
     27 H11       11.9100    5.5098    1.2213 H         1 RES1    0.0000
     28 H12       12.0884    3.9540    1.3707 H         1 RES1    0.0000
     29 C12       10.9192    3.6095    3.7871 C.3       1 RES1    0.0000
     30 H13       10.9843    2.7585    3.3267 H         1 RES1    0.0000
     31 H14       10.1406    3.5830    4.3618 H         1 RES1    0.0000
     32 C13       12.1818    3.8264    4.6436 C.3       1 RES1    0.0000
     33 H15       12.2809    3.0971    5.2908 H         1 RES1    0.0000
     34 C14       12.0431    5.1673    5.3731 C.3       1 RES1    0.0000
     35 H16       12.8216    5.3180    5.9314 H         1 RES1    0.0000
     36 H17       11.2589    5.1488    5.9448 H         1 RES1    0.0000
     37 C15       13.4020    3.8885    3.7243 C.3       1 RES1    0.0000
     38 H18       14.2031    4.0208    4.2542 H         1 RES1    0.0000
     39 H19       13.4897    3.0508    3.2445 H         1 RES1    0.0000
@<TRIPOS>BOND
     1    1    6 2
     2    2    6 2
     3    3    7 ar
     4    4    5 1
     5    6   12 1
     6    7    4 1
     7    8    7 ar
     8    9    8 1
     9   10    8 ar
    10   11   10 1
    11   12   10 ar
    12   13    3 ar
    13   14   13 1
    14   15    4 1
    15   16   15 1
    16   17   16 1
    17   18   16 1
    18   19   16 1
    19   20   19 1
    20   21   19 1
    21   22   21 1
    22   23   21 1
    23   24   21 1
    24   25   24 1
    25   26   15 1
    26   27   26 1
    27   28   26 1
    28   29   15 1
    29   30   29 1
    30   31   29 1
    31   32   29 1
    32   33   32 1
    33   34   19 1
    34   35   34 1
    35   36   34 1
    36   37   24 1
    37   38   37 1
    38   39   37 1
    39   12   13 ar
    40   24   26 1
    41   32   34 1
    42   32   37 1
@<TRIPOS>SUBSTRUCTURE
     1 RES1 1

@<TRIPOS>CRYSIN
  28.3100    6.6120    7.4740  90.0000  90.0000  90.0000  29 1

