# MOL2 file generated by ConQuest
# Please check atom types

@<TRIPOS>MOLECULE
QOTGEL01
    37    38     1
SMALL
NO_CHARGES
****
Generated from CSD

@<TRIPOS>ATOM
      1 O1         5.6539    2.6661    2.8074 O.2       1 RES1    0.0000
      2 O2         7.6200    1.9044    2.4465 O.2       1 RES1    0.0000
      3 N1         9.3409    4.9321    4.4947 N.ar      1 RES1    0.0000
      4 N2         9.1130    6.9401    5.6103 N.3       1 RES1    0.0000
      5 H1         8.6241    7.6308    5.7683 H         1 RES1    0.0000
      6 N3         6.8656    2.7532    2.8975 N.pl3     1 RES1    0.0000
      7 C1         8.5479    5.9324    4.9121 C.ar      1 RES1    0.0000
      8 C2         7.1600    5.9511    4.6641 C.ar      1 RES1    0.0000
      9 H2         6.6370    6.6603    4.9640 H         1 RES1    0.0000
     10 C3         6.5896    4.9208    3.9811 C.ar      1 RES1    0.0000
     11 H3         5.6802    4.9135    3.7918 H         1 RES1    0.0000
     12 C4         7.4176    3.8838    3.5789 C.ar      1 RES1    0.0000
     13 C5         8.7713    3.9483    3.8323 C.ar      1 RES1    0.0000
     14 H4         9.3101    3.2584    3.5187 H         1 RES1    0.0000
     15 C6        10.4719    6.9574    6.1185 C.3       1 RES1    0.0000
     16 H5        11.0502    6.6038    5.4104 H         1 RES1    0.0000
     17 C7        10.8557    8.4078    6.3269 C.3       1 RES1    0.0000
     18 H6        10.7374    8.8724    5.4836 H         1 RES1    0.0000
     19 H7        10.2328    8.7953    6.9595 H         1 RES1    0.0000
     20 C8        12.2488    8.6903    6.8168 C.3       1 RES1    0.0000
     21 H8        12.8560    8.1785    6.2612 H         1 RES1    0.0000
     22 H9        12.4302    9.6269    6.6420 H         1 RES1    0.0000
     23 C9        12.6089    8.4357    8.1949 C.3       1 RES1    0.0000
     24 H10       13.2713    9.1044    8.4338 H         1 RES1    0.0000
     25 H11       13.0663    7.5802    8.2064 H         1 RES1    0.0000
     26 C10       11.6259    8.4018    9.2991 C.3       1 RES1    0.0000
     27 H12       12.1069    8.6418   10.1065 H         1 RES1    0.0000
     28 H13       10.9950    9.1184    9.1305 H         1 RES1    0.0000
     29 C11       10.8504    7.2299    9.6128 C.3       1 RES1    0.0000
     30 H14       10.2801    7.4633   10.3629 H         1 RES1    0.0000
     31 H15       11.4708    6.5579    9.9333 H         1 RES1    0.0000
     32 C12        9.9594    6.5513    8.5788 C.3       1 RES1    0.0000
     33 H16        9.5283    5.7955    9.0076 H         1 RES1    0.0000
     34 H17        9.2628    7.1768    8.3285 H         1 RES1    0.0000
     35 C13       10.6191    6.0508    7.3036 C.3       1 RES1    0.0000
     36 H18       11.5654    5.9205    7.4761 H         1 RES1    0.0000
     37 H19       10.2406    5.1860    7.0800 H         1 RES1    0.0000
@<TRIPOS>BOND
     1    1    6 2
     2    2    6 2
     3    3    7 ar
     4    4    5 1
     5    6   12 1
     6    7    4 1
     7    8    7 ar
     8    9    8 1
     9   10    8 ar
    10   11   10 1
    11   12   10 ar
    12   13    3 ar
    13   14   13 1
    14   15    4 1
    15   16   15 1
    16   17   15 1
    17   18   17 1
    18   19   17 1
    19   20   17 1
    20   21   20 1
    21   22   20 1
    22   23   20 1
    23   24   23 1
    24   25   23 1
    25   26   23 1
    26   27   26 1
    27   28   26 1
    28   29   26 1
    29   30   29 1
    30   31   29 1
    31   32   29 1
    32   33   32 1
    33   34   32 1
    34   35   15 1
    35   36   35 1
    36   37   35 1
    37   12   13 ar
    38   32   35 1
@<TRIPOS>SUBSTRUCTURE
     1 RES1 1

@<TRIPOS>CRYSIN
  26.2850    6.6470    7.6310  90.0000  90.0000  90.0000  29 1

