# MOL2 file generated by ConQuest
# Please check atom types

@<TRIPOS>MOLECULE
QOTGEL
    37    38     1
SMALL
NO_CHARGES
****
Generated from CSD

@<TRIPOS>ATOM
      1 O1         5.5988    2.6415    2.7425 O.2       1 RES1    0.0000
      2 O2         7.5784    1.8657    2.3980 O.2       1 RES1    0.0000
      3 N1         9.2944    4.9147    4.4559 N.ar      1 RES1    0.0000
      4 N2         9.0357    6.9304    5.5575 N.3       1 RES1    0.0000
      5 H1         8.5258    7.6252    5.7335 H         1 RES1    0.0000
      6 N3         6.8345    2.7305    2.8361 N.pl3     1 RES1    0.0000
      7 C1         8.4921    5.9328    4.8541 C.ar      1 RES1    0.0000
      8 C2         7.0963    5.9368    4.5882 C.ar      1 RES1    0.0000
      9 H2         6.5569    6.6616    4.8820 H         1 RES1    0.0000
     10 C3         6.5404    4.9054    3.9165 C.ar      1 RES1    0.0000
     11 H3         5.6113    4.8901    3.7239 H         1 RES1    0.0000
     12 C4         7.3761    3.8621    3.5153 C.ar      1 RES1    0.0000
     13 C5         8.7291    3.9271    3.7835 C.ar      1 RES1    0.0000
     14 H4         9.2839    3.2243    3.4670 H         1 RES1    0.0000
     15 C6        10.4177    6.9609    6.0606 C.3       1 RES1    0.0000
     16 H5        11.0203    6.6264    5.3353 H         1 RES1    0.0000
     17 C7        10.7533    8.4243    6.3175 C.3       1 RES1    0.0000
     18 H6        10.5868    8.9268    5.4812 H         1 RES1    0.0000
     19 H7        10.1201    8.7675    6.9967 H         1 RES1    0.0000
     20 C8        12.1621    8.7489    6.7859 C.3       1 RES1    0.0000
     21 H8        12.2717    9.7318    6.7527 H         1 RES1    0.0000
     22 H9        12.7963    8.3620    6.1294 H         1 RES1    0.0000
     23 C9        12.5870    8.2797    8.1730 C.3       1 RES1    0.0000
     24 H10       12.8660    7.3319    8.1065 H         1 RES1    0.0000
     25 H11       13.3817    8.8027    8.4465 H         1 RES1    0.0000
     26 C10       11.5514    8.3905    9.2655 C.3       1 RES1    0.0000
     27 H12       12.0029    8.7051   10.0874 H         1 RES1    0.0000
     28 H13       10.9016    9.0894    9.0018 H         1 RES1    0.0000
     29 C11       10.7841    7.1441    9.6047 C.3       1 RES1    0.0000
     30 H14       10.2282    7.3418   10.4010 H         1 RES1    0.0000
     31 H15       11.4392    6.4525    9.8721 H         1 RES1    0.0000
     32 C12        9.8641    6.5255    8.5417 C.3       1 RES1    0.0000
     33 H16        9.1853    7.2005    8.2886 H         1 RES1    0.0000
     34 H17        9.3842    5.7636    8.9527 H         1 RES1    0.0000
     35 C13       10.5505    6.0264    7.2566 C.3       1 RES1    0.0000
     36 H18       11.5125    5.8897    7.4455 H         1 RES1    0.0000
     37 H19       10.1656    5.1470    7.0141 H         1 RES1    0.0000
@<TRIPOS>BOND
     1    1    6 2
     2    2    6 2
     3    3    7 ar
     4    4    5 1
     5    6   12 1
     6    7    4 1
     7    8    7 ar
     8    9    8 1
     9   10    8 ar
    10   11   10 1
    11   12   10 ar
    12   13    3 ar
    13   14   13 1
    14   15    4 1
    15   16   15 1
    16   17   15 1
    17   18   17 1
    18   19   17 1
    19   20   17 1
    20   21   20 1
    21   22   20 1
    22   23   20 1
    23   24   23 1
    24   25   23 1
    25   26   23 1
    26   27   26 1
    27   28   26 1
    28   29   26 1
    29   30   29 1
    30   31   29 1
    31   32   29 1
    32   33   32 1
    33   34   32 1
    34   35   15 1
    35   36   35 1
    36   37   35 1
    37   12   13 ar
    38   32   35 1
@<TRIPOS>SUBSTRUCTURE
     1 RES1 1

@<TRIPOS>CRYSIN
  26.0990    6.6370    7.5550  90.0000  90.0000  90.0000  29 1

