# MOL2 file generated by ConQuest
# Please check atom types

@<TRIPOS>MOLECULE
QOTGEL03
    37    38     1
SMALL
NO_CHARGES
****
Generated from CSD

@<TRIPOS>ATOM
      1 C1        17.5474    2.6006    6.2175 C.ar      1 RES1    0.0000
      2 C2        18.9392    2.6206    5.9403 C.ar      1 RES1    0.0000
      3 H1        19.4555    3.3313    6.2047 H         1 RES1    0.0000
      4 C3        19.4935    1.5780    5.2791 C.ar      1 RES1    0.0000
      5 H2        20.3632    1.5561    5.1085 H         1 RES1    0.0000
      6 C4        18.6526    0.5342    4.8718 C.ar      1 RES1    0.0000
      7 C5        17.3008    0.5952    5.1521 C.ar      1 RES1    0.0000
      8 H3        16.7504   -0.1128    4.8523 H         1 RES1    0.0000
      9 C6        15.6271    3.6465    7.4137 C.3       1 RES1    0.0000
     10 H4        15.0520    3.3392    6.7254 H         1 RES1    0.0000
     11 C7        15.3045    5.1117    7.6894 C.3       1 RES1    0.0000
     12 H5        15.9363    5.4389    8.3837 H         1 RES1    0.0000
     13 H6        15.4892    5.6267    6.8577 H         1 RES1    0.0000
     14 C8        13.8904    5.4528    8.1470 C.3       1 RES1    0.0000
     15 H7        13.2677    5.0984    7.4820 H         1 RES1    0.0000
     16 H8        13.7993    6.4236    8.1372 H         1 RES1    0.0000
     17 C9        13.4412    4.9524    9.5257 C.3       1 RES1    0.0000
     18 H9        13.1819    4.0081    9.4461 H         1 RES1    0.0000
     19 H10       12.6461    5.4555    9.7962 H         1 RES1    0.0000
     20 C10       14.5003    5.0759   10.6400 C.3       1 RES1    0.0000
     21 H11       15.1430    5.7614   10.3770 H         1 RES1    0.0000
     22 H12       14.0558    5.3864   11.4507 H         1 RES1    0.0000
     23 C11       15.2684    3.8051   10.9721 C.3       1 RES1    0.0000
     24 H13       14.5968    3.1050   11.2449 H         1 RES1    0.0000
     25 H14       15.8401    3.9969   11.7806 H         1 RES1    0.0000
     26 C12       16.1733    3.1859    9.9029 C.3       1 RES1    0.0000
     27 H15       16.6490    2.4115   10.3087 H         1 RES1    0.0000
     28 H16       16.8623    3.8582    9.6527 H         1 RES1    0.0000
     29 C13       15.4856    2.7035    8.6158 C.3       1 RES1    0.0000
     30 H17       15.8531    1.8402    8.3747 H         1 RES1    0.0000
     31 H18       14.5422    2.5781    8.7992 H         1 RES1    0.0000
     32 N1        16.7356    1.5913    5.8207 N.ar      1 RES1    0.0000
     33 N2        17.0012    3.6113    6.9153 N.3       1 RES1    0.0000
     34 H19       17.4995    4.2935    7.0823 H         1 RES1    0.0000
     35 N3        19.1956   -0.6079    4.2087 N.pl3     1 RES1    0.0000
     36 O1        20.4249   -0.6888    4.0999 O.2       1 RES1    0.0000
     37 O2        18.4364   -1.4632    3.7651 O.2       1 RES1    0.0000
@<TRIPOS>BOND
     1    1    2 ar
     2    2    3 1
     3    4    2 ar
     4    5    4 1
     5    6    4 ar
     6    7    6 ar
     7    8    7 1
     8    9   10 1
     9   11    9 1
    10   12   11 1
    11   13   11 1
    12   14   11 1
    13   15   14 1
    14   16   14 1
    15   17   14 1
    16   18   17 1
    17   19   17 1
    18   20   17 1
    19   21   20 1
    20   22   20 1
    21   23   20 1
    22   24   23 1
    23   25   23 1
    24   26   23 1
    25   27   26 1
    26   28   26 1
    27   29    9 1
    28   30   29 1
    29   31   29 1
    30   32    1 ar
    31   33    1 1
    32   34   33 1
    33   35    6 1
    34   36   35 2
    35   37   35 2
    36    7   32 ar
    37    9   33 1
    38   26   29 1
@<TRIPOS>SUBSTRUCTURE
     1 RES1 1

@<TRIPOS>CRYSIN
  26.0100    6.6360    7.5136  90.0000  90.0000  90.0000  29 1

