# MOL2 file generated by ConQuest
# Please check atom types

@<TRIPOS>MOLECULE
QOTMOB
   100   104     2
SMALL
NO_CHARGES
****
Generated from CSD

@<TRIPOS>ATOM
      1 O1        -3.5383   17.3180   23.2393 O.2       1 RES1    0.0000
      2 N1        -2.2946   16.5628   21.5239 N.am      1 RES1    0.0000
      3 H1        -1.8888   16.7339   20.8006 H         1 RES1    0.0000
      4 O2        -0.8137   17.2862   19.1240 O.2       2 RES2    0.0000
      5 N2         0.6633   18.1201   17.6342 N.am      2 RES2    0.0000
      6 H2         1.1967   17.9462   17.0500 H         2 RES2    0.0000
      7 C1         0.3225   20.5731   17.4743 C.ar      2 RES2    0.0000
      8 C2        -2.6940   14.1610   21.0248 C.ar      1 RES1    0.0000
      9 O3        -2.6022   23.7063   20.5840 O.2       1 RES1    0.0000
     10 N3        -3.1878   22.7956   19.9863 N.pl3     1 RES1    0.0000
     11 O4         0.4419   12.0746   14.2123 O.2       2 RES2    0.0000
     12 N4        -0.0748   12.1307   15.3345 N.pl3     2 RES2    0.0000
     13 C3        -3.6281   14.5017   20.0744 C.ar      1 RES1    0.0000
     14 H3        -4.0648   15.3993   20.1282 H         1 RES1    0.0000
     15 C4        -0.3481   21.6140   18.0810 C.ar      2 RES2    0.0000
     16 H4        -0.4361   21.5223   19.0673 H         2 RES2    0.0000
     17 O5        -3.8199   22.9645   18.9552 O.2       1 RES1    0.0000
     18 O6        -0.5228   11.1559   15.9188 O.2       2 RES2    0.0000
     19 C5        -4.1100   13.5713   19.1674 C.ar      1 RES1    0.0000
     20 H5        -4.6651   13.7969   18.5443 H         1 RES1    0.0000
     21 C6        -0.8158   22.7089   17.3742 C.ar      2 RES2    0.0000
     22 H6        -1.2702   23.5430   17.8419 H         2 RES2    0.0000
     23 C7        -3.6732   12.2626   19.1973 C.ar      1 RES1    0.0000
     24 H7        -3.9799   11.5600   18.5144 H         1 RES1    0.0000
     25 C8        -0.6043   22.7723   16.0144 C.ar      2 RES2    0.0000
     26 H8        -0.9168   23.5665   15.4660 H         2 RES2    0.0000
     27 C9        -2.7621   11.9148   20.1581 C.ar      1 RES1    0.0000
     28 H9        -2.4019   10.9961   20.2179 H         1 RES1    0.0000
     29 C10        0.0648   21.7479   15.3644 C.ar      2 RES2    0.0000
     30 H10        0.2387   21.7573   14.3901 H         2 RES2    0.0000
     31 C11        0.5058   20.6600   16.0996 C.ar      2 RES2    0.0000
     32 H11        0.9306   19.9998   15.7051 H         2 RES2    0.0000
     33 C12       -2.2533   12.8476   21.0577 C.ar      1 RES1    0.0000
     34 H12       -1.6091   12.6174   21.8168 H         1 RES1    0.0000
     35 C13       -2.1608   15.1871   22.0290 C.3       1 RES1    0.0000
     36 H13       -2.7625   15.0703   22.8777 H         1 RES1    0.0000
     37 C14        0.8473   19.4333   18.2902 C.3       2 RES2    0.0000
     38 H14        0.4077   19.3631   19.2167 H         2 RES2    0.0000
     39 C15       -0.7268   14.9458   22.4489 C.3       1 RES1    0.0000
     40 H15       -0.0468   14.8025   21.6972 H         1 RES1    0.0000
     41 C16        2.3389   19.5787   18.5771 C.3       2 RES2    0.0000
     42 H16        2.8501   19.5252   17.8270 H         2 RES2    0.0000
     43 C17        2.9003   20.4721   19.6575 C.3       2 RES2    0.0000
     44 H17        3.8423   21.0078   19.5454 H         2 RES2    0.0000
     45 H18        2.2543   20.8691   20.1581 H         2 RES2    0.0000
     46 C18       -0.4237   14.1093   23.6921 C.3       1 RES1    0.0000
     47 H19       -1.2038   13.6982   24.1778 H         1 RES1    0.0000
     48 H20        0.4344   13.4867   23.6697 H         1 RES1    0.0000
     49 C19       -0.1870   15.6084   23.6846 C.3       1 RES1    0.0000
     50 H21       -0.8255   16.1371   24.1778 H         1 RES1    0.0000
     51 C20        2.9353   18.9542   19.8249 C.3       2 RES2    0.0000
     52 H22        2.2060   18.5900   20.4271 H         2 RES2    0.0000
     53 C21        1.2042   16.1676   23.6607 C.3       1 RES1    0.0000
     54 H23        1.6042   16.2169   24.5812 H         1 RES1    0.0000
     55 H24        1.8548   15.4909   23.2513 H         1 RES1    0.0000
     56 C22        4.2013   18.1648   19.6993 C.3       2 RES2    0.0000
     57 H25        4.5955   18.1248   20.5765 H         2 RES2    0.0000
     58 H26        4.9625   18.6793   19.1868 H         2 RES2    0.0000
     59 C23        3.9659   16.7738   19.1405 C.3       2 RES2    0.0000
     60 H27        4.9052   16.2710   18.9776 H         2 RES2    0.0000
     61 H28        3.6044   16.9618   18.2304 H         2 RES2    0.0000
     62 C24        1.2947   17.5304   23.0047 C.3       1 RES1    0.0000
     63 H29        0.8718   17.4928   22.0857 H         1 RES1    0.0000
     64 H30        2.2267   17.7418   22.8329 H         1 RES1    0.0000
     65 C25        0.6364   18.6535   23.7788 C.3       1 RES1    0.0000
     66 H31       -0.3490   18.4115   23.9387 H         1 RES1    0.0000
     67 H32        1.0512   18.6629   24.6709 H         1 RES1    0.0000
     68 C26        3.0757   15.8974   19.9728 C.3       2 RES2    0.0000
     69 H33        3.4512   15.8833   20.8754 H         2 RES2    0.0000
     70 H34        2.2481   16.3767   20.2029 H         2 RES2    0.0000
     71 C27        2.8653   14.4970   19.4289 C.3       2 RES2    0.0000
     72 H35        3.6250   13.9566   19.3213 H         2 RES2    0.0000
     73 H36        2.4615   14.6615   18.3649 H         2 RES2    0.0000
     74 C28        0.7397   20.0021   23.0780 C.3       1 RES1    0.0000
     75 H37        0.1983   20.7235   23.5800 H         1 RES1    0.0000
     76 H38        0.2798   19.9951   22.1455 H         1 RES1    0.0000
     77 H39        1.6542   20.2301   22.9076 H         1 RES1    0.0000
     78 C29       -2.9481   17.5186   22.1634 C.2       1 RES1    0.0000
     79 C30       -0.1240   17.1450   18.1094 C.2       2 RES2    0.0000
     80 C31       -2.9529   18.9002   21.5627 C.ar      1 RES1    0.0000
     81 C32       -0.1120   15.8549   17.3503 C.ar      2 RES2    0.0000
     82 C33        0.3267   15.7658   16.0353 C.ar      2 RES2    0.0000
     83 H40        0.4971   16.5882   15.4809 H         2 RES2    0.0000
     84 C34       -2.7375   19.9880   22.3891 C.ar      1 RES1    0.0000
     85 H41       -2.5159   19.7836   23.3559 H         1 RES1    0.0000
     86 C35        0.3128   14.5511   15.3689 C.ar      2 RES2    0.0000
     87 H42        0.6261   14.4524   14.4798 H         2 RES2    0.0000
     88 C36       -2.7622   21.2686   21.8691 C.ar      1 RES1    0.0000
     89 H43       -2.5315   22.0158   22.3846 H         1 RES1    0.0000
     90 C37       -3.0894   21.4354   20.5436 C.ar      1 RES1    0.0000
     91 C38       -0.0968   13.4233   16.0264 C.ar      2 RES2    0.0000
     92 C39       -3.3192   20.3734   19.6964 C.ar      1 RES1    0.0000
     93 H44       -3.5551   20.5637   18.7236 H         1 RES1    0.0000
     94 C40       -0.5631   13.4844   17.3294 C.ar      2 RES2    0.0000
     95 H45       -0.8016   12.7113   17.7373 H         2 RES2    0.0000
     96 C41       -0.5626   14.7014   17.9764 C.ar      2 RES2    0.0000
     97 H46       -0.9037   14.8072   18.9328 H         2 RES2    0.0000
     98 C42       -3.2122   19.0882   20.2149 C.ar      1 RES1    0.0000
     99 H47       -3.4380   18.3856   19.6650 H         1 RES1    0.0000
    100 H48        2.1813   14.0741   19.8293 H         2 RES2    0.0000
@<TRIPOS>BOND
     1    1   78 2
     2    2    3 1
     3    4   79 2
     4    5    6 1
     5    7   15 ar
     6    8   13 ar
     7    9   10 2
     8   10   17 2
     9   11   12 2
    10   12   18 2
    11   13   14 1
    12   15   16 1
    13   19   13 ar
    14   20   19 1
    15   21   15 ar
    16   22   21 1
    17   23   19 ar
    18   24   23 1
    19   25   21 ar
    20   26   25 1
    21   27   23 ar
    22   28   27 1
    23   29   25 ar
    24   30   29 1
    25   31    7 ar
    26   32   31 1
    27   33    8 ar
    28   34   33 1
    29   35    2 1
    30   36   35 1
    31   37    5 1
    32   38   37 1
    33   39   35 1
    34   40   39 1
    35   41   37 1
    36   42   41 1
    37   43   41 1
    38   44   43 1
    39   45   43 1
    40   46   39 1
    41   47   46 1
    42   48   46 1
    43   49   39 1
    44   50   49 1
    45   51   41 1
    46   52   51 1
    47   53   49 1
    48   54   53 1
    49   55   53 1
    50   56   51 1
    51   57   56 1
    52   58   56 1
    53   59   56 1
    54   60   59 1
    55   61   59 1
    56   62   53 1
    57   63   62 1
    58   64   62 1
    59   65   62 1
    60   66   65 1
    61   67   65 1
    62   68   59 1
    63   69   68 1
    64   70   68 1
    65   71   68 1
    66   72   71 1
    67   73   71 1
    68   74   65 1
    69   75   74 1
    70   76   74 1
    71   77   74 1
    72   78    2 1
    73   79    5 1
    74   80   78 1
    75   81   79 1
    76   82   81 ar
    77   83   82 1
    78   84   80 ar
    79   85   84 1
    80   86   82 ar
    81   87   86 1
    82   88   84 ar
    83   89   88 1
    84   90   10 1
    85   91   12 1
    86   92   90 ar
    87   93   92 1
    88   94   91 ar
    89   95   94 1
    90   96   81 ar
    91   97   96 1
    92   98   80 ar
    93   99   98 1
    94  100   71 1
    95    7   37 1
    96    8   35 1
    97   27   33 ar
    98   29   31 ar
    99   43   51 1
   100   46   49 1
   101   86   91 ar
   102   88   90 ar
   103   92   98 ar
   104   94   96 ar
@<TRIPOS>SUBSTRUCTURE
     1 RES1 1
     2 RES2 4

@<TRIPOS>CRYSIN
  10.8090   23.4960   15.0880  90.0000  97.9500  90.0000 231 1

