# MOL2 file generated by ConQuest
# Please check atom types

@<TRIPOS>MOLECULE
QOTRIB
    88    92     2
SMALL
NO_CHARGES
****
Generated from CSD

@<TRIPOS>ATOM
      1 O1         6.6712    3.3799    5.4244 O.2       1 RES1    0.0000
      2 O2         5.2004    3.5169    3.8546 O.2       1 RES1    0.0000
      3 O3         2.8315   -0.2141    2.2176 O.2       1 RES1    0.0000
      4 O4         3.2081   -2.1935    3.0367 O.2       1 RES1    0.0000
      5 N1         7.5709    1.0607    6.1669 N.pl3     1 RES1    0.0000
      6 H1         7.5882    1.9260    6.2131 H         1 RES1    0.0000
      7 N2         8.2727    0.2044    6.9687 N.2       1 RES1    0.0000
      8 N3         5.8724    2.8547    4.6313 N.pl3     1 RES1    0.0000
      9 N4         3.4659   -0.9923    2.9323 N.pl3     1 RES1    0.0000
     10 C1         6.5826    0.5678    5.3775 C.ar      1 RES1    0.0000
     11 C2         6.3550   -0.8250    5.2802 C.ar      1 RES1    0.0000
     12 H2         6.8982   -1.4210    5.7831 H         1 RES1    0.0000
     13 C3         5.3688   -1.3324    4.4775 C.ar      1 RES1    0.0000
     14 H3         5.2326   -2.2712    4.4242 H         1 RES1    0.0000
     15 C4         4.5603   -0.4604    3.7359 C.ar      1 RES1    0.0000
     16 C5         4.7442    0.8997    3.7780 C.ar      1 RES1    0.0000
     17 H4         4.2030    1.4793    3.2537 H         1 RES1    0.0000
     18 C6         5.7420    1.4125    4.6051 C.ar      1 RES1    0.0000
     19 C7         9.1717    0.7317    7.7395 C.2       1 RES1    0.0000
     20 C8         9.8839   -0.2310    8.6030 C.ar      1 RES1    0.0000
     21 C9         9.3886   -1.5352    8.7304 C.ar      1 RES1    0.0000
     22 H5         8.5636   -1.7617    8.3171 H         1 RES1    0.0000
     23 C10       10.0748   -2.4974    9.4448 C.ar      1 RES1    0.0000
     24 H6         9.7230   -3.3784    9.5014 H         1 RES1    0.0000
     25 C11       11.2846   -2.1947   10.0893 C.ar      1 RES1    0.0000
     26 C12       11.7566   -0.8856    9.9994 C.ar      1 RES1    0.0000
     27 H7        12.5622   -0.6515   10.4441 H         1 RES1    0.0000
     28 C13       11.0717    0.0871    9.2698 C.ar      1 RES1    0.0000
     29 H8        11.4148    0.9712    9.2254 H         1 RES1    0.0000
     30 C14       12.0223   -3.2444   10.8334 C.ar      1 RES1    0.0000
     31 C15       11.9644   -4.5810   10.4278 C.ar      1 RES1    0.0000
     32 H9        11.4539   -4.8174    9.6623 H         1 RES1    0.0000
     33 C16       12.6417   -5.5657   11.1319 C.ar      1 RES1    0.0000
     34 H10       12.5848   -6.4700   10.8488 H         1 RES1    0.0000
     35 C17       13.3982   -5.2422   12.2386 C.ar      1 RES1    0.0000
     36 H11       13.8757   -5.9171   12.7045 H         1 RES1    0.0000
     37 C18       13.4570   -3.9237   12.6656 C.ar      1 RES1    0.0000
     38 H12       13.9657   -3.6967   13.4357 H         1 RES1    0.0000
     39 C19       12.7742   -2.9360   11.9701 C.ar      1 RES1    0.0000
     40 H13       12.8191   -2.0366   12.2699 H         1 RES1    0.0000
     41 C20        9.4998    2.1984    7.7768 C.3       1 RES1    0.0000
     42 H14        8.6858    2.7105    7.9653 H         1 RES1    0.0000
     43 H15        9.8646    2.4744    6.9099 H         1 RES1    0.0000
     44 H16       10.1623    2.3668    8.4781 H         1 RES1    0.0000
     45 O5         1.5425    3.9383    5.3474 O.2       2 RES2    0.0000
     46 O6         3.3340    3.7299    6.5334 O.2       2 RES2    0.0000
     47 O7         5.0794    7.2943    9.1574 O.2       2 RES2    0.0000
     48 O8         4.6022    9.3266    8.5521 O.2       2 RES2    0.0000
     49 N5         0.4342    6.2656    5.0061 N.pl3     2 RES2    0.0000
     50 H17        0.4207    5.5017    4.8312 H         2 RES2    0.0000
     51 N6        -0.3797    7.1885    4.4005 N.2       2 RES2    0.0000
     52 N7         2.4203    4.4177    6.0901 N.pl3     2 RES2    0.0000
     53 N8         4.4149    8.1103    8.5131 N.pl3     2 RES2    0.0000
     54 C21        1.4009    6.6910    5.8496 C.ar      2 RES2    0.0000
     55 C22        1.4879    8.0603    6.2115 C.ar      2 RES2    0.0000
     56 H18        0.8645    8.6784    5.8475 H         2 RES2    0.0000
     57 C23        2.4506    8.5103    7.0727 C.ar      2 RES2    0.0000
     58 H19        2.4983    9.4330    7.2916 H         2 RES2    0.0000
     59 C24        3.3651    7.6090    7.6301 C.ar      2 RES2    0.0000
     60 C25        3.3330    6.2751    7.3219 C.ar      2 RES2    0.0000
     61 H20        3.9567    5.6736    7.7124 H         2 RES2    0.0000
     62 C26        2.3715    5.8155    6.4274 C.ar      2 RES2    0.0000
     63 C27       -1.2907    6.7247    3.6072 C.2       2 RES2    0.0000
     64 C28       -2.1048    7.7586    2.9231 C.ar      2 RES2    0.0000
     65 C29       -2.0691    9.0846    3.3623 C.ar      2 RES2    0.0000
     66 H21       -1.5275    9.3165    4.1068 H         2 RES2    0.0000
     67 C30       -2.8086   10.0640    2.7299 C.ar      2 RES2    0.0000
     68 H22       -2.7766   10.9556    3.0583 H         2 RES2    0.0000
     69 C31       -3.6053    9.7716    1.6151 C.ar      2 RES2    0.0000
     70 C32       -3.6223    8.4434    1.1663 C.ar      2 RES2    0.0000
     71 H23       -4.1404    8.2152    0.4024 H         2 RES2    0.0000
     72 C33       -2.8973    7.4550    1.8159 C.ar      2 RES2    0.0000
     73 H24       -2.9412    6.5596    1.5015 H         2 RES2    0.0000
     74 C34       -4.3716   10.8341    0.9152 C.ar      2 RES2    0.0000
     75 C35       -3.8600   12.1355    0.8331 C.ar      2 RES2    0.0000
     76 H25       -3.0359   12.3467    1.2578 H         2 RES2    0.0000
     77 C36       -4.5504   13.1206    0.1350 C.ar      2 RES2    0.0000
     78 H26       -4.1907   13.9979    0.0759 H         2 RES2    0.0000
     79 C37       -5.7575   12.8280   -0.4758 C.ar      2 RES2    0.0000
     80 H27       -6.2214   13.5033   -0.9566 H         2 RES2    0.0000
     81 C38       -6.2927   11.5509   -0.3858 C.ar      2 RES2    0.0000
     82 H28       -7.1278   11.3531   -0.7933 H         2 RES2    0.0000
     83 C39       -5.5986   10.5644    0.3021 C.ar      2 RES2    0.0000
     84 H29       -5.9654    9.6900    0.3564 H         2 RES2    0.0000
     85 C40       -1.5330    5.2662    3.3390 C.3       2 RES2    0.0000
     86 H30       -1.4142    4.7576    4.1689 H         2 RES2    0.0000
     87 H31       -0.8962    4.9474    2.6651 H         2 RES2    0.0000
     88 H32       -2.4474    5.1416    3.0077 H         2 RES2    0.0000
@<TRIPOS>BOND
     1    1    8 2
     2    2    8 2
     3    3    9 2
     4    4    9 2
     5    5    6 1
     6    7    5 1
     7    8   18 1
     8    9   15 1
     9   10    5 1
    10   11   10 ar
    11   12   11 1
    12   13   11 ar
    13   14   13 1
    14   15   13 ar
    15   16   15 ar
    16   17   16 1
    17   18   10 ar
    18   19    7 2
    19   20   19 1
    20   21   20 ar
    21   22   21 1
    22   23   21 ar
    23   24   23 1
    24   25   23 ar
    25   26   25 ar
    26   27   26 1
    27   28   20 ar
    28   29   28 1
    29   30   25 1
    30   31   30 ar
    31   32   31 1
    32   33   31 ar
    33   34   33 1
    34   35   33 ar
    35   36   35 1
    36   37   35 ar
    37   38   37 1
    38   39   30 ar
    39   40   39 1
    40   41   19 1
    41   42   41 1
    42   43   41 1
    43   44   41 1
    44   45   52 2
    45   46   52 2
    46   47   53 2
    47   48   53 2
    48   49   50 1
    49   51   49 1
    50   52   62 1
    51   53   59 1
    52   54   49 1
    53   55   54 ar
    54   56   55 1
    55   57   55 ar
    56   58   57 1
    57   59   57 ar
    58   60   59 ar
    59   61   60 1
    60   62   54 ar
    61   63   51 2
    62   64   63 1
    63   65   64 ar
    64   66   65 1
    65   67   65 ar
    66   68   67 1
    67   69   67 ar
    68   70   69 ar
    69   71   70 1
    70   72   64 ar
    71   73   72 1
    72   74   69 1
    73   75   74 ar
    74   76   75 1
    75   77   75 ar
    76   78   77 1
    77   79   77 ar
    78   80   79 1
    79   81   79 ar
    80   82   81 1
    81   83   74 ar
    82   84   83 1
    83   85   63 1
    84   86   85 1
    85   87   85 1
    86   88   85 1
    87   16   18 ar
    88   26   28 ar
    89   37   39 ar
    90   60   62 ar
    91   70   72 ar
    92   81   83 ar
@<TRIPOS>SUBSTRUCTURE
     1 RES1 1
     2 RES2 45

@<TRIPOS>CRYSIN
  10.0108   14.9422   23.3401  90.0000  99.8710  90.0000 231 1

