# MOL2 file generated by ConQuest
# Please check atom types

@<TRIPOS>MOLECULE
QOTSUO
    50    50     2
SMALL
NO_CHARGES
****
Generated from CSD

@<TRIPOS>ATOM
      1 O1         5.1652    2.5673    6.6779 O.2       1 RES1    0.0000
      2 O2         4.4578    3.2336    4.7644 O.2       1 RES1    0.0000
      3 O3         1.5050    6.8370    4.3035 O.3       1 RES1    0.0000
      4 H1         1.2501    7.4626    3.8387 H         1 RES1    0.0000
      5 O4         4.7820    5.4454   10.5968 O.3       1 RES1    0.0000
      6 H2         4.7585    4.6259   10.6051 H         1 RES1    0.0000
      7 N1         4.5588    3.3578    5.9725 N.pl3     1 RES1    0.0000
      8 C1         3.8881    4.5013    6.6156 C.ar      1 RES1    0.0000
      9 C2         3.0783    5.3083    5.8479 C.ar      1 RES1    0.0000
     10 H3         2.9896    5.1611    4.9334 H         1 RES1    0.0000
     11 C3         2.3979    6.3458    6.4687 C.ar      1 RES1    0.0000
     12 C4         2.5452    6.5647    7.8503 C.ar      1 RES1    0.0000
     13 C5         3.4016    5.7384    8.5913 C.ar      1 RES1    0.0000
     14 C6         4.0689    4.6972    7.9639 C.ar      1 RES1    0.0000
     15 H4         4.6318    4.1384    8.4488 H         1 RES1    0.0000
     16 C7         1.7751    7.6717    8.5278 C.3       1 RES1    0.0000
     17 H5         1.0456    7.2954    9.0263 H         1 RES1    0.0000
     18 H6         1.4317    8.2753    7.8641 H         1 RES1    0.0000
     19 H7         2.3567    8.1482    9.1240 H         1 RES1    0.0000
     20 C8         1.4708    7.2168    5.6637 C.3       1 RES1    0.0000
     21 H8         0.5656    7.1306    6.0036 H         1 RES1    0.0000
     22 H9         1.7379    8.1446    5.7494 H         1 RES1    0.0000
     23 C9         3.5699    5.9442   10.0851 C.3       1 RES1    0.0000
     24 H10        3.5171    6.8932   10.2776 H         1 RES1    0.0000
     25 H11        2.8344    5.5096   10.5448 H         1 RES1    0.0000
     26 O5         4.0236    5.2184   14.6505 O.2       2 RES2    0.0000
     27 O6         4.4343    4.3922   16.5769 O.2       2 RES2    0.0000
     28 O7         7.3302    0.6454   17.2010 O.3       2 RES2    0.0000
     29 H12        7.8394    1.2048   17.5167 H         2 RES2    0.0000
     30 O8         4.9822    2.7767   10.6346 O.3       2 RES2    0.0000
     31 H13        4.2843    2.3464   10.6095 H         2 RES2    0.0000
     32 N2         4.5261    4.3699   15.3687 N.pl3     2 RES2    0.0000
     33 C10        5.2895    3.2800   14.7410 C.ar      2 RES2    0.0000
     34 C11        6.0081    2.4259   15.5500 C.ar      2 RES2    0.0000
     35 H14        5.9910    2.5197   16.4752 H         2 RES2    0.0000
     36 C12        6.7580    1.4240   14.9541 C.ar      2 RES2    0.0000
     37 C13        6.7681    1.2868   13.5576 C.ar      2 RES2    0.0000
     38 C14        5.9973    2.1554   12.7742 C.ar      2 RES2    0.0000
     39 C15        5.2626    3.1633   13.3745 C.ar      2 RES2    0.0000
     40 H15        4.7597    3.7520   12.8592 H         2 RES2    0.0000
     41 C16        7.6048    0.2116   12.9043 C.3       2 RES2    0.0000
     42 H16        7.0601   -0.2922   12.2961 H         2 RES2    0.0000
     43 H17        7.9575   -0.3736   13.5790 H         2 RES2    0.0000
     44 H18        8.3288    0.6182   12.4225 H         2 RES2    0.0000
     45 C17        7.5902    0.4985   15.8162 C.3       2 RES2    0.0000
     46 H19        7.4112   -0.4192   15.5572 H         2 RES2    0.0000
     47 H20        8.5298    0.6743   15.6520 H         2 RES2    0.0000
     48 C18        5.9855    2.0085   11.2648 C.3       2 RES2    0.0000
     49 H21        6.8503    2.2759   10.9169 H         2 RES2    0.0000
     50 H22        5.8529    1.0744   11.0404 H         2 RES2    0.0000
@<TRIPOS>BOND
     1    1    7 2
     2    2    7 2
     3    3    4 1
     4    5    6 1
     5    7    8 1
     6    8    9 ar
     7    9   10 1
     8   11    9 ar
     9   12   11 ar
    10   13   12 ar
    11   14    8 ar
    12   15   14 1
    13   16   12 1
    14   17   16 1
    15   18   16 1
    16   19   16 1
    17   20    3 1
    18   21   20 1
    19   22   20 1
    20   23    5 1
    21   24   23 1
    22   25   23 1
    23   26   32 2
    24   27   32 2
    25   28   29 1
    26   30   31 1
    27   32   33 1
    28   33   34 ar
    29   34   35 1
    30   36   34 ar
    31   37   36 ar
    32   38   37 ar
    33   39   33 ar
    34   40   39 1
    35   41   37 1
    36   42   41 1
    37   43   41 1
    38   44   41 1
    39   45   28 1
    40   46   45 1
    41   47   45 1
    42   48   30 1
    43   49   48 1
    44   50   48 1
    45   11   20 1
    46   13   14 ar
    47   13   23 1
    48   36   45 1
    49   38   39 ar
    50   38   48 1
@<TRIPOS>SUBSTRUCTURE
     1 RES1 1
     2 RES2 26

@<TRIPOS>CRYSIN
   7.8446    8.5168   14.4680  88.4410  83.2350  70.9190   2 1

