# MOL2 file generated by ConQuest
# Please check atom types

@<TRIPOS>MOLECULE
QOTVIE
    33    36     1
SMALL
NO_CHARGES
****
Generated from CSD

@<TRIPOS>ATOM
      1 O1         0.4495    5.3908    4.3050 O.3       1 RES1    0.0000
      2 O2         0.5599    3.4202    5.3878 O.2       1 RES1    0.0000
      3 O3         2.1291    8.6260   10.0894 O.2       1 RES1    0.0000
      4 O4         0.9033    7.2339   11.1954 O.2       1 RES1    0.0000
      5 N1         1.4163    7.6338   10.1618 N.pl3     1 RES1    0.0000
      6 C1         1.5361    4.1874    2.4319 C.3       1 RES1    0.0000
      7 C2         0.2648    4.6935    3.0283 C.3       1 RES1    0.0000
      8 C3         0.2410    5.7669    1.9050 C.3       1 RES1    0.0000
      9 C4         1.7338    5.4295    1.5807 C.3       1 RES1    0.0000
     10 C5         2.0952    4.8884    0.2200 C.2       1 RES1    0.0000
     11 C6         2.0253    3.5826    0.1940 C.2       1 RES1    0.0000
     12 C7         1.6227    3.0015    1.4939 C.3       1 RES1    0.0000
     13 C8         2.5440    3.1215    2.6838 C.3       1 RES1    0.0000
     14 C9         0.5859    4.6310    5.3907 C.2       1 RES1    0.0000
     15 C10        0.7691    5.4483    6.6240 C.ar      1 RES1    0.0000
     16 C11        1.1797    6.7703    6.5574 C.ar      1 RES1    0.0000
     17 C12        1.3968    7.4876    7.7183 C.ar      1 RES1    0.0000
     18 C13        1.1659    6.8716    8.9256 C.ar      1 RES1    0.0000
     19 C14        0.7352    5.5670    9.0298 C.ar      1 RES1    0.0000
     20 C15        0.5512    4.8484    7.8573 C.ar      1 RES1    0.0000
     21 H1        -0.5137    4.0712    3.1383 H         1 RES1    0.0000
     22 H2        -0.3607    5.4170    1.0654 H         1 RES1    0.0000
     23 H3         0.0606    6.6954    2.2408 H         1 RES1    0.0000
     24 H4         2.3413    6.1430    1.9658 H         1 RES1    0.0000
     25 H5         2.3882    5.4820   -0.4545 H         1 RES1    0.0000
     26 H6         2.1472    3.0065   -0.6340 H         1 RES1    0.0000
     27 H7         0.9149    2.2055    1.5228 H         1 RES1    0.0000
     28 H8         2.3449    2.5217    3.5060 H         1 RES1    0.0000
     29 H9         3.4466    3.4414    2.5419 H         1 RES1    0.0000
     30 H10        1.3420    7.1440    5.7265 H         1 RES1    0.0000
     31 H11        1.7049    8.3898    7.6807 H         1 RES1    0.0000
     32 H12        0.5938    5.2296    9.8491 H         1 RES1    0.0000
     33 H13        0.2540    3.9162    7.9065 H         1 RES1    0.0000
@<TRIPOS>BOND
     1    1    7 1
     2    2   14 2
     3    3    5 2
     4    4    5 2
     5    5   18 1
     6    6    7 1
     7    7    8 1
     8    8    9 1
     9    9    6 1
    10   10    9 1
    11   11   10 2
    12   12    6 1
    13   13    6 1
    14   14    1 1
    15   15   14 1
    16   16   15 ar
    17   17   16 ar
    18   18   17 ar
    19   19   18 ar
    20   20   15 ar
    21   21    7 1
    22   22    8 1
    23   23    8 1
    24   24    9 1
    25   25   10 1
    26   26   11 1
    27   27   12 1
    28   28   13 1
    29   29   13 1
    30   30   16 1
    31   31   17 1
    32   32   19 1
    33   33   20 1
    34   11   12 1
    35   12   13 1
    36   19   20 ar
@<TRIPOS>SUBSTRUCTURE
     1 RES1 1

@<TRIPOS>CRYSIN
   7.2150   12.4960   28.9510  90.0000  90.0000  90.0000  61 1

