# MOL2 file generated by ConQuest
# Please check atom types

@<TRIPOS>MOLECULE
QOVBAG
   156   140     3
SMALL
NO_CHARGES
****
Generated from CSD

@<TRIPOS>ATOM
      1 N1         3.9276    5.9192    8.9353 N.3       1 RES1    0.0000
      2 C1         4.2517    4.7801    9.8054 C.3       1 RES1    0.0000
      3 H1         5.2149    4.6607    9.8190 H         1 RES1    0.0000
      4 H2         3.8612    3.9762    9.4272 H         1 RES1    0.0000
      5 C2         3.7590    4.9410   11.2280 C.3       1 RES1    0.0000
      6 H3         3.9934    4.1519   11.7417 H         1 RES1    0.0000
      7 H4         4.1952    5.7053   11.6358 H         1 RES1    0.0000
      8 N2         2.3155    5.1305   11.2637 N.3       1 RES1    0.0000
      9 H5         2.1267    5.8954   10.6681 H         1 RES1    0.0000
     10 C3         1.8216    5.3673   12.6206 C.3       1 RES1    0.0000
     11 H6         2.3065    6.1125   13.0101 H         1 RES1    0.0000
     12 H7         1.9974    4.5829   13.1646 H         1 RES1    0.0000
     13 C4         0.3406    5.6698   12.6530 C.3       1 RES1    0.0000
     14 H8         0.0586    5.7372   13.5776 H         1 RES1    0.0000
     15 H9        -0.1360    4.9249   12.2541 H         1 RES1    0.0000
     16 C5        -0.0614    6.9482   11.9276 C.3       1 RES1    0.0000
     17 H10       -0.0252    6.7874   10.9709 H         1 RES1    0.0000
     18 H11       -0.9809    7.1584   12.1546 H         1 RES1    0.0000
     19 C6         4.0813    5.5323    7.5394 C.3       1 RES1    0.0000
     20 H12        4.9098    5.0361    7.4452 H         1 RES1    0.0000
     21 H13        4.1595    6.3364    7.0026 H         1 RES1    0.0000
     22 C7         2.9539    4.6942    6.9874 C.ar      1 RES1    0.0000
     23 C8         1.6911    4.6589    7.5748 C.ar      1 RES1    0.0000
     24 H14        1.5377    5.1230    8.3663 H         1 RES1    0.0000
     25 C9         0.6626    3.9391    6.9908 C.ar      1 RES1    0.0000
     26 H15       -0.1776    3.9051    7.3880 H         1 RES1    0.0000
     27 C10        0.9087    3.2724    5.8054 C.ar      1 RES1    0.0000
     28 N3        -0.1909    2.5438    5.1608 N.pl3     1 RES1    0.0000
     29 O1        -1.2990    2.5717    5.6798 O.2       1 RES1    0.0000
     30 O2         0.0516    1.9249    4.1256 O.2       1 RES1    0.0000
     31 C11        2.1458    3.2841    5.2004 C.ar      1 RES1    0.0000
     32 H16        2.2911    2.8311    4.4023 H         1 RES1    0.0000
     33 C12        3.1620    3.9858    5.8109 C.ar      1 RES1    0.0000
     34 H17        4.0083    3.9854    5.4251 H         1 RES1    0.0000
     35 N4         4.5828    5.2743    1.3821 N.3       2 RES2    0.0000
     36 C13        4.9924    4.1772    2.2736 C.3       2 RES2    0.0000
     37 H18        4.6137    4.3311    3.1530 H         2 RES2    0.0000
     38 H19        5.9583    4.1889    2.3610 H         2 RES2    0.0000
     39 C14        4.5615    2.8063    1.7885 C.3       2 RES2    0.0000
     40 H20        4.9922    2.6146    0.9402 H         2 RES2    0.0000
     41 H21        4.8440    2.1345    2.4288 H         2 RES2    0.0000
     42 N5         3.1173    2.7395    1.6224 N.3       2 RES2    0.0000
     43 H22        2.9037    3.3886    0.9105 H         2 RES2    0.0000
     44 C15        2.6843    1.4263    1.1500 C.3       2 RES2    0.0000
     45 H23        2.9003    0.7624    1.8232 H         2 RES2    0.0000
     46 H24        3.1762    1.2033    0.3452 H         2 RES2    0.0000
     47 C16        1.2074    1.3631    0.8553 C.3       2 RES2    0.0000
     48 H25        0.7208    1.5418    1.6750 H         2 RES2    0.0000
     49 H26        0.9871    0.4611    0.5738 H         2 RES2    0.0000
     50 C17        0.7286    2.3377   -0.2185 C.3       2 RES2    0.0000
     51 H27       -0.1546    2.0661   -0.5124 H         2 RES2    0.0000
     52 H28        0.6477    3.2204    0.1758 H         2 RES2    0.0000
     53 C18        4.5205    6.5279    2.1372 C.3       2 RES2    0.0000
     54 H29        4.5001    7.2704    1.5140 H         2 RES2    0.0000
     55 H30        5.3252    6.6138    2.6723 H         2 RES2    0.0000
     56 C19        3.3163    6.6148    3.0437 C.ar      2 RES2    0.0000
     57 C20        2.1444    5.9158    2.7579 C.ar      2 RES2    0.0000
     58 H31        2.1137    5.3534    2.0180 H         2 RES2    0.0000
     59 C21        1.0290    6.0478    3.5591 C.ar      2 RES2    0.0000
     60 H32        0.2517    5.5743    3.3690 H         2 RES2    0.0000
     61 C22        1.0874    6.8923    4.6439 C.ar      2 RES2    0.0000
     62 N6        -0.1001    7.0182    5.5026 N.pl3     2 RES2    0.0000
     63 O3        -1.0939    6.3618    5.2068 O.2       2 RES2    0.0000
     64 O4        -0.0431    7.7646    6.4720 O.2       2 RES2    0.0000
     65 C23        2.2262    7.6128    4.9508 C.ar      2 RES2    0.0000
     66 H33        2.2413    8.1907    5.6792 H         2 RES2    0.0000
     67 C24        3.3401    7.4562    4.1518 C.ar      2 RES2    0.0000
     68 H34        4.1196    7.9202    4.3579 H         2 RES2    0.0000
     69 H35        4.6577    7.4002    1.7343 Du        3 SUP3    0.0000
     70 H36        5.2976    6.3388    2.6871 Du        3 SUP3    0.0000
     71 N7         4.4763    5.5792    1.1075 Du        3 SUP3    0.0000
     72 C25        4.2954    6.5486   -0.0783 Du        3 SUP3    0.0000
     73 H37        5.1561    6.9242   -0.3176 Du        3 SUP3    0.0000
     74 H38        3.7138    7.2766    0.1885 Du        3 SUP3    0.0000
     75 C26        3.6633    5.8072   -1.3573 Du        3 SUP3    0.0000
     76 H39        3.6252    6.4139   -2.1112 Du        3 SUP3    0.0000
     77 H40        4.2109    5.0434   -1.6051 Du        3 SUP3    0.0000
     78 N8         2.4026    5.3944   -1.0079 Du        3 SUP3    0.0000
     79 H41        2.6160    4.7460   -0.2986 Du        3 SUP3    0.0000
     80 C27        1.7793    4.7134   -2.1832 Du        3 SUP3    0.0000
     81 H42        1.6651    5.3671   -2.8904 Du        3 SUP3    0.0000
     82 H43        2.3924    4.0375   -2.5050 Du        3 SUP3    0.0000
     83 C28        0.4876    4.0817   -1.9375 Du        3 SUP3    0.0000
     84 H44        0.1559    3.7056   -2.7676 Du        3 SUP3    0.0000
     85 H45       -0.1442    4.7532   -1.6411 Du        3 SUP3    0.0000
     86 C29        0.5640    2.9995   -0.9127 Du        3 SUP3    0.0000
     87 H46        0.6168    3.4007   -0.0296 Du        3 SUP3    0.0000
     88 H47       -0.2498    2.4707   -0.9487 Du        3 SUP3    0.0000
     89 N1A        0.7778    8.1130   12.2399 N.3       1 RES1    0.0000
     90 C1A        0.4537    9.2521   11.3698 C.3       1 RES1    0.0000
     91 H1A       -0.5095    9.3715   11.3563 H         1 RES1    0.0000
     92 H2A        0.8442   10.0560   11.7480 H         1 RES1    0.0000
     93 C2A        0.9464    9.0912    9.9473 C.3       1 RES1    0.0000
     94 H3A        0.7120    9.8803    9.4336 H         1 RES1    0.0000
     95 H4A        0.5102    8.3269    9.5394 H         1 RES1    0.0000
     96 N2A        2.3899    8.9017    9.9115 N.3       1 RES1    0.0000
     97 H5A        2.5787    8.1368   10.5071 H         1 RES1    0.0000
     98 C3A        2.8838    8.6650    8.5546 C.3       1 RES1    0.0000
     99 H6A        2.3989    7.9197    8.1652 H         1 RES1    0.0000
    100 H7A        2.7080    9.4493    8.0106 H         1 RES1    0.0000
    101 C4A        4.3648    8.3624    8.5222 C.3       1 RES1    0.0000
    102 H8A        4.6468    8.2950    7.5977 H         1 RES1    0.0000
    103 H9A        4.8414    9.1073    8.9211 H         1 RES1    0.0000
    104 C5A        4.7668    7.0840    9.2476 C.3       1 RES1    0.0000
    105 H10A       4.7305    7.2448   10.2043 H         1 RES1    0.0000
    106 H11A       5.6863    6.8738    9.0206 H         1 RES1    0.0000
    107 C6A        0.6241    8.4999   13.6358 C.3       1 RES1    0.0000
    108 H12A      -0.2044    8.9961   13.7300 H         1 RES1    0.0000
    109 H13A       0.5459    7.6958   14.1726 H         1 RES1    0.0000
    110 C7A        1.7515    9.3380   14.1878 C.ar      1 RES1    0.0000
    111 C8A        3.0142    9.3733   13.6004 C.ar      1 RES1    0.0000
    112 H14A       3.1677    8.9092   12.8089 H         1 RES1    0.0000
    113 C9A        4.0428   10.0931   14.1844 C.ar      1 RES1    0.0000
    114 H15A       4.8830   10.1271   13.7872 H         1 RES1    0.0000
    115 C10A       3.7967   10.7598   15.3698 C.ar      1 RES1    0.0000
    116 N3A        4.8962   11.4884   16.0144 N.pl3     1 RES1    0.0000
    117 O1A        6.0044   11.4605   15.4954 O.2       1 RES1    0.0000
    118 O2A        4.6538   12.1073   17.0497 O.2       1 RES1    0.0000
    119 C11A       2.5595   10.7481   15.9748 C.ar      1 RES1    0.0000
    120 H16A       2.4143   11.2011   16.7729 H         1 RES1    0.0000
    121 C12A       1.5434   10.0464   15.3643 C.ar      1 RES1    0.0000
    122 H17A       0.6971   10.0469   15.7501 H         1 RES1    0.0000
    123 N4A        1.6042    2.4239   -1.3821 N.3       2 RES2    0.0000
    124 C13A       1.1946    3.5210   -2.2736 C.3       2 RES2    0.0000
    125 H18A       1.5733    3.3671   -3.1530 H         2 RES2    0.0000
    126 H19A       0.2287    3.5093   -2.3610 H         2 RES2    0.0000
    127 C14A       1.6255    4.8920   -1.7885 C.3       2 RES2    0.0000
    128 H20A       1.1948    5.0837   -0.9402 H         2 RES2    0.0000
    129 H21A       1.3430    5.5637   -2.4288 H         2 RES2    0.0000
    130 N5A        3.0697    4.9587   -1.6224 N.3       2 RES2    0.0000
    131 H22A       3.2833    4.3096   -0.9105 H         2 RES2    0.0000
    132 C15A       3.5028    6.2719   -1.1500 C.3       2 RES2    0.0000
    133 H23A       3.2867    6.9358   -1.8232 H         2 RES2    0.0000
    134 H24A       3.0108    6.4949   -0.3452 H         2 RES2    0.0000
    135 C16A       4.9796    6.3352   -0.8553 C.3       2 RES2    0.0000
    136 H25A       5.4662    6.1564   -1.6750 H         2 RES2    0.0000
    137 H26A       5.1999    7.2371   -0.5738 H         2 RES2    0.0000
    138 C17A       5.4584    5.3605    0.2185 C.3       2 RES2    0.0000
    139 H27A       6.3416    5.6321    0.5124 H         2 RES2    0.0000
    140 H28A       5.5393    4.4778   -0.1758 H         2 RES2    0.0000
    141 C18A       1.6665    1.1703   -2.1372 C.3       2 RES2    0.0000
    142 H29A       1.6869    0.4278   -1.5140 H         2 RES2    0.0000
    143 H30A       0.8619    1.0844   -2.6723 H         2 RES2    0.0000
    144 C19A       2.8707    1.0835   -3.0437 C.ar      2 RES2    0.0000
    145 C20A       4.0427    1.7825   -2.7579 C.ar      2 RES2    0.0000
    146 H31A       4.0733    2.3448   -2.0180 H         2 RES2    0.0000
    147 C21A       5.1580    1.6504   -3.5591 C.ar      2 RES2    0.0000
    148 H32A       5.9353    2.1239   -3.3690 H         2 RES2    0.0000
    149 C22A       5.0997    0.8060   -4.6439 C.ar      2 RES2    0.0000
    150 N6A        6.2871    0.6800   -5.5026 N.pl3     2 RES2    0.0000
    151 O3A        7.2809    1.3365   -5.2068 O.2       2 RES2    0.0000
    152 O4A        6.2301   -0.0664   -6.4720 O.2       2 RES2    0.0000
    153 C23A       3.9608    0.0855   -4.9508 C.ar      2 RES2    0.0000
    154 H33A       3.9457   -0.4925   -5.6792 H         2 RES2    0.0000
    155 C24A       2.8469    0.2421   -4.1518 C.ar      2 RES2    0.0000
    156 H34A       2.0674   -0.2219   -4.3579 H         2 RES2    0.0000
@<TRIPOS>BOND
     1    1    2 1
     2    2    3 1
     3    4    2 1
     4    5    2 1
     5    6    5 1
     6    7    5 1
     7    8    5 1
     8    9    8 1
     9   10    8 1
    10   11   10 1
    11   12   10 1
    12   13   10 1
    13   14   13 1
    14   15   13 1
    15   16   13 1
    16   17   16 1
    17   18   16 1
    18   19    1 1
    19   20   19 1
    20   21   19 1
    21   22   19 1
    22   23   22 ar
    23   24   23 1
    24   25   23 ar
    25   26   25 1
    26   27   25 ar
    27   28   27 1
    28   29   28 2
    29   30   28 2
    30   31   27 ar
    31   32   31 1
    32   33   22 ar
    33   34   33 1
    34   35   36 1
    35   36   37 1
    36   38   36 1
    37   39   36 1
    38   40   39 1
    39   41   39 1
    40   42   39 1
    41   43   42 1
    42   44   42 1
    43   45   44 1
    44   46   44 1
    45   47   44 1
    46   48   47 1
    47   49   47 1
    48   50   47 1
    49   51   50 1
    50   52   50 1
    51   53   35 1
    52   54   53 1
    53   55   53 1
    54   56   53 1
    55   57   56 ar
    56   58   57 1
    57   59   57 ar
    58   60   59 1
    59   61   59 ar
    60   62   61 1
    61   63   62 2
    62   64   62 2
    63   65   61 ar
    64   66   65 1
    65   67   56 ar
    66   68   67 1
    67   89   16 1
    68   90   89 1
    69   91   90 1
    70   92   90 1
    71   93   90 1
    72   94   93 1
    73   95   93 1
    74   96   93 1
    75   97   96 1
    76   98   96 1
    77   99   98 1
    78  100   98 1
    79  101   98 1
    80  102  101 1
    81  103  101 1
    82  104    1 1
    83  105  104 1
    84  106  104 1
    85  107   89 1
    86  108  107 1
    87  109  107 1
    88  110  107 1
    89  111  110 ar
    90  112  111 1
    91  113  111 ar
    92  114  113 1
    93  115  113 ar
    94  116  115 1
    95  117  116 2
    96  118  116 2
    97  119  115 ar
    98  120  119 1
    99  121  110 ar
   100  122  121 1
   101  123   50 1
   102  124  123 1
   103  125  124 1
   104  126  124 1
   105  127  124 1
   106  128  127 1
   107  129  127 1
   108  130  127 1
   109  131  130 1
   110  132  130 1
   111  133  132 1
   112  134  132 1
   113  135  132 1
   114  136  135 1
   115  137  135 1
   116  138   35 1
   117  139  138 1
   118  140  138 1
   119  141  123 1
   120  142  141 1
   121  143  141 1
   122  144  141 1
   123  145  144 ar
   124  146  145 1
   125  147  145 ar
   126  148  147 1
   127  149  147 ar
   128  150  149 1
   129  151  150 2
   130  152  150 2
   131  153  149 ar
   132  154  153 1
   133  155  144 ar
   134  156  155 1
   135   31   33 ar
   136   65   67 ar
   137  101  104 1
   138  119  121 ar
   139  135  138 1
   140  153  155 ar
@<TRIPOS>SUBSTRUCTURE
     1 RES1 1
     2 RES2 35
     3 SUP3 69

@<TRIPOS>CRYSIN
   7.4190    7.7962   21.2206  93.5330  90.6740  99.0923   2 1

