# MOL2 file generated by ConQuest
# Please check atom types

@<TRIPOS>MOLECULE
QOVLIX
    35    36     1
SMALL
NO_CHARGES
****
Generated from CSD

@<TRIPOS>ATOM
      1 C1         4.1363    1.8359    1.4162 C.2       1 RES1    0.0000
      2 H1         3.6759    1.3855    2.1008 H         1 RES1    0.0000
      3 C2         4.0285    3.3506    1.3670 C.3       1 RES1    0.0000
      4 H2         3.2653    3.5775    0.7802 H         1 RES1    0.0000
      5 C3         5.2497    4.0608    0.8257 C.3       1 RES1    0.0000
      6 H3         5.0341    5.0027    0.6648 H         1 RES1    0.0000
      7 H4         5.5088    3.6575   -0.0304 H         1 RES1    0.0000
      8 C4         6.4185    3.9672    1.8072 C.3       1 RES1    0.0000
      9 H5         7.1206    4.5967    1.5392 H         1 RES1    0.0000
     10 H6         6.7954    3.0629    1.7790 H         1 RES1    0.0000
     11 C5         5.9636    4.2884    3.2380 C.3       1 RES1    0.0000
     12 H7         6.6957    4.0376    3.8555 H         1 RES1    0.0000
     13 C6         5.6615    5.7962    3.4383 C.3       1 RES1    0.0000
     14 H8         5.1811    6.1360    2.6411 H         1 RES1    0.0000
     15 C7         4.8796    6.1612    4.6733 C.3       1 RES1    0.0000
     16 H9         5.2621    5.7122    5.4432 H         1 RES1    0.0000
     17 H10        3.9556    5.8858    4.5628 H         1 RES1    0.0000
     18 H11        4.9170    7.1216    4.8087 H         1 RES1    0.0000
     19 C8         4.4129    3.0478    4.8154 C.ar      1 RES1    0.0000
     20 C9         3.1176    2.5721    5.0343 C.ar      1 RES1    0.0000
     21 H12        2.4790    2.6035    4.3442 H         1 RES1    0.0000
     22 C10        2.7787    2.0512    6.2774 C.ar      1 RES1    0.0000
     23 H13        1.9115    1.7170    6.4177 H         1 RES1    0.0000
     24 C11        3.6977    2.0164    7.3084 C.ar      1 RES1    0.0000
     25 H14        3.4597    1.6589    8.1451 H         1 RES1    0.0000
     26 C12        4.9606    2.5085    7.1004 C.ar      1 RES1    0.0000
     27 H15        5.5842    2.4969    7.8050 H         1 RES1    0.0000
     28 C13        5.3319    3.0253    5.8643 C.ar      1 RES1    0.0000
     29 H16        6.2010    3.3595    5.7346 H         1 RES1    0.0000
     30 N1         4.8254    3.4135    3.5076 N.3       1 RES1    0.0000
     31 N2         7.0047    6.4702    3.5224 N.pl3     1 RES1    0.0000
     32 O1         3.7139    3.8195    2.6897 O.3       1 RES1    0.0000
     33 O2         7.3256    7.2159    2.6226 O.2       1 RES1    0.0000
     34 O3         7.7019    6.2276    4.4921 O.2       1 RES1    0.0000
     35 O4         4.7668    1.1798    0.6418 O.2       1 RES1    0.0000
@<TRIPOS>BOND
     1    1    2 1
     2    3    1 1
     3    4    3 1
     4    5    3 1
     5    6    5 1
     6    7    5 1
     7    8    5 1
     8    9    8 1
     9   10    8 1
    10   11    8 1
    11   12   11 1
    12   13   11 1
    13   14   13 1
    14   15   13 1
    15   16   15 1
    16   17   15 1
    17   18   15 1
    18   19   20 ar
    19   20   21 1
    20   22   20 ar
    21   23   22 1
    22   24   22 ar
    23   25   24 1
    24   26   24 ar
    25   27   26 1
    26   28   19 ar
    27   29   28 1
    28   30   11 1
    29   31   13 1
    30   32    3 1
    31   33   31 2
    32   34   31 2
    33   35    1 2
    34   19   30 1
    35   26   28 ar
    36   30   32 1
@<TRIPOS>SUBSTRUCTURE
     1 RES1 1

@<TRIPOS>CRYSIN
   6.2303    6.8352   30.3580  90.0000  90.0000  90.0000  19 1

