# MOL2 file generated by ConQuest
# Please check atom types

@<TRIPOS>MOLECULE
QOVMIX
    38    39     1
SMALL
NO_CHARGES
****
Generated from CSD

@<TRIPOS>ATOM
      1 C1         0.2926    2.1094    2.7253 C.3       1 RES1    0.0000
      2 C2        -1.0328    2.3870    3.4615 C.3       1 RES1    0.0000
      3 C3        -2.2101    2.2645    2.5544 C.2       1 RES1    0.0000
      4 C4        -2.2585    1.0318    1.6958 C.3       1 RES1    0.0000
      5 C5        -0.9209    0.7150    1.0256 C.3       1 RES1    0.0000
      6 C6         0.1958    0.7418    2.0493 C.3       1 RES1    0.0000
      7 O1        -3.0977    3.0876    2.5350 O.2       1 RES1    0.0000
      8 N1         1.4827    0.4317    1.3306 N.pl3     1 RES1    0.0000
      9 O2         2.0967   -0.5503    1.6783 O.2       1 RES1    0.0000
     10 O3         1.8502    1.1916    0.4565 O.2       1 RES1    0.0000
     11 O4        -0.9149   -0.5857    0.4565 O.3       1 RES1    0.0000
     12 C7        -1.6974   -0.7130   -0.6974 C.3       1 RES1    0.0000
     13 C8         1.4895    2.2004    3.6655 C.3       1 RES1    0.0000
     14 O5         1.3043    1.3380    4.7863 O.3       1 RES1    0.0000
     15 C9         1.7080    2.0204    5.9557 C.3       1 RES1    0.0000
     16 O6         1.4033    3.3929    5.6702 O.3       1 RES1    0.0000
     17 C10        1.6634    3.5920    4.3026 C.3       1 RES1    0.0000
     18 C11        3.1817    1.8596    6.1830 C.3       1 RES1    0.0000
     19 C12        0.8703    1.5601    7.1037 C.3       1 RES1    0.0000
     20 H1         0.4015    2.7880    2.0260 H         1 RES1    0.0000
     21 H2        -1.1281    1.7601    4.1958 H         1 RES1    0.0000
     22 H3        -1.0101    3.2819    3.8345 H         1 RES1    0.0000
     23 H4        -2.9344    1.1504    1.0120 H         1 RES1    0.0000
     24 H5        -2.5223    0.2766    2.2455 H         1 RES1    0.0000
     25 H6        -0.7410    1.3782    0.3263 H         1 RES1    0.0000
     26 H7         0.0302    0.0555    2.7292 H         1 RES1    0.0000
     27 H8        -1.6475   -1.6165   -1.0198 H         1 RES1    0.0000
     28 H9        -1.3723   -0.1139   -1.3714 H         1 RES1    0.0000
     29 H10       -2.6101   -0.4977   -0.4895 H         1 RES1    0.0000
     30 H11        2.3076    1.9515    3.1857 H         1 RES1    0.0000
     31 H12        2.5654    3.9222    4.1686 H         1 RES1    0.0000
     32 H13        1.0366    4.2266    3.9219 H         1 RES1    0.0000
     33 H14        3.4357    2.3305    6.9813 H         1 RES1    0.0000
     34 H15        3.6625    2.2166    5.4332 H         1 RES1    0.0000
     35 H16        3.3896    0.9274    6.2820 H         1 RES1    0.0000
     36 H17        1.1364    2.0233    7.9001 H         1 RES1    0.0000
     37 H18        0.9890    0.6154    7.2261 H         1 RES1    0.0000
     38 H19       -0.0537    1.7448    6.9192 H         1 RES1    0.0000
@<TRIPOS>BOND
     1    1    2 1
     2    2    3 1
     3    3    4 1
     4    4    5 1
     5    5    6 1
     6    6    1 1
     7    7    3 2
     8    8    6 1
     9    9    8 2
    10   10    8 2
    11   11    5 1
    12   12   11 1
    13   13    1 1
    14   14   13 1
    15   15   14 1
    16   16   15 1
    17   17   13 1
    18   18   15 1
    19   19   15 1
    20   20    1 1
    21   21    2 1
    22   22    2 1
    23   23    4 1
    24   24    4 1
    25   25    5 1
    26   26    6 1
    27   27   12 1
    28   28   12 1
    29   29   12 1
    30   30   13 1
    31   31   17 1
    32   32   17 1
    33   33   18 1
    34   34   18 1
    35   35   18 1
    36   36   19 1
    37   37   19 1
    38   38   19 1
    39   16   17 1
@<TRIPOS>SUBSTRUCTURE
     1 RES1 1

@<TRIPOS>CRYSIN
   7.5610    9.5710   19.4250  90.0000  90.0000  90.0000  19 1

