# MOL2 file generated by ConQuest
# Please check atom types

@<TRIPOS>MOLECULE
QOVSUQ
    68    68     1
SMALL
NO_CHARGES
****
Generated from CSD

@<TRIPOS>ATOM
      1 O1         1.1553    0.4249   -0.8195 O.2       1 RES1    0.0000
      2 O2        -0.5815    0.8802   -2.0265 O.2       1 RES1    0.0000
      3 O3        -1.9417    6.6832   -0.9637 O.2       1 RES1    0.0000
      4 O4        -2.5782    4.9964   -2.1541 O.2       1 RES1    0.0000
      5 N1         0.2503    1.1976   -1.1761 N.pl3     1 RES1    0.0000
      6 N2        -1.8480    5.4887   -1.2938 N.pl3     1 RES1    0.0000
      7 N3         1.7958    2.0265    1.1968 N.3       1 RES1    0.0000
      8 H1         1.8607    1.2521    0.8684 H         1 RES1    0.0000
      9 N4        -0.1613    6.3748    0.9625 N.3       1 RES1    0.0000
     10 H2        -0.6451    6.8842    0.5784 H         1 RES1    0.0000
     11 C1         0.9572    2.8728    0.5808 C.ar      1 RES1    0.0000
     12 C2         0.1780    2.4988   -0.5703 C.ar      1 RES1    0.0000
     13 C3        -0.7176    3.3848   -1.1293 C.ar      1 RES1    0.0000
     14 H3        -1.2186    3.1151   -1.8716 H         1 RES1    0.0000
     15 C4        -0.8652    4.6698   -0.6447 C.ar      1 RES1    0.0000
     16 C5        -0.0791    5.1269    0.4710 C.ar      1 RES1    0.0000
     17 C6         0.7837    4.1846    1.0518 C.ar      1 RES1    0.0000
     18 H4         1.2656    4.4337    1.7948 H         1 RES1    0.0000
     19 C7         2.5160    2.3177    2.4283 C.3       1 RES1    0.0000
     20 H5         2.9500    3.1864    2.3576 H         1 RES1    0.0000
     21 H6         3.2014    1.6741    2.4861 H         1 RES1    0.0000
     22 C8         1.6385    2.2665    3.6781 C.3       1 RES1    0.0000
     23 H7         1.2241    1.3920    3.7260 H         1 RES1    0.0000
     24 H8         0.9453    2.9137    3.5975 H         1 RES1    0.0000
     25 C9         2.4444    2.5606    4.9414 C.3       1 RES1    0.0000
     26 H9         3.1052    1.8929    5.0396 H         1 RES1    0.0000
     27 H10        2.9190    3.4086    4.8421 H         1 RES1    0.0000
     28 C10        1.5983    2.6142    6.2084 C.3       1 RES1    0.0000
     29 H11        1.0883    1.7988    6.2764 H         1 RES1    0.0000
     30 H12        0.9704    3.3556    6.1557 H         1 RES1    0.0000
     31 C11        2.4318    2.8027    7.4722 C.3       1 RES1    0.0000
     32 H13        2.9438    3.6226    7.3800 H         1 RES1    0.0000
     33 H14        3.0237    2.0521    7.5461 H         1 RES1    0.0000
     34 C12        1.6057    2.8705    8.7532 C.3       1 RES1    0.0000
     35 H15        1.0566    2.0790    8.8221 H         1 RES1    0.0000
     36 H16        0.9973    3.6024    8.6952 H         1 RES1    0.0000
     37 C13        2.4600    3.0203   10.0067 C.3       1 RES1    0.0000
     38 H17        3.0142    3.8194    9.9163 H         1 RES1    0.0000
     39 H18        3.0704    2.2451   10.0620 H         1 RES1    0.0000
     40 C14        1.6389    3.0911   11.2866 C.3       1 RES1    0.0000
     41 H19        1.0862    2.2919   11.4070 H         1 RES1    0.0000
     42 H20        2.2041    3.1766   12.0591 H         1 RES1    0.0000
     43 H21        1.0847    3.8445   11.2769 H         1 RES1    0.0000
     44 C15        0.5153    6.8290    2.1689 C.3       1 RES1    0.0000
     45 H22        1.4244    6.4969    2.1663 H         1 RES1    0.0000
     46 H23        0.5800    7.7780    2.1146 H         1 RES1    0.0000
     47 C16       -0.2144    6.4004    3.4412 C.3       1 RES1    0.0000
     48 H24       -1.0325    6.8979    3.5066 H         1 RES1    0.0000
     49 H25       -0.4838    5.4547    3.3843 H         1 RES1    0.0000
     50 C17        0.6129    6.6240    4.7050 C.3       1 RES1    0.0000
     51 H26        1.0187    7.5179    4.6713 H         1 RES1    0.0000
     52 H27        1.3234    5.9676    4.7230 H         1 RES1    0.0000
     53 C18       -0.2116    6.4864    5.9814 C.3       1 RES1    0.0000
     54 H28       -0.6581    5.6145    5.9958 H         1 RES1    0.0000
     55 H29       -0.9207    7.1651    5.9755 H         1 RES1    0.0000
     56 C19        0.6093    6.6528    7.2566 C.3       1 RES1    0.0000
     57 H30        1.0797    7.4892    7.2232 H         1 RES1    0.0000
     58 H31        1.2717    5.9259    7.2985 H         1 RES1    0.0000
     59 C20       -0.2392    6.6222    8.5252 C.3       1 RES1    0.0000
     60 H32       -0.7518    5.7994    8.5525 H         1 RES1    0.0000
     61 H33       -0.9034    7.3359    8.4741 H         1 RES1    0.0000
     62 C21        0.5708    6.7860    9.8072 C.3       1 RES1    0.0000
     63 H34        1.0726    7.6406    9.7579 H         1 RES1    0.0000
     64 H35        1.2081    6.0679    9.8614 H         1 RES1    0.0000
     65 C22       -0.2930    6.7592   11.0636 C.3       1 RES1    0.0000
     66 H36       -0.9680    7.4624   11.0371 H         1 RES1    0.0000
     67 H37       -0.7703    5.9143   11.1374 H         1 RES1    0.0000
     68 H38        0.2602    6.8902   11.8553 H         1 RES1    0.0000
@<TRIPOS>BOND
     1    1    5 2
     2    2    5 2
     3    3    6 2
     4    4    6 2
     5    5   12 1
     6    6   15 1
     7    7    8 1
     8    9   10 1
     9   11    7 1
    10   12   11 ar
    11   13   12 ar
    12   14   13 1
    13   15   13 ar
    14   16    9 1
    15   17   11 ar
    16   18   17 1
    17   19    7 1
    18   20   19 1
    19   21   19 1
    20   22   19 1
    21   23   22 1
    22   24   22 1
    23   25   22 1
    24   26   25 1
    25   27   25 1
    26   28   25 1
    27   29   28 1
    28   30   28 1
    29   31   28 1
    30   32   31 1
    31   33   31 1
    32   34   31 1
    33   35   34 1
    34   36   34 1
    35   37   34 1
    36   38   37 1
    37   39   37 1
    38   40   37 1
    39   41   40 1
    40   42   40 1
    41   43   40 1
    42   44    9 1
    43   45   44 1
    44   46   44 1
    45   47   44 1
    46   48   47 1
    47   49   47 1
    48   50   47 1
    49   51   50 1
    50   52   50 1
    51   53   50 1
    52   54   53 1
    53   55   53 1
    54   56   53 1
    55   57   56 1
    56   58   56 1
    57   59   56 1
    58   60   59 1
    59   61   59 1
    60   62   59 1
    61   63   62 1
    62   64   62 1
    63   65   62 1
    64   66   65 1
    65   67   65 1
    66   68   65 1
    67   15   16 ar
    68   16   17 ar
@<TRIPOS>SUBSTRUCTURE
     1 RES1 1

@<TRIPOS>CRYSIN
   4.6679   15.5897   15.7690  83.7600  89.3560  86.4210   2 1

