# MOL2 file generated by ConQuest
# Please check atom types

@<TRIPOS>MOLECULE
QOVXUV
    28    28     1
SMALL
USER_CHARGES
****
Generated from CSD

@<TRIPOS>ATOM
      1 H1         6.5602    3.4379    9.6360 H         1 RES1    0.0000
      2 C1         5.0281    3.7568    7.6988 C.ar      1 RES1    0.0000
      3 C2         4.3059    4.0614    6.5113 C.ar      1 RES1    0.0000
      4 H2         4.5472    4.8175    6.0270 H         1 RES1    0.0000
      5 C3         3.2810    3.2981    6.0537 C.ar      1 RES1    0.0000
      6 H3         2.8325    3.5341    5.2738 H         1 RES1    0.0000
      7 C4         2.9068    2.1551    6.7641 C.ar      1 RES1    0.0000
      8 C5         3.5788    1.7853    7.8947 C.ar      1 RES1    0.0000
      9 H4         3.3245    1.0142    8.3487 H         1 RES1    0.0000
     10 C6         4.6324    2.5458    8.3717 C.ar      1 RES1    0.0000
     11 C7         5.3250    2.1086    9.5292 C.2       1 RES1    0.0000
     12 H5         5.0382    1.3166    9.9227 H         1 RES1    0.0000
     13 C8         7.0653    2.2523   11.2545 C.3       1 RES1    0.0000
     14 H6         7.8810    1.8146   10.9643 H         1 RES1    0.0000
     15 H7         6.5322    1.6012   11.7370 H         1 RES1    0.0000
     16 C9         7.4077    3.3804   12.1665 C.3       1 RES1    0.0000
     17 H8         7.6400    3.0212   13.0368 H         1 RES1    0.0000
     18 H9         6.6259    3.9426   12.2783 H         1 RES1    0.0000
     19 C10        8.5453    4.2250   11.6711 C.3       1 RES1    0.0000
     20 H10        8.6729    4.9855   12.2587 H         1 RES1    0.0000
     21 H11        9.3647    3.7049   11.6640 H         1 RES1    0.0000
     22 N1         6.3186    2.7155   10.0785 N.pl3     1 RES1    1.0000
     23 N2         1.7905    1.3586    6.3012 N.pl3     1 RES1    0.0000
     24 O1         5.9685    4.4831    8.1372 O.2       1 RES1   -1.0000
     25 O2         1.4125    0.4134    6.9736 O.2       1 RES1    0.0000
     26 O3         1.2493    1.6714    5.2489 O.2       1 RES1    0.0000
     27 O4         8.2542    4.6716   10.3692 O.3       1 RES1    0.0000
     28 H12        8.8722    5.1337   10.0936 H         1 RES1    0.0000
@<TRIPOS>BOND
     1    1   22 1
     2    2    3 ar
     3    3    4 1
     4    5    3 ar
     5    6    5 1
     6    7    5 ar
     7    8    7 ar
     8    9    8 1
     9   10    2 ar
    10   11   10 1
    11   12   11 1
    12   13   14 1
    13   15   13 1
    14   16   13 1
    15   17   16 1
    16   18   16 1
    17   19   16 1
    18   20   19 1
    19   21   19 1
    20   22   11 2
    21   23    7 1
    22   24    2 1
    23   25   23 2
    24   26   23 2
    25   27   19 1
    26   28   27 1
    27    8   10 ar
    28   13   22 1
@<TRIPOS>SUBSTRUCTURE
     1 RES1 1

@<TRIPOS>CRYSIN
  10.9530    5.5272   18.7540  90.0000 108.3060  90.0000  14 1

