# MOL2 file generated by ConQuest
# Please check atom types

@<TRIPOS>MOLECULE
QOXQUQ
    54    56     1
SMALL
NO_CHARGES
****
Generated from CSD

@<TRIPOS>ATOM
      1 C1         7.8254    6.8979    3.6521 C.ar      1 RES1    0.0000
      2 C2         8.5728    5.7392    3.8047 C.ar      1 RES1    0.0000
      3 C3         8.2208    4.7905    4.7716 C.ar      1 RES1    0.0000
      4 C4         7.1197    4.9918    5.5846 C.ar      1 RES1    0.0000
      5 C5         6.3676    6.1357    5.4351 C.ar      1 RES1    0.0000
      6 C6         6.7202    7.0913    4.4765 C.ar      1 RES1    0.0000
      7 C7         8.2180    7.9244    2.5985 C.3       1 RES1    0.0000
      8 C8         6.3423    7.5560    0.8882 C.3       1 RES1    0.0000
      9 C9         6.3238    6.8751   -0.5006 C.3       1 RES1    0.0000
     10 C10        7.7307    7.1928   -1.0613 C.3       1 RES1    0.0000
     11 C11        8.5972    7.3500    0.2020 C.2       1 RES1    0.0000
     12 C12        8.2627    6.1274   -1.9948 C.2       1 RES1    0.0000
     13 C13        9.5640    5.7507   -3.9368 C.3       1 RES1    0.0000
     14 C14        5.1449    7.2380   -1.4146 C.2       1 RES1    0.0000
     15 C15        3.9977    6.5215   -1.3945 C.2       1 RES1    0.0000
     16 C16        3.7618    5.3462   -0.4624 C.3       1 RES1    0.0000
     17 C17        2.8059    6.8143   -2.2783 C.3       1 RES1    0.0000
     18 C18        5.3350    8.3890   -2.3794 C.ar      1 RES1    0.0000
     19 C19        5.2889    8.1622   -3.7607 C.ar      1 RES1    0.0000
     20 C20        5.4517    9.1946   -4.6869 C.ar      1 RES1    0.0000
     21 C21        5.7012   10.4683   -4.2107 C.ar      1 RES1    0.0000
     22 C22        5.7762   10.7383   -2.8563 C.ar      1 RES1    0.0000
     23 C23        5.5849    9.6982   -1.9387 C.ar      1 RES1    0.0000
     24 N1         7.7620    7.5353    1.2558 N.am      1 RES1    0.0000
     25 N2         5.8975   11.5694   -5.1870 N.pl3     1 RES1    0.0000
     26 O1         9.8281    7.3556    0.2361 O.2       1 RES1    0.0000
     27 O2         9.0012    6.6711   -2.9737 O.3       1 RES1    0.0000
     28 O3         8.0516    4.9414   -1.8816 O.2       1 RES1    0.0000
     29 O4         5.6577   11.3414   -6.3786 O.2       1 RES1    0.0000
     30 O5         6.2925   12.6594   -4.7685 O.2       1 RES1    0.0000
     31 H1         9.3106    5.5769    3.2221 H         1 RES1    0.0000
     32 H2         8.7513    3.9836    4.8724 H         1 RES1    0.0000
     33 H3         6.8903    4.3478    6.2463 H         1 RES1    0.0000
     34 H4         5.6179    6.2908    5.9819 H         1 RES1    0.0000
     35 H5         6.1830    7.9032    4.3895 H         1 RES1    0.0000
     36 H6         9.1976    7.9870    2.5763 H         1 RES1    0.0000
     37 H7         7.8390    8.8179    2.8056 H         1 RES1    0.0000
     38 H8         5.7940    7.0692    1.5380 H         1 RES1    0.0000
     39 H9         6.0150    8.5267    0.8270 H         1 RES1    0.0000
     40 H10        6.3201    5.8981   -0.3441 H         1 RES1    0.0000
     41 H11        7.7289    8.0673   -1.5392 H         1 RES1    0.0000
     42 H12       10.2176    6.2071   -4.4921 H         1 RES1    0.0000
     43 H13        8.8696    5.3818   -4.5139 H         1 RES1    0.0000
     44 H14        9.9742    5.0423   -3.4986 H         1 RES1    0.0000
     45 H15        2.9213    5.4829   -0.0386 H         1 RES1    0.0000
     46 H16        3.7197    4.5186   -0.9525 H         1 RES1    0.0000
     47 H17        4.4344    5.2449    0.2656 H         1 RES1    0.0000
     48 H18        2.6826    6.0970   -2.9107 H         1 RES1    0.0000
     49 H19        2.8918    7.6426   -2.7972 H         1 RES1    0.0000
     50 H20        1.9963    6.8897   -1.7396 H         1 RES1    0.0000
     51 H21        5.1300    7.2748   -4.0684 H         1 RES1    0.0000
     52 H22        5.3968    9.0195   -5.6499 H         1 RES1    0.0000
     53 H23        5.9497   11.6298   -2.5461 H         1 RES1    0.0000
     54 H24        5.6221    9.8925   -0.9839 H         1 RES1    0.0000
@<TRIPOS>BOND
     1    1    2 ar
     2    2    3 ar
     3    3    4 ar
     4    4    5 ar
     5    5    6 ar
     6    6    1 ar
     7    7    1 1
     8    8    9 1
     9    9   10 1
    10   10   11 1
    11   11   24 1
    12   12   10 1
    13   13   27 1
    14   14    9 1
    15   15   14 2
    16   16   15 1
    17   17   15 1
    18   18   14 1
    19   19   18 ar
    20   20   19 ar
    21   21   20 ar
    22   22   21 ar
    23   23   18 ar
    24   24    7 1
    25   25   21 1
    26   26   11 2
    27   27   12 1
    28   28   12 2
    29   29   25 2
    30   30   25 2
    31   31    2 1
    32   32    3 1
    33   33    4 1
    34   34    5 1
    35   35    6 1
    36   36    7 1
    37   37    7 1
    38   38    8 1
    39   39    8 1
    40   40    9 1
    41   41   10 1
    42   42   13 1
    43   43   13 1
    44   44   13 1
    45   45   16 1
    46   46   16 1
    47   47   16 1
    48   48   17 1
    49   49   17 1
    50   50   17 1
    51   51   19 1
    52   52   20 1
    53   53   22 1
    54   54   23 1
    55    8   24 1
    56   22   23 ar
@<TRIPOS>SUBSTRUCTURE
     1 RES1 1

@<TRIPOS>CRYSIN
   9.7390    9.9160   12.8370  89.8500  71.9900  64.9900   2 1

