# MOL2 file generated by ConQuest
# Please check atom types

@<TRIPOS>MOLECULE
QOXRAW
    63    66     1
SMALL
NO_CHARGES
****
Generated from CSD

@<TRIPOS>ATOM
      1 C1        11.7227    4.6433   20.8455 C.3       1 RES1    0.0000
      2 C2        11.3365    4.6492   19.3118 C.3       1 RES1    0.0000
      3 C3        12.4008    3.7745   18.6439 C.2       1 RES1    0.0000
      4 C4        13.1816    3.0620   19.7247 C.3       1 RES1    0.0000
      5 C5        13.1528    4.0503   20.8962 C.3       1 RES1    0.0000
      6 C6        12.6775    3.6254   17.3633 C.2       1 RES1    0.0000
      7 H1        13.3501    3.0490   17.1327 H         1 RES1    0.0000
      8 C7        12.1186    4.2906   16.1722 C.2       1 RES1    0.0000
      9 N1        12.8268    5.0788   15.4579 N.2       1 RES1    0.0000
     10 O1        14.0843    5.3215   16.0276 O.3       1 RES1    0.0000
     11 H2        14.3939    5.7914   15.4649 H         1 RES1    0.0000
     12 C8        10.7529    4.0231   15.6704 C.ar      1 RES1    0.0000
     13 C9        10.0667    4.9593   14.9196 C.ar      1 RES1    0.0000
     14 H3        10.4598    5.7381   14.6951 H         1 RES1    0.0000
     15 C10        8.7832    4.7155   14.4925 C.ar      1 RES1    0.0000
     16 H4         8.3818    5.3369   14.0274 H         1 RES1    0.0000
     17 C11        8.1626    3.5484   14.8018 C.ar      1 RES1    0.0000
     18 H5         7.3188    3.4656   14.5406 H         1 RES1    0.0000
     19 C12        8.8270    2.5968   15.5346 C.ar      1 RES1    0.0000
     20 H6         8.4599    1.8121   15.7331 H         1 RES1    0.0000
     21 C13       10.1146    2.8335   15.9600 C.ar      1 RES1    0.0000
     22 H7        10.5036    2.1435   16.4154 H         1 RES1    0.0000
     23 C14       14.5349    2.4832   19.3463 C.3       1 RES1    0.0000
     24 H8        15.0349    2.8643   18.7363 H         1 RES1    0.0000
     25 H9        15.1459    2.5412   20.0279 H         1 RES1    0.0000
     26 C15       14.1884    1.0747   19.0244 C.2       1 RES1    0.0000
     27 N2        13.0254    0.7398   19.4489 N.2       1 RES1    0.0000
     28 O2        12.4215    1.8440   20.0720 O.3       1 RES1    0.0000
     29 C16       15.0527    0.0911   18.3622 C.ar      1 RES1    0.0000
     30 C17       16.4047    0.3101   18.2333 C.ar      1 RES1    0.0000
     31 H10       16.7390    1.0759   18.5584 H         1 RES1    0.0000
     32 C18       17.2198   -0.6285   17.6283 C.ar      1 RES1    0.0000
     33 H11       18.0814   -0.4308   17.5467 H         1 RES1    0.0000
     34 C19       16.6801   -1.7754   17.1356 C.ar      1 RES1    0.0000
     35 H12       17.1992   -2.2832   16.7536 H         1 RES1    0.0000
     36 C20       15.3486   -2.0121   17.2493 C.ar      1 RES1    0.0000
     37 H13       14.9144   -2.8761   16.8994 H         1 RES1    0.0000
     38 C21       14.5226   -1.0913   17.8569 C.ar      1 RES1    0.0000
     39 H14       13.6651   -1.3173   17.9957 H         1 RES1    0.0000
     40 C22       13.5692    3.4324   22.2176 C.3       1 RES1    0.0000
     41 H15       13.4980    4.0882   22.9145 H         1 RES1    0.0000
     42 H16       14.4788    3.1283   22.1564 H         1 RES1    0.0000
     43 H17       12.9967    2.6880   22.4188 H         1 RES1    0.0000
     44 C23       14.2035    5.1617   20.5802 C.3       1 RES1    0.0000
     45 H18       13.9829    5.5830   19.7480 H         1 RES1    0.0000
     46 H19       15.0774    4.7675   20.5178 H         1 RES1    0.0000
     47 H20       14.1980    5.8162   21.2817 H         1 RES1    0.0000
     48 C24       10.7790    3.7283   21.6855 C.3       1 RES1    0.0000
     49 H21       10.8611    2.8217   21.3837 H         1 RES1    0.0000
     50 H22        9.8708    4.0207   21.5762 H         1 RES1    0.0000
     51 H23       11.0228    3.7816   22.6113 H         1 RES1    0.0000
     52 C25       11.5830    6.0020   21.5132 C.3       1 RES1    0.0000
     53 H24       10.6694    6.2944   21.4566 H         1 RES1    0.0000
     54 H25       12.1501    6.6364   21.0688 H         1 RES1    0.0000
     55 H26       11.8392    5.9334   22.4363 H         1 RES1    0.0000
     56 C26        9.9215    4.0503   19.0876 C.3       1 RES1    0.0000
     57 H27        9.2694    4.5888   19.5439 H         1 RES1    0.0000
     58 H28        9.8941    3.1555   19.4331 H         1 RES1    0.0000
     59 H29        9.7242    4.0384   18.1479 H         1 RES1    0.0000
     60 C27       11.2954    6.0174   18.6815 C.3       1 RES1    0.0000
     61 H30       10.6351    6.5548   19.1270 H         1 RES1    0.0000
     62 H31       11.0680    5.9346   17.7537 H         1 RES1    0.0000
     63 H32       12.1556    6.4340   18.7654 H         1 RES1    0.0000
@<TRIPOS>BOND
     1    1    2 1
     2    2    3 1
     3    3    4 1
     4    4    5 1
     5    5    1 1
     6    6    3 2
     7    7    6 1
     8    8    6 1
     9    9    8 2
    10   10    9 1
    11   11   10 1
    12   12    8 1
    13   13   12 ar
    14   14   13 1
    15   15   13 ar
    16   16   15 1
    17   17   15 ar
    18   18   17 1
    19   19   17 ar
    20   20   19 1
    21   21   12 ar
    22   22   21 1
    23   23    4 1
    24   24   23 1
    25   25   23 1
    26   26   23 1
    27   27   26 2
    28   28    4 1
    29   29   26 1
    30   30   29 ar
    31   31   30 1
    32   32   30 ar
    33   33   32 1
    34   34   32 ar
    35   35   34 1
    36   36   34 ar
    37   37   36 1
    38   38   29 ar
    39   39   38 1
    40   40    5 1
    41   41   40 1
    42   42   40 1
    43   43   40 1
    44   44    5 1
    45   45   44 1
    46   46   44 1
    47   47   44 1
    48   48    1 1
    49   49   48 1
    50   50   48 1
    51   51   48 1
    52   52    1 1
    53   53   52 1
    54   54   52 1
    55   55   52 1
    56   56    2 1
    57   57   56 1
    58   58   56 1
    59   59   56 1
    60   60    2 1
    61   61   60 1
    62   62   60 1
    63   63   60 1
    64   19   21 ar
    65   27   28 1
    66   36   38 ar
@<TRIPOS>SUBSTRUCTURE
     1 RES1 1

@<TRIPOS>CRYSIN
  13.6980   11.8360   29.1570  90.0000  90.0000  90.0000  61 1

