# MOL2 file generated by ConQuest
# Please check atom types

@<TRIPOS>MOLECULE
QOYCUD
   118   126     2
SMALL
NO_CHARGES
****
Generated from CSD

@<TRIPOS>ATOM
      1 C1         2.3007    1.8693   33.9509 C.3       1 RES1    0.0000
      2 H1         3.2664    1.7567   34.1855 H         1 RES1    0.0000
      3 N1         1.6864    0.5284   33.9849 N.3       1 RES1    0.0000
      4 C2         0.2411    0.4352   34.2234 C.3       1 RES1    0.0000
      5 H2         0.0350   -0.5409   34.2887 H         1 RES1    0.0000
      6 C3        -0.1304    1.0347   35.5797 C.3       1 RES1    0.0000
      7 H3        -1.1086    1.1792   35.6263 H         1 RES1    0.0000
      8 H4         0.1232    0.4078   36.3028 H         1 RES1    0.0000
      9 C4         0.5799    2.3341   35.7673 C.2       1 RES1    0.0000
     10 C5         0.3327    3.3969   36.6949 C.ar      1 RES1    0.0000
     11 C6        -0.6179    3.6054   37.7107 C.ar      1 RES1    0.0000
     12 H5        -1.2956    2.9610   37.8773 H         1 RES1    0.0000
     13 C7        -0.5492    4.7580   38.4563 C.ar      1 RES1    0.0000
     14 H6        -1.1856    4.9025   39.1461 H         1 RES1    0.0000
     15 C8         0.4421    5.7280   38.2205 C.ar      1 RES1    0.0000
     16 H7         0.4640    6.5139   38.7525 H         1 RES1    0.0000
     17 C9         1.3883    5.5522   37.2223 C.ar      1 RES1    0.0000
     18 H8         2.0577    6.2065   37.0595 H         1 RES1    0.0000
     19 C10        1.3205    4.3814   36.4663 C.ar      1 RES1    0.0000
     20 N2         2.1292    3.9302   35.4356 N.pl3     1 RES1    0.0000
     21 H9         2.8244    4.3745   35.0875 H         1 RES1    0.0000
     22 C11        1.6767    2.6863   35.0389 C.2       1 RES1    0.0000
     23 O1        -1.6616    1.6370   33.2863 O.2       1 RES1    0.0000
     24 C12       -0.6631    0.9860   33.1108 C.2       1 RES1    0.0000
     25 O2        -0.2344    0.5903   31.9039 O.3       1 RES1    0.0000
     26 C13       -1.0620    0.9951   30.7761 C.3       1 RES1    0.0000
     27 H10       -1.3074    1.9514   30.8568 H         1 RES1    0.0000
     28 H11       -1.8931    0.4580   30.7498 H         1 RES1    0.0000
     29 C14       -0.2491    0.7646   29.5318 C.3       1 RES1    0.0000
     30 H12       -0.7896    0.9807   28.7434 H         1 RES1    0.0000
     31 H13        0.0271   -0.1750   29.4924 H         1 RES1    0.0000
     32 H14        0.5454    1.3382   29.5497 H         1 RES1    0.0000
     33 C15        2.2433    2.5821   32.5961 C.ar      1 RES1    0.0000
     34 C16        3.2471    2.3349   31.6574 C.ar      1 RES1    0.0000
     35 H15        3.9614    1.7498   31.8810 H         1 RES1    0.0000
     36 C17        3.2184    2.9290   30.4096 C.ar      1 RES1    0.0000
     37 H16        3.8856    2.7328   29.7638 H         1 RES1    0.0000
     38 C18        2.1938    3.8154   30.1245 C.ar      1 RES1    0.0000
     39 N3         2.1810    4.4826   28.8152 N.pl3     1 RES1    0.0000
     40 O3         2.9252    4.0611   27.9343 O.2       1 RES1    0.0000
     41 O4         1.4190    5.4342   28.6570 O.2       1 RES1    0.0000
     42 C19        1.1898    4.1128   31.0372 C.ar      1 RES1    0.0000
     43 H17        0.5035    4.7336   30.8224 H         1 RES1    0.0000
     44 C20        1.2191    3.4776   32.2674 C.ar      1 RES1    0.0000
     45 H18        0.5320    3.6526   32.9014 H         1 RES1    0.0000
     46 C21        2.2325   -0.4405   33.0489 C.3       1 RES1    0.0000
     47 H19        2.3671    0.0038   32.1753 H         1 RES1    0.0000
     48 H20        1.5706   -1.1655   32.9205 H         1 RES1    0.0000
     49 C22        3.5512   -1.0552   33.4926 C.ar      1 RES1    0.0000
     50 C23        4.2614   -1.8343   32.5712 C.ar      1 RES1    0.0000
     51 H21        3.9868   -1.8586   31.6632 H         1 RES1    0.0000
     52 C24        5.3658   -2.5699   32.9782 C.ar      1 RES1    0.0000
     53 H22        5.8310   -3.1109   32.3511 H         1 RES1    0.0000
     54 C25        5.7911   -2.5205   34.2967 C.ar      1 RES1    0.0000
     55 H23        6.5309   -3.0447   34.5792 H         1 RES1    0.0000
     56 C26        5.1327   -1.7019   35.1979 C.ar      1 RES1    0.0000
     57 H24        5.4442   -1.6365   36.0926 H         1 RES1    0.0000
     58 C27        4.0129   -0.9723   34.7981 C.ar      1 RES1    0.0000
     59 H25        3.5644   -0.4154   35.4238 H         1 RES1    0.0000
     60 C28        0.3074    4.8607   23.3834 C.3       2 RES2    0.0000
     61 H26        0.3951    3.8876   23.1674 H         2 RES2    0.0000
     62 N4         1.6587    5.4559   23.2534 N.3       2 RES2    0.0000
     63 C29        1.7574    6.8935   22.9798 C.3       2 RES2    0.0000
     64 H27        2.7283    7.0746   22.8235 H         2 RES2    0.0000
     65 C30        1.0452    7.2838   21.6819 C.3       2 RES2    0.0000
     66 H28        0.8768    8.2591   21.6769 H         2 RES2    0.0000
     67 H29        1.6214    7.0647   20.9088 H         2 RES2    0.0000
     68 C31       -0.2511    6.5504   21.5650 C.2       2 RES2    0.0000
     69 C32       -1.3547    6.7619   20.6688 C.ar      2 RES2    0.0000
     70 C33       -1.6128    7.6878   19.6529 C.ar      2 RES2    0.0000
     71 H30       -0.9836    8.3695   19.4489 H         2 RES2    0.0000
     72 C34       -2.8069    7.5912   18.9482 C.ar      2 RES2    0.0000
     73 H31       -2.9917    8.2074   18.2488 H         2 RES2    0.0000
     74 C35       -3.7367    6.5968   19.2582 C.ar      2 RES2    0.0000
     75 H32       -4.5451    6.5519   18.7610 H         2 RES2    0.0000
     76 C36       -3.5182    5.6740   20.2663 C.ar      2 RES2    0.0000
     77 H33       -4.1622    5.0068   20.4731 H         2 RES2    0.0000
     78 C37       -2.3122    5.7645   20.9638 C.ar      2 RES2    0.0000
     79 N5        -1.8125    4.9870   21.9892 N.pl3     2 RES2    0.0000
     80 H34       -2.1829    4.2832   22.3190 H         2 RES2    0.0000
     81 C38       -0.5579    5.4670   22.3224 C.2       2 RES2    0.0000
     82 O5         0.4839    8.6479   24.1152 O.2       2 RES2    0.0000
     83 C39        1.3430    7.8118   24.1450 C.2       2 RES2    0.0000
     84 O6         2.1097    7.5693   25.2224 O.3       2 RES2    0.0000
     85 C40        1.8370    8.3565   26.4071 C.3       2 RES2    0.0000
     86 H35        0.9726    8.0849   26.8057 H         2 RES2    0.0000
     87 H36        1.7869    9.3174   26.1751 H         2 RES2    0.0000
     88 C41        2.9501    8.1169   27.3763 C.3       2 RES2    0.0000
     89 H37        2.7361    8.5429   28.2312 H         2 RES2    0.0000
     90 H38        3.7806    8.4973   27.0197 H         2 RES2    0.0000
     91 H39        3.0645    7.1529   27.5128 H         2 RES2    0.0000
     92 C42       -0.3338    4.9543   24.7706 C.ar      2 RES2    0.0000
     93 C43       -0.1363    3.9074   25.6707 C.ar      2 RES2    0.0000
     94 H40        0.3699    3.1497   25.4031 H         2 RES2    0.0000
     95 C44       -0.6660    3.9523   26.9471 C.ar      2 RES2    0.0000
     96 H41       -0.5212    3.2402   27.5586 H         2 RES2    0.0000
     97 C45       -1.4083    5.0570   27.3098 C.ar      2 RES2    0.0000
     98 N6        -1.9451    5.1186   28.6772 N.pl3     2 RES2    0.0000
     99 O7        -1.6841    4.2003   29.4454 O.2       2 RES2    0.0000
    100 O8        -2.6264    6.0932   28.9906 O.2       2 RES2    0.0000
    101 C46       -1.6548    6.1031   26.4369 C.ar      2 RES2    0.0000
    102 H42       -2.1811    6.8471   26.7064 H         2 RES2    0.0000
    103 C47       -1.1143    6.0384   25.1605 C.ar      2 RES2    0.0000
    104 H43       -1.2796    6.7429   24.5433 H         2 RES2    0.0000
    105 C48        2.6481    4.9352   24.1928 C.3       2 RES2    0.0000
    106 H44        2.2119    4.8067   25.0707 H         2 RES2    0.0000
    107 H45        3.3596    5.6139   24.3101 H         2 RES2    0.0000
    108 C49        3.2919    3.6282   23.7785 C.ar      2 RES2    0.0000
    109 C50        4.2428    3.0782   24.6468 C.ar      2 RES2    0.0000
    110 H46        4.3673    3.4563   25.5102 H         2 RES2    0.0000
    111 C51        5.0050    1.9872   24.2593 C.ar      2 RES2    0.0000
    112 H47        5.6502    1.6273   24.8566 H         2 RES2    0.0000
    113 C52        4.8331    1.4196   23.0115 C.ar      2 RES2    0.0000
    114 H48        5.3742    0.6878   22.7394 H         2 RES2    0.0000
    115 C53        3.8608    1.9294   22.1600 C.ar      2 RES2    0.0000
    116 H49        3.7202    1.5277   21.3101 H         2 RES2    0.0000
    117 C54        3.0921    3.0226   22.5418 C.ar      2 RES2    0.0000
    118 H50        2.4254    3.3589   21.9559 H         2 RES2    0.0000
@<TRIPOS>BOND
     1    1    2 1
     2    3    1 1
     3    4    3 1
     4    5    4 1
     5    6    4 1
     6    7    6 1
     7    8    6 1
     8    9    6 1
     9   10    9 1
    10   11   10 ar
    11   12   11 1
    12   13   11 ar
    13   14   13 1
    14   15   13 ar
    15   16   15 1
    16   17   15 ar
    17   18   17 1
    18   19   10 ar
    19   20   19 1
    20   21   20 1
    21   22    1 1
    22   23   24 2
    23   24    4 1
    24   25   24 1
    25   26   25 1
    26   27   26 1
    27   28   26 1
    28   29   26 1
    29   30   29 1
    30   31   29 1
    31   32   29 1
    32   33    1 1
    33   34   33 ar
    34   35   34 1
    35   36   34 ar
    36   37   36 1
    37   38   36 ar
    38   39   38 1
    39   40   39 2
    40   41   39 2
    41   42   38 ar
    42   43   42 1
    43   44   33 ar
    44   45   44 1
    45   46    3 1
    46   47   46 1
    47   48   46 1
    48   49   46 1
    49   50   49 ar
    50   51   50 1
    51   52   50 ar
    52   53   52 1
    53   54   52 ar
    54   55   54 1
    55   56   54 ar
    56   57   56 1
    57   58   49 ar
    58   59   58 1
    59   60   61 1
    60   62   60 1
    61   63   62 1
    62   64   63 1
    63   65   63 1
    64   66   65 1
    65   67   65 1
    66   68   65 1
    67   69   68 1
    68   70   69 ar
    69   71   70 1
    70   72   70 ar
    71   73   72 1
    72   74   72 ar
    73   75   74 1
    74   76   74 ar
    75   77   76 1
    76   78   69 ar
    77   79   78 1
    78   80   79 1
    79   81   60 1
    80   82   83 2
    81   83   63 1
    82   84   83 1
    83   85   84 1
    84   86   85 1
    85   87   85 1
    86   88   85 1
    87   89   88 1
    88   90   88 1
    89   91   88 1
    90   92   60 1
    91   93   92 ar
    92   94   93 1
    93   95   93 ar
    94   96   95 1
    95   97   95 ar
    96   98   97 1
    97   99   98 2
    98  100   98 2
    99  101   97 ar
   100  102  101 1
   101  103   92 ar
   102  104  103 1
   103  105   62 1
   104  106  105 1
   105  107  105 1
   106  108  105 1
   107  109  108 ar
   108  110  109 1
   109  111  109 ar
   110  112  111 1
   111  113  111 ar
   112  114  113 1
   113  115  113 ar
   114  116  115 1
   115  117  108 ar
   116  118  117 1
   117    9   22 2
   118   17   19 ar
   119   20   22 1
   120   42   44 ar
   121   56   58 ar
   122   68   81 2
   123   76   78 ar
   124   79   81 1
   125  101  103 ar
   126  115  117 ar
@<TRIPOS>SUBSTRUCTURE
     1 RES1 1
     2 RES2 60

@<TRIPOS>CRYSIN
   7.7011    7.6079   38.2710  90.0000  93.0310  90.0000   4 1

