# MOL2 file generated by ConQuest
# Please check atom types

@<TRIPOS>MOLECULE
QOYGUH01
    66    68     2
SMALL
NO_CHARGES
****
Generated from CSD

@<TRIPOS>ATOM
      1 O1         0.8592    8.4901   -1.0521 O.3       1 RES1    0.0000
      2 H1         1.0515    7.6788   -0.9469 H         1 RES1    0.0000
      3 O2         1.8702    2.7684    1.5863 O.2       1 RES1    0.0000
      4 O3         2.8580    1.0897    0.6353 O.2       1 RES1    0.0000
      5 N1         1.5023    4.9747    0.3238 N.pl3     1 RES1    0.0000
      6 H2         1.4437    4.5582    1.0972 H         1 RES1    0.0000
      7 N2         1.0729    6.2675    0.2268 N.2       1 RES1    0.0000
      8 N3         2.3884    2.2179    0.5807 N.pl3     1 RES1    0.0000
      9 C1         2.0226    4.3092   -0.7569 C.ar      1 RES1    0.0000
     10 C2         2.4648    2.9642   -0.6504 C.ar      1 RES1    0.0000
     11 C3         2.9655    2.2871   -1.7489 C.ar      1 RES1    0.0000
     12 H3         3.2411    1.3826   -1.6519 H         1 RES1    0.0000
     13 C4         3.0712    2.8922   -2.9649 C.ar      1 RES1    0.0000
     14 H4         3.4010    2.4179   -3.7191 H         1 RES1    0.0000
     15 C5         2.6739    4.2557   -3.0756 C.ar      1 RES1    0.0000
     16 H5         2.7754    4.7060   -3.9049 H         1 RES1    0.0000
     17 C6         2.1527    4.9216   -2.0153 C.ar      1 RES1    0.0000
     18 H6         1.8696    5.8219   -2.1260 H         1 RES1    0.0000
     19 C7         0.4723    6.7677    1.2748 C.2       1 RES1    0.0000
     20 C8         0.0881    8.1728    1.2270 C.ar      1 RES1    0.0000
     21 C9         0.2859    8.9648    0.0724 C.ar      1 RES1    0.0000
     22 C10       -0.0634   10.3216    0.0833 C.ar      1 RES1    0.0000
     23 H7         0.1003   10.8617   -0.6804 H         1 RES1    0.0000
     24 C11       -0.6426   10.8652    1.1996 C.ar      1 RES1    0.0000
     25 H8        -0.8926   11.7825    1.1942 H         1 RES1    0.0000
     26 C12       -0.8697   10.1135    2.3241 C.ar      1 RES1    0.0000
     27 H9        -1.2663   10.5119    3.0893 H         1 RES1    0.0000
     28 C13       -0.5189    8.7721    2.3419 C.ar      1 RES1    0.0000
     29 H10       -0.6925    8.2527    3.1179 H         1 RES1    0.0000
     30 C14        0.2670    5.9462    2.5222 C.3       1 RES1    0.0000
     31 H11       -0.2380    5.1355    2.3009 H         1 RES1    0.0000
     32 H12       -0.2333    6.4718    3.1808 H         1 RES1    0.0000
     33 H13        1.1373    5.6970    2.8966 H         1 RES1    0.0000
     34 O4         1.4081    6.2238    5.7058 O.3       2 RES2    0.0000
     35 H14        1.1111    5.4504    5.8465 H         2 RES2    0.0000
     36 O5        -0.0422    0.6611    8.4780 O.2       2 RES2    0.0000
     37 O6        -1.0244   -1.0015    7.4956 O.2       2 RES2    0.0000
     38 N4         0.4878    2.8117    7.1664 N.pl3     2 RES2    0.0000
     39 H15        0.4797    2.4187    7.9547 H         2 RES2    0.0000
     40 N5         0.9985    4.0794    7.0557 N.2       2 RES2    0.0000
     41 N6        -0.5424    0.1258    7.4669 N.pl3     2 RES2    0.0000
     42 C15       -0.0102    2.1397    6.0829 C.ar      2 RES2    0.0000
     43 C16       -0.5181    0.8153    6.1826 C.ar      2 RES2    0.0000
     44 C17       -1.0377    0.1612    5.0813 C.ar      2 RES2    0.0000
     45 H16       -1.3755   -0.7227    5.1715 H         2 RES2    0.0000
     46 C18       -1.0668    0.7786    3.8653 C.ar      2 RES2    0.0000
     47 H17       -1.4153    0.3269    3.1056 H         2 RES2    0.0000
     48 C19       -0.5830    2.0722    3.7465 C.ar      2 RES2    0.0000
     49 H18       -0.5990    2.5048    2.8993 H         2 RES2    0.0000
     50 C20       -0.0883    2.7272    4.8217 C.ar      2 RES2    0.0000
     51 H19        0.2171    3.6204    4.7138 H         2 RES2    0.0000
     52 C21        1.5161    4.5706    8.1474 C.2       2 RES2    0.0000
     53 C22        2.0149    5.9642    8.0312 C.ar      2 RES2    0.0000
     54 C23        1.9393    6.7122    6.8412 C.ar      2 RES2    0.0000
     55 C24        2.4143    8.0267    6.8152 C.ar      2 RES2    0.0000
     56 H20        2.3768    8.5205    6.0036 H         2 RES2    0.0000
     57 C25        2.9290    8.6125    7.9301 C.ar      2 RES2    0.0000
     58 H21        3.2463    9.5073    7.8946 H         2 RES2    0.0000
     59 C26        2.9868    7.9020    9.1106 C.ar      2 RES2    0.0000
     60 H22        3.3311    8.3197    9.8922 H         2 RES2    0.0000
     61 C27        2.5586    6.6101    9.1735 C.ar      2 RES2    0.0000
     62 H23        2.6230    6.1346    9.9933 H         2 RES2    0.0000
     63 C28        1.6354    3.7895    9.4263 C.3       2 RES2    0.0000
     64 H24        0.7533    3.4535    9.6872 H         2 RES2    0.0000
     65 H25        1.9850    4.3724   10.1326 H         2 RES2    0.0000
     66 H26        2.2468    3.0358    9.2924 H         2 RES2    0.0000
@<TRIPOS>BOND
     1    1    2 1
     2    3    8 2
     3    4    8 2
     4    5    6 1
     5    7    5 1
     6    8   10 1
     7    9    5 1
     8   10    9 ar
     9   11   10 ar
    10   12   11 1
    11   13   11 ar
    12   14   13 1
    13   15   13 ar
    14   16   15 1
    15   17    9 ar
    16   18   17 1
    17   19    7 2
    18   20   19 1
    19   21    1 1
    20   22   21 ar
    21   23   22 1
    22   24   22 ar
    23   25   24 1
    24   26   24 ar
    25   27   26 1
    26   28   20 ar
    27   29   28 1
    28   30   19 1
    29   31   30 1
    30   32   30 1
    31   33   30 1
    32   34   35 1
    33   36   41 2
    34   37   41 2
    35   38   39 1
    36   40   38 1
    37   41   43 1
    38   42   38 1
    39   43   42 ar
    40   44   43 ar
    41   45   44 1
    42   46   44 ar
    43   47   46 1
    44   48   46 ar
    45   49   48 1
    46   50   42 ar
    47   51   50 1
    48   52   40 2
    49   53   52 1
    50   54   34 1
    51   55   54 ar
    52   56   55 1
    53   57   55 ar
    54   58   57 1
    55   59   57 ar
    56   60   59 1
    57   61   53 ar
    58   62   61 1
    59   63   52 1
    60   64   63 1
    61   65   63 1
    62   66   63 1
    63   15   17 ar
    64   20   21 ar
    65   26   28 ar
    66   48   50 ar
    67   53   54 ar
    68   59   61 ar
@<TRIPOS>SUBSTRUCTURE
     1 RES1 1
     2 RES2 34

@<TRIPOS>CRYSIN
   7.4131   12.3700   14.3430 107.2870  91.7550  96.5830   2 1

