# MOL2 file generated by ConQuest
# Please check atom types

@<TRIPOS>MOLECULE
QOYHES
    33    34     1
SMALL
NO_CHARGES
****
Generated from CSD

@<TRIPOS>ATOM
      1 O1         5.7085    5.5914    8.1624 O.3       1 RES1    0.0000
      2 H1         5.5413    5.0897    7.5091 H         1 RES1    0.0000
      3 O2         2.7850   -1.7737    5.3544 O.2       1 RES1    0.0000
      4 O3         2.8846   -1.2227    7.4500 O.2       1 RES1    0.0000
      5 N1         5.0022    4.0510    4.7601 N.pl3     1 RES1    0.0000
      6 H2         5.2240    4.2461    3.8881 H         1 RES1    0.0000
      7 N2         5.4301    4.9717    5.6931 N.2       1 RES1    0.0000
      8 N3         3.0611   -0.9663    6.2495 N.pl3     1 RES1    0.0000
      9 C1         4.5933    2.8013    5.1675 C.ar      1 RES1    0.0000
     10 C2         4.1298    1.9140    4.1825 C.ar      1 RES1    0.0000
     11 H3         4.1545    2.1714    3.2682 H         1 RES1    0.0000
     12 C3         3.6423    0.6801    4.5303 C.ar      1 RES1    0.0000
     13 H4         3.3318    0.0808    3.8620 H         1 RES1    0.0000
     14 C4         3.6059    0.3140    5.8781 C.ar      1 RES1    0.0000
     15 C5         4.0788    1.1698    6.8656 C.ar      1 RES1    0.0000
     16 H5         4.0585    0.9022    7.7774 H         1 RES1    0.0000
     17 C6         4.5769    2.4101    6.5191 C.ar      1 RES1    0.0000
     18 H6         4.9064    2.9973    7.1898 H         1 RES1    0.0000
     19 C7         5.7418    6.1638    5.3005 C.2       1 RES1    0.0000
     20 C8         6.2318    7.1031    6.3278 C.ar      1 RES1    0.0000
     21 C9         6.2160    6.7714    7.7091 C.ar      1 RES1    0.0000
     22 C10        6.7234    7.6550    8.6643 C.ar      1 RES1    0.0000
     23 H7         6.7080    7.4181    9.5836 H         1 RES1    0.0000
     24 C11        7.2491    8.8787    8.2718 C.ar      1 RES1    0.0000
     25 H8         7.5966    9.4761    8.9227 H         1 RES1    0.0000
     26 C12        7.2674    9.2336    6.9253 C.ar      1 RES1    0.0000
     27 H9         7.6207   10.0735    6.6569 H         1 RES1    0.0000
     28 C13        6.7681    8.3528    5.9799 C.ar      1 RES1    0.0000
     29 H10        6.7897    8.6037    5.0632 H         1 RES1    0.0000
     30 C14        5.6209    6.5893    3.8533 C.3       1 RES1    0.0000
     31 H11        4.7809    6.2474    3.4819 H         1 RES1    0.0000
     32 H12        6.3750    6.2279    3.3428 H         1 RES1    0.0000
     33 H13        5.6278    7.5677    3.7999 H         1 RES1    0.0000
@<TRIPOS>BOND
     1    1    2 1
     2    3    8 2
     3    4    8 2
     4    5    6 1
     5    7    5 1
     6    8   14 1
     7    9    5 1
     8   10    9 ar
     9   11   10 1
    10   12   10 ar
    11   13   12 1
    12   14   12 ar
    13   15   14 ar
    14   16   15 1
    15   17    9 ar
    16   18   17 1
    17   19    7 2
    18   20   19 1
    19   21    1 1
    20   22   21 ar
    21   23   22 1
    22   24   22 ar
    23   25   24 1
    24   26   24 ar
    25   27   26 1
    26   28   20 ar
    27   29   28 1
    28   30   19 1
    29   31   30 1
    30   32   30 1
    31   33   30 1
    32   15   17 ar
    33   20   21 ar
    34   26   28 ar
@<TRIPOS>SUBSTRUCTURE
     1 RES1 1

@<TRIPOS>CRYSIN
  10.5960    9.2912   12.4369  90.0000  92.8060  90.0000   9 1

