# MOL2 file generated by ConQuest
# Please check atom types

@<TRIPOS>MOLECULE
QOYHAO
    33    34     1
SMALL
NO_CHARGES
****
Generated from CSD

@<TRIPOS>ATOM
      1 O1         0.5228   10.5333    9.3821 O.3       1 RES1    0.0000
      2 H1         0.0844   10.7904   10.0515 H         1 RES1    0.0000
      3 O2        -2.8202   12.7864    8.4766 O.2       1 RES1    0.0000
      4 O3        -4.5841   13.9377    8.9679 O.2       1 RES1    0.0000
      5 N1        -0.9425   11.2193   12.8063 N.pl3     1 RES1    0.0000
      6 H2        -0.6986   11.2297   13.6543 H         1 RES1    0.0000
      7 N2        -0.0942   10.7055   11.8667 N.2       1 RES1    0.0000
      8 N3        -3.5944   13.2885    9.2939 N.pl3     1 RES1    0.0000
      9 C1        -1.9454   12.0879   12.3948 C.ar      1 RES1    0.0000
     10 C2        -2.2458   12.2760   11.0445 C.ar      1 RES1    0.0000
     11 H3        -1.7347   11.8528   10.3643 H         1 RES1    0.0000
     12 C3        -3.3134   13.1001   10.7269 C.ar      1 RES1    0.0000
     13 C4        -4.0956   13.7558   11.6567 C.ar      1 RES1    0.0000
     14 H4        -4.8262   14.3048   11.3951 H         1 RES1    0.0000
     15 C5        -3.7618   13.5731   12.9935 C.ar      1 RES1    0.0000
     16 H5        -4.2661   14.0184   13.6644 H         1 RES1    0.0000
     17 C6        -2.7074   12.7547   13.3665 C.ar      1 RES1    0.0000
     18 H6        -2.4989   12.6436   14.2872 H         1 RES1    0.0000
     19 C7         0.8188    9.8480   12.2132 C.2       1 RES1    0.0000
     20 C8         1.7059    9.3534   11.1480 C.ar      1 RES1    0.0000
     21 C9         1.5157    9.7024    9.7852 C.ar      1 RES1    0.0000
     22 C10        2.3748    9.2145    8.8018 C.ar      1 RES1    0.0000
     23 H7         2.2216    9.4367    7.8904 H         1 RES1    0.0000
     24 C11        3.4468    8.4106    9.1393 C.ar      1 RES1    0.0000
     25 H8         4.0319    8.0895    8.4627 H         1 RES1    0.0000
     26 C12        3.6672    8.0729   10.4689 C.ar      1 RES1    0.0000
     27 H9         4.4065    7.5250   10.7046 H         1 RES1    0.0000
     28 C13        2.8103    8.5365   11.4483 C.ar      1 RES1    0.0000
     29 H10        2.9719    8.2962   12.3524 H         1 RES1    0.0000
     30 C14        0.9811    9.3573   13.6296 C.3       1 RES1    0.0000
     31 H11        1.6440    9.9118   14.0925 H         1 RES1    0.0000
     32 H12        1.2844    8.4247   13.6197 H         1 RES1    0.0000
     33 H13        0.1219    9.4172   14.0969 H         1 RES1    0.0000
@<TRIPOS>BOND
     1    1    2 1
     2    3    8 2
     3    4    8 2
     4    5    6 1
     5    7    5 1
     6    8   12 1
     7    9    5 1
     8   10    9 ar
     9   11   10 1
    10   12   10 ar
    11   13   12 ar
    12   14   13 1
    13   15   13 ar
    14   16   15 1
    15   17    9 ar
    16   18   17 1
    17   19    7 2
    18   20   19 1
    19   21    1 1
    20   22   21 ar
    21   23   22 1
    22   24   22 ar
    23   25   24 1
    24   26   24 ar
    25   27   26 1
    26   28   20 ar
    27   29   28 1
    28   30   19 1
    29   31   30 1
    30   32   30 1
    31   33   30 1
    32   15   17 ar
    33   20   21 ar
    34   26   28 ar
@<TRIPOS>SUBSTRUCTURE
     1 RES1 1

@<TRIPOS>CRYSIN
   5.4396   16.2702   14.4207  90.0000  91.3107  90.0000 231 1

