# MOL2 file generated by ConQuest
# Please check atom types

@<TRIPOS>MOLECULE
QOYJOD04
    11    11     1
SMALL
NO_CHARGES
****
Generated from CSD

@<TRIPOS>ATOM
      1 N1         5.6896    4.0666    2.0991 N.am      1 RES1    0.0000
      2 H1         5.0926    3.5543    1.7895 H         1 RES1    0.0000
      3 O1         7.7631    3.2574    1.4336 O.2       1 RES1    0.0000
      4 N2         5.1907    5.1129    2.8324 N.2       1 RES1    0.0000
      5 N3         7.4145    5.1931    2.7307 N.am      1 RES1    0.0000
      6 H2         8.2386    5.4768    2.8315 H         1 RES1    0.0000
      7 C1         7.0535    4.0798    2.0090 C.2       1 RES1    0.0000
      8 O2         7.2895    7.4598    4.2490 O.2       1 RES1    0.0000
      9 O3         5.1249    7.2762    4.4248 O.2       1 RES1    0.0000
     10 N4         6.2214    6.9183    4.0126 N.pl3     1 RES1    0.0000
     11 C2         6.2651    5.7363    3.1848 C.2       1 RES1    0.0000
@<TRIPOS>BOND
     1    1    2 1
     2    3    7 2
     3    4    1 1
     4    5    6 1
     5    7    1 1
     6    8   10 2
     7    9   10 2
     8   10   11 1
     9   11    4 2
    10    5    7 1
    11    5   11 1
@<TRIPOS>SUBSTRUCTURE
     1 RES1 1

@<TRIPOS>CRYSIN
   9.3233    5.4977    9.0885  90.0000 101.0190  90.0000  14 1

