# MOL2 file generated by ConQuest
# Please check atom types

@<TRIPOS>MOLECULE
QOYJOD02
    11    11     1
SMALL
NO_CHARGES
****
Generated from CSD

@<TRIPOS>ATOM
      1 N1         5.6734    4.0208    2.0909 N.am      1 RES1    0.0000
      2 H1         5.0941    3.4932    1.7591 H         1 RES1    0.0000
      3 O1         7.7572    3.2250    1.4203 O.2       1 RES1    0.0000
      4 N2         5.1704    5.0639    2.8201 N.2       1 RES1    0.0000
      5 N3         7.3972    5.1644    2.7146 N.am      1 RES1    0.0000
      6 H2         8.2363    5.4326    2.8192 H         1 RES1    0.0000
      7 C1         7.0425    4.0448    1.9969 C.2       1 RES1    0.0000
      8 O2         7.2592    7.4347    4.2262 O.2       1 RES1    0.0000
      9 O3         5.0915    7.2321    4.4134 O.2       1 RES1    0.0000
     10 N4         6.1940    6.8809    3.9991 N.pl3     1 RES1    0.0000
     11 C2         6.2402    5.6980    3.1688 C.2       1 RES1    0.0000
@<TRIPOS>BOND
     1    1    2 1
     2    3    7 2
     3    4    1 1
     4    5    6 1
     5    7    1 1
     6    8   10 2
     7    9   10 2
     8   10   11 1
     9   11    4 2
    10    5    7 1
    11    5   11 1
@<TRIPOS>SUBSTRUCTURE
     1 RES1 1

@<TRIPOS>CRYSIN
   9.3185    5.4615    9.0475  90.0000 101.3320  90.0000  14 1

