# MOL2 file generated by ConQuest
# Please check atom types

@<TRIPOS>MOLECULE
QOYJOD08
    44    44     4
SMALL
NO_CHARGES
****
Generated from CSD

@<TRIPOS>ATOM
      1 O1         2.0277  -20.0265    9.1971 O.2       1 RES1    0.0000
      2 O2         5.0801  -15.9869   11.8123 O.2       1 RES1    0.0000
      3 O3         2.8967  -15.9133   12.0518 O.2       1 RES1    0.0000
      4 N1         4.8063  -18.2537   10.3396 N.2       1 RES1    0.0000
      5 N2         4.2113  -19.2875    9.6537 N.am      1 RES1    0.0000
      6 N3         2.5831  -18.1150   10.4696 N.am      1 RES1    0.0000
      7 N4         3.9471  -16.3990   11.6156 N.pl3     1 RES1    0.0000
      8 C1         3.7900  -17.5968   10.8049 C.2       1 RES1    0.0000
      9 C2         2.8471  -19.2529    9.6999 C.2       1 RES1    0.0000
     10 H1         4.6948  -19.8720    9.2364 H         1 RES1    0.0000
     11 H2         1.6777  -17.7722   10.6732 H         1 RES1    0.0000
     12 O4         4.8272  -17.3838   16.4682 O.2       2 RES2    0.0000
     13 O5         1.8030  -13.4039   13.7383 O.2       2 RES2    0.0000
     14 O6         3.9878  -13.2660   13.5826 O.2       2 RES2    0.0000
     15 N5         2.0688  -15.6165   15.2657 N.2       2 RES2    0.0000
     16 N6         2.6510  -16.6466   15.9807 N.am      2 RES2    0.0000
     17 N7         4.2935  -15.4853   15.1665 N.am      2 RES2    0.0000
     18 N8         2.9516  -13.7831   13.9812 N.pl3     2 RES2    0.0000
     19 C3         3.0928  -14.9656   14.8142 C.2       2 RES2    0.0000
     20 C4         4.0193  -16.6135   15.9431 C.2       2 RES2    0.0000
     21 H3         2.0901  -17.1885   16.3518 H         2 RES2    0.0000
     22 H4         5.0701  -15.1945   14.8809 H         2 RES2    0.0000
     23 O7         3.4459  -14.7418    9.2005 O.2       3 RES3    0.0000
     24 O8         0.3516  -10.8308   11.9577 O.2       3 RES3    0.0000
     25 O9         2.5309  -10.6631   12.1493 O.2       3 RES3    0.0000
     26 N9         0.6682  -13.0258   10.4217 N.2       3 RES3    0.0000
     27 N10        1.2659  -14.0400    9.6982 N.am      3 RES3    0.0000
     28 N11        2.8869  -12.8727   10.5380 N.am      3 RES3    0.0000
     29 N12        1.5062  -11.1938   11.7354 N.pl3     3 RES3    0.0000
     30 C5         1.6766  -12.3705   10.8955 C.2       3 RES3    0.0000
     31 C6         2.6296  -13.9862    9.7358 C.2       3 RES3    0.0000
     32 H5         0.8070  -14.6927    9.2706 H         3 RES3    0.0000
     33 H6         3.7651  -12.6083   10.8613 H         3 RES3    0.0000
     34 O10        3.3437  -12.2262   16.4750 O.2       4 RES4    0.0000
     35 O11        6.2730   -8.1849   13.7297 O.2       4 RES4    0.0000
     36 O12        4.0830   -8.1431   13.5878 O.2       4 RES4    0.0000
     37 N13        6.0839  -10.4434   15.2555 N.2       4 RES4    0.0000
     38 N14        5.5140  -11.4777   15.9704 N.am      4 RES4    0.0000
     39 N15        3.8586  -10.3345   15.1682 N.am      4 RES4    0.0000
     40 N16        5.1551   -8.6168   13.9760 N.pl3     4 RES4    0.0000
     41 C7         5.0524   -9.8055   14.7988 C.2       4 RES4    0.0000
     42 C8         4.1486  -11.4503   15.9448 C.2       4 RES4    0.0000
     43 H7         6.0709  -12.0867   16.3690 H         4 RES4    0.0000
     44 H8         3.0462  -10.1083   14.8809 H         4 RES4    0.0000
@<TRIPOS>BOND
     1    1    9 2
     2    2    7 2
     3    3    7 2
     4    4    5 1
     5    5    9 1
     6    6    8 1
     7    7    8 1
     8    8    4 2
     9    9    6 1
    10   10    5 1
    11   11    6 1
    12   12   20 2
    13   13   18 2
    14   14   18 2
    15   15   16 1
    16   16   20 1
    17   17   19 1
    18   18   19 1
    19   19   15 2
    20   20   17 1
    21   21   16 1
    22   22   17 1
    23   23   31 2
    24   24   29 2
    25   25   29 2
    26   26   27 1
    27   27   31 1
    28   28   30 1
    29   29   30 1
    30   30   26 2
    31   31   28 1
    32   32   27 1
    33   33   28 1
    34   34   42 2
    35   35   40 2
    36   36   40 2
    37   37   38 1
    38   38   42 1
    39   39   41 1
    40   40   41 1
    41   41   37 2
    42   42   39 1
    43   43   38 1
    44   44   39 1
@<TRIPOS>SUBSTRUCTURE
     1 RES1 1
     2 RES2 12
     3 RES3 23
     4 RES4 34

@<TRIPOS>CRYSIN
   5.1343   10.3380   18.0230 106.5770  97.6100  90.3000   2 1

