# MOL2 file generated by ConQuest
# Please check atom types

@<TRIPOS>MOLECULE
QOYJOD05
    11    11     1
SMALL
NO_CHARGES
****
Generated from CSD

@<TRIPOS>ATOM
      1 N1         5.6908    4.0936    2.1087 N.am      1 RES1    0.0000
      2 H1         5.1125    3.5382    1.8001 H         1 RES1    0.0000
      3 O1         7.7631    3.2787    1.4422 O.2       1 RES1    0.0000
      4 N2         5.1994    5.1394    2.8379 N.2       1 RES1    0.0000
      5 N3         7.4183    5.2128    2.7377 N.am      1 RES1    0.0000
      6 H2         8.2193    5.4679    2.8281 H         1 RES1    0.0000
      7 C1         7.0564    4.1025    2.0157 C.2       1 RES1    0.0000
      8 O2         7.2956    7.4783    4.2604 O.2       1 RES1    0.0000
      9 O3         5.1382    7.3094    4.4233 O.2       1 RES1    0.0000
     10 N4         6.2358    6.9383    4.0225 N.pl3     1 RES1    0.0000
     11 C2         6.2703    5.7628    3.1922 C.2       1 RES1    0.0000
@<TRIPOS>BOND
     1    1    2 1
     2    3    7 2
     3    4    1 1
     4    5    6 1
     5    7    1 1
     6    8   10 2
     7    9   10 2
     8   10   11 1
     9   11    4 2
    10    5    7 1
    11    5   11 1
@<TRIPOS>SUBSTRUCTURE
     1 RES1 1

@<TRIPOS>CRYSIN
   9.3207    5.5215    9.1102  90.0000 100.8700  90.0000  14 1

