# MOL2 file generated by ConQuest
# Please check atom types

@<TRIPOS>MOLECULE
QOYJOD06
    44    44     4
SMALL
NO_CHARGES
****
Generated from CSD

@<TRIPOS>ATOM
      1 N1        -0.6018   -5.2919   15.2400 N.2       1 RES1    0.0000
      2 N2        -0.0332   -6.3048   15.9438 N.am      1 RES1    0.0000
      3 H1        -0.4849   -6.9040   16.3643 H         1 RES1    0.0000
      4 C1         1.3325   -6.2716   15.9122 C.2       1 RES1    0.0000
      5 O1         2.1285   -7.0344   16.4341 O.2       1 RES1    0.0000
      6 N3         1.6144   -5.1648   15.1429 N.am      1 RES1    0.0000
      7 H2         2.3916   -4.8619   14.9320 H         1 RES1    0.0000
      8 C2         0.4172   -4.6558   14.7890 C.2       1 RES1    0.0000
      9 N4         0.2783   -3.4730   13.9556 N.pl3     1 RES1    0.0000
     10 O2         1.3102   -2.9636   13.5593 O.2       1 RES1    0.0000
     11 O3        -0.8537   -3.1017   13.7094 O.2       1 RES1    0.0000
     12 N5         3.4132   -0.1270   15.2234 N.2       2 RES2    0.0000
     13 N6         2.8313   -1.1435   15.9399 N.am      2 RES2    0.0000
     14 H3         3.2855   -1.7347   16.3677 H         2 RES2    0.0000
     15 C3         1.4746   -1.1298   15.9116 C.2       2 RES2    0.0000
     16 O4         0.6732   -1.8952   16.4404 O.2       2 RES2    0.0000
     17 N7         1.1993   -0.0299   15.1341 N.am      2 RES2    0.0000
     18 H4         0.4202    0.2652   14.9218 H         2 RES2    0.0000
     19 C4         2.3807    0.4956   14.7699 C.2       2 RES2    0.0000
     20 N8         2.5074    1.6756   13.9492 N.pl3     2 RES2    0.0000
     21 O5         1.4458    2.1462   13.5653 O.2       2 RES2    0.0000
     22 O6         3.6077    2.1141   13.7128 O.2       2 RES2    0.0000
     23 N9        -1.9858   -2.7057   10.4027 N.2       3 RES3    0.0000
     24 N10       -1.3888   -3.6987    9.6813 N.am      3 RES3    0.0000
     25 H5        -1.8297   -4.2937    9.2440 H         3 RES3    0.0000
     26 C5        -0.0350   -3.6561    9.7216 C.2       3 RES3    0.0000
     27 O7         0.7817   -4.3969    9.1917 O.2       3 RES3    0.0000
     28 N11        0.2210   -2.5520   10.5202 N.am      3 RES3    0.0000
     29 H6         0.9916   -2.2427   10.7428 H         3 RES3    0.0000
     30 C6        -0.9827   -2.0626   10.8773 C.2       3 RES3    0.0000
     31 N12       -1.1469   -0.8939   11.7109 N.pl3     3 RES3    0.0000
     32 O8        -0.1266   -0.3692   12.1138 O.2       3 RES3    0.0000
     33 O9        -2.2955   -0.5371   11.9367 O.2       3 RES3    0.0000
     34 N13        2.1026    2.3985   10.3153 N.2       4 RES4    0.0000
     35 N14        1.5010    1.3686    9.6241 N.am      4 RES4    0.0000
     36 H7         1.9421    0.7652    9.1996 H         4 RES4    0.0000
     37 C7         0.1471    1.4003    9.6793 C.2       4 RES4    0.0000
     38 O10       -0.6633    0.6373    9.1781 O.2       4 RES4    0.0000
     39 N15       -0.0981    2.5332   10.4434 N.am      4 RES4    0.0000
     40 H8        -0.8682    2.8467   10.6626 H         4 RES4    0.0000
     41 C8         1.0966    3.0443   10.7734 C.2       4 RES4    0.0000
     42 N16        1.2376    4.2263   11.5832 N.pl3     4 RES4    0.0000
     43 O11        0.2031    4.6991   12.0248 O.2       4 RES4    0.0000
     44 O12        2.3706    4.6286   11.7747 O.2       4 RES4    0.0000
@<TRIPOS>BOND
     1    1    2 1
     2    2    3 1
     3    4    2 1
     4    5    4 2
     5    6    4 1
     6    7    6 1
     7    8    1 2
     8    9    8 1
     9   10    9 2
    10   11    9 2
    11   12   13 1
    12   13   14 1
    13   15   13 1
    14   16   15 2
    15   17   15 1
    16   18   17 1
    17   19   12 2
    18   20   19 1
    19   21   20 2
    20   22   20 2
    21   23   24 1
    22   24   25 1
    23   26   24 1
    24   27   26 2
    25   28   26 1
    26   29   28 1
    27   30   23 2
    28   31   30 1
    29   32   31 2
    30   33   31 2
    31   34   35 1
    32   35   36 1
    33   37   35 1
    34   38   37 2
    35   39   37 1
    36   40   39 1
    37   41   34 2
    38   42   41 1
    39   43   42 2
    40   44   42 2
    41    6    8 1
    42   17   19 1
    43   28   30 1
    44   39   41 1
@<TRIPOS>SUBSTRUCTURE
     1 RES1 1
     2 RES2 12
     3 RES3 23
     4 RES4 34

@<TRIPOS>CRYSIN
   5.1233   10.3140   17.9980 106.6100  97.8100  90.1300   2 1

