# MOL2 file generated by ConQuest
# Please check atom types

@<TRIPOS>MOLECULE
QOYJOD09
    11    11     1
SMALL
NO_CHARGES
****
Generated from CSD

@<TRIPOS>ATOM
      1 N1         5.6700    4.0047    2.0866 N.am      1 RES1    0.0000
      2 H1         5.0369    3.3574    1.6620 H         1 RES1    0.0000
      3 O1         7.7591    3.2164    1.4174 O.2       1 RES1    0.0000
      4 N2         5.1702    5.0441    2.8184 N.2       1 RES1    0.0000
      5 N3         7.3978    5.1576    2.7112 N.am      1 RES1    0.0000
      6 H2         8.3418    5.5048    2.8341 H         1 RES1    0.0000
      7 C1         7.0407    4.0330    1.9960 C.2       1 RES1    0.0000
      8 O2         7.2503    7.4285    4.2218 O.2       1 RES1    0.0000
      9 O3         5.0848    7.2209    4.4109 O.2       1 RES1    0.0000
     10 N4         6.1856    6.8722    3.9984 N.pl3     1 RES1    0.0000
     11 C2         6.2382    5.6919    3.1676 C.2       1 RES1    0.0000
@<TRIPOS>BOND
     1    1    2 1
     2    3    7 2
     3    4    1 1
     4    5    6 1
     5    7    1 1
     6    8   10 2
     7    9   10 2
     8   10   11 1
     9   11    4 2
    10    5    7 1
    11    5   11 1
@<TRIPOS>SUBSTRUCTURE
     1 RES1 1

@<TRIPOS>CRYSIN
   9.3255    5.4503    9.0400  90.0000 101.4740  90.0000  14 1

