# MOL2 file generated by ConQuest
# Please check atom types

@<TRIPOS>MOLECULE
QOZRAY
    48    49     1
SMALL
NO_CHARGES
****
Generated from CSD

@<TRIPOS>ATOM
      1 O1         6.9232    3.1265   10.7544 O.3       1 RES1    0.0000
      2 N1         5.6648    2.5277   10.4318 N.2       1 RES1    0.0000
      3 C1         3.6585    2.7486    9.2271 C.ar      1 RES1    0.0000
      4 N2         5.4832    4.4645    9.1634 N.3       1 RES1    0.0000
      5 C2         2.5708    3.0116   10.0635 C.ar      1 RES1    0.0000
      6 C3         2.2494    1.4771    7.7672 C.ar      1 RES1    0.0000
      7 C4         5.0029    3.2711    9.6163 C.2       1 RES1    0.0000
      8 C5         5.0117    5.2910    8.1245 C.ar      1 RES1    0.0000
      9 C6         3.5020    1.9976    8.0597 C.ar      1 RES1    0.0000
     10 C7         1.3353    2.4706    9.7232 C.ar      1 RES1    0.0000
     11 N3         7.6820    6.2741    9.1611 N.3       1 RES1    0.0000
     12 C8         5.9749    6.0207    7.4076 C.ar      1 RES1    0.0000
     13 C9         1.1507    1.6961    8.5888 C.ar      1 RES1    0.0000
     14 C10        3.6617    5.4445    7.8127 C.ar      1 RES1    0.0000
     15 C11       -0.1998    1.1063    8.2611 C.3       1 RES1    0.0000
     16 C12        5.5459    6.8455    6.3756 C.ar      1 RES1    0.0000
     17 C13        7.4377    5.9238    7.7649 C.3       1 RES1    0.0000
     18 C14        4.2117    6.9576    6.0433 C.ar      1 RES1    0.0000
     19 C15        3.2737    6.2690    6.7670 C.ar      1 RES1    0.0000
     20 C16        4.6475    1.7866    7.1072 C.3       1 RES1    0.0000
     21 C17        2.7111    3.9036   11.2639 C.3       1 RES1    0.0000
     22 C18        9.0796    6.0665    9.5207 C.3       1 RES1    0.0000
     23 C19        7.2988    7.6477    9.4422 C.3       1 RES1    0.0000
     24 H1         2.1551    0.9740    6.9673 H         1 RES1    0.0000
     25 H2         2.9866    4.9686    8.2941 H         1 RES1    0.0000
     26 H3         3.9588    7.5201    5.2969 H         1 RES1    0.0000
     27 H4         2.3215    6.3395    6.5542 H         1 RES1    0.0000
     28 H5         0.5872    2.6277   10.3036 H         1 RES1    0.0000
     29 H6         6.2206    4.6722    9.4638 H         1 RES1    0.0000
     30 H7         7.2482    2.5062   11.2867 H         1 RES1    0.0000
     31 H8         6.2201    7.3565    5.8738 H         1 RES1    0.0000
     32 H9         7.7889    4.9835    7.5795 H         1 RES1    0.0000
     33 H10        7.9559    6.5525    7.1163 H         1 RES1    0.0000
     34 H11        7.9036    8.3114    8.9267 H         1 RES1    0.0000
     35 H12        6.3071    7.8118    9.1839 H         1 RES1    0.0000
     36 H13        7.4102    7.8417   10.4242 H         1 RES1    0.0000
     37 H14        2.0026    3.7955   11.8727 H         1 RES1    0.0000
     38 H15        5.4102    1.6175    7.5112 H         1 RES1    0.0000
     39 H16        3.4815    3.7042   11.7794 H         1 RES1    0.0000
     40 H17        2.7667    4.8288   11.0330 H         1 RES1    0.0000
     41 H18        4.4590    1.0572    6.4530 H         1 RES1    0.0000
     42 H19        4.8359    2.5744    6.6248 H         1 RES1    0.0000
     43 H20        9.3049    5.1347    9.2613 H         1 RES1    0.0000
     44 H21        9.2899    6.3438   10.5300 H         1 RES1    0.0000
     45 H22        9.7193    6.6384    8.9620 H         1 RES1    0.0000
     46 H23       -0.2453    0.8537    7.3519 H         1 RES1    0.0000
     47 H24       -0.4234    0.5457    8.9017 H         1 RES1    0.0000
     48 H25       -0.8679    1.7422    8.2554 H         1 RES1    0.0000
@<TRIPOS>BOND
     1    1    2 1
     2    2    7 2
     3    3    5 ar
     4    4    7 1
     5    5   10 ar
     6    6    9 ar
     7    7    3 1
     8    8    4 1
     9    9    3 ar
    10   10   13 ar
    11   11   17 1
    12   12    8 ar
    13   13    6 ar
    14   14    8 ar
    15   15   13 1
    16   16   12 ar
    17   17   12 1
    18   18   16 ar
    19   19   14 ar
    20   20    9 1
    21   21    5 1
    22   22   11 1
    23   23   11 1
    24   24    6 1
    25   25   14 1
    26   26   18 1
    27   27   19 1
    28   28   10 1
    29   29    4 1
    30   30    1 1
    31   31   16 1
    32   32   17 1
    33   33   17 1
    34   34   23 1
    35   35   23 1
    36   36   23 1
    37   37   21 1
    38   38   20 1
    39   39   21 1
    40   40   21 1
    41   41   20 1
    42   42   20 1
    43   43   22 1
    44   44   22 1
    45   45   22 1
    46   46   15 1
    47   47   15 1
    48   48   15 1
    49   18   19 ar
@<TRIPOS>SUBSTRUCTURE
     1 RES1 1

@<TRIPOS>CRYSIN
   8.9440    9.2460   11.6880  79.1510  79.8630  74.1430   2 1

