# MOL2 file generated by ConQuest
# Please check atom types

@<TRIPOS>MOLECULE
QOZZUC
   184   202     2
SMALL
NO_CHARGES
****
Generated from CSD

@<TRIPOS>ATOM
      1 O1         5.7615    2.8765   -1.1456 O.2       1 RES1    0.0000
      2 O2         5.4559    4.1737   -2.8136 O.2       1 RES1    0.0000
      3 O3         2.2321    7.7894   -2.3424 O.2       1 RES1    0.0000
      4 O4         0.5943    7.5330   -0.9905 O.2       1 RES1    0.0000
      5 N1         1.1270    4.2535    2.4809 N.2       1 RES1    0.0000
      6 N2         1.7181    3.4562    1.7211 N.2       1 RES1    0.0000
      7 N3        -2.5807    2.9982    6.5410 N.3       1 RES1    0.0000
      8 N4         5.1390    3.7321   -1.7306 N.pl3     1 RES1    0.0000
      9 N5         1.6440    7.1764   -1.4782 N.pl3     1 RES1    0.0000
     10 C1         0.3591    3.7540    3.5615 C.ar      1 RES1    0.0000
     11 C2        -0.1432    2.4585    3.7322 C.ar      1 RES1    0.0000
     12 C3        -1.0687    2.2133    4.7505 C.ar      1 RES1    0.0000
     13 C4        -1.5468    3.2245    5.5915 C.ar      1 RES1    0.0000
     14 C5        -0.9885    4.4965    5.4405 C.ar      1 RES1    0.0000
     15 C6        -0.0471    4.7421    4.4486 C.ar      1 RES1    0.0000
     16 C7         0.4378    6.2002    4.4232 C.3       1 RES1    0.0000
     17 H1         1.1118    6.3684    3.7329 H         1 RES1    0.0000
     18 C8        -0.8216    7.0338    4.2423 C.ar      1 RES1    0.0000
     19 C9        -1.0537    7.9511    3.2356 C.ar      1 RES1    0.0000
     20 H2        -0.4080    8.1127    2.5880 H         1 RES1    0.0000
     21 C10       -2.2727    8.6285    3.2072 C.ar      1 RES1    0.0000
     22 H3        -2.4476    9.2420    2.5304 H         1 RES1    0.0000
     23 C11       -3.2097    8.3928    4.1732 C.ar      1 RES1    0.0000
     24 H4        -4.0131    8.8615    4.1529 H         1 RES1    0.0000
     25 C12       -2.9848    7.4683    5.1834 C.ar      1 RES1    0.0000
     26 H5        -3.6343    7.3068    5.8297 H         1 RES1    0.0000
     27 C13       -1.7850    6.7908    5.2138 C.ar      1 RES1    0.0000
     28 C14       -1.3404    5.7536    6.2399 C.3       1 RES1    0.0000
     29 H6        -2.0165    5.5877    6.9306 H         1 RES1    0.0000
     30 C15       -0.0262    6.2414    6.8110 C.ar      1 RES1    0.0000
     31 C16        0.2822    6.4524    8.1439 C.ar      1 RES1    0.0000
     32 H7        -0.3603    6.3155    8.8038 H         1 RES1    0.0000
     33 C17        1.5623    6.8706    8.4874 C.ar      1 RES1    0.0000
     34 H8         1.7711    7.0189    9.3830 H         1 RES1    0.0000
     35 C18        2.5289    7.0678    7.5223 C.ar      1 RES1    0.0000
     36 H9         3.3861    7.3314    7.7672 H         1 RES1    0.0000
     37 C19        2.2145    6.8730    6.1891 C.ar      1 RES1    0.0000
     38 H10        2.8580    7.0188    5.5350 H         1 RES1    0.0000
     39 C20        0.9516    6.4628    5.8324 C.ar      1 RES1    0.0000
     40 C21        0.1597    1.2115    2.8894 C.3       1 RES1    0.0000
     41 H11        0.7986    1.3854    2.1679 H         1 RES1    0.0000
     42 C22       -1.1873    0.7235    2.3857 C.ar      1 RES1    0.0000
     43 C23       -1.5582    0.5395    1.0647 C.ar      1 RES1    0.0000
     44 H12       -0.9591    0.7168    0.3760 H         1 RES1    0.0000
     45 C24       -2.8351    0.0851    0.7896 C.ar      1 RES1    0.0000
     46 H13       -3.0926   -0.0420   -0.0948 H         1 RES1    0.0000
     47 C25       -3.7328   -0.1814    1.7963 C.ar      1 RES1    0.0000
     48 H14       -4.5810   -0.5012    1.5887 H         1 RES1    0.0000
     49 C26       -3.3765    0.0277    3.1249 C.ar      1 RES1    0.0000
     50 H15       -3.9867   -0.1262    3.8108 H         1 RES1    0.0000
     51 C27       -2.0997    0.4653    3.4070 C.ar      1 RES1    0.0000
     52 C28       -1.5214    0.7525    4.7813 C.3       1 RES1    0.0000
     53 H16       -2.1617    0.5729    5.5011 H         1 RES1    0.0000
     54 C29       -0.2516   -0.0742    4.9141 C.ar      1 RES1    0.0000
     55 C30        0.0624   -0.9556    5.9221 C.ar      1 RES1    0.0000
     56 H17       -0.5354   -1.1044    6.6189 H         1 RES1    0.0000
     57 C31        1.2884   -1.6250    5.8896 C.ar      1 RES1    0.0000
     58 H18        1.5040   -2.2323    6.5613 H         1 RES1    0.0000
     59 C32        2.1776   -1.3864    4.8660 C.ar      1 RES1    0.0000
     60 H19        2.9943   -1.8316    4.8507 H         1 RES1    0.0000
     61 C33        1.8701   -0.4899    3.8575 C.ar      1 RES1    0.0000
     62 H20        2.4731   -0.3380    3.1672 H         1 RES1    0.0000
     63 C34        0.6587    0.1775    3.8860 C.ar      1 RES1    0.0000
     64 C35        2.2835    4.1560    0.6033 C.ar      1 RES1    0.0000
     65 C36        3.4050    3.6250    0.0017 C.ar      1 RES1    0.0000
     66 H21        3.7961    2.8442    0.3218 H         1 RES1    0.0000
     67 C37        3.9310    4.2883   -1.0921 C.ar      1 RES1    0.0000
     68 C38        3.3876    5.4300   -1.6151 C.ar      1 RES1    0.0000
     69 H22        3.7551    5.8518   -2.3576 H         1 RES1    0.0000
     70 C39        2.2665    5.9214   -0.9803 C.ar      1 RES1    0.0000
     71 C40        1.7039    5.3037    0.1104 C.ar      1 RES1    0.0000
     72 H23        0.9411    5.6561    0.5115 H         1 RES1    0.0000
     73 C41       -3.9000    2.7695    5.9076 C.3       1 RES1    0.0000
     74 H24       -3.7902    2.1544    5.1657 H         1 RES1    0.0000
     75 H25       -4.4903    2.3510    6.5546 H         1 RES1    0.0000
     76 C42       -4.5303    3.9985    5.4154 C.3       1 RES1    0.0000
     77 H26       -3.8951    4.4874    4.8710 H         1 RES1    0.0000
     78 H27       -4.7715    4.5592    6.1684 H         1 RES1    0.0000
     79 C43       -5.7850    3.6955    4.5848 C.3       1 RES1    0.0000
     80 H28       -6.1723    4.5184    4.2783 H         1 RES1    0.0000
     81 H29       -6.4214    3.2229    5.1285 H         1 RES1    0.0000
     82 H30       -5.5451    3.1548    3.8277 H         1 RES1    0.0000
     83 C44       -2.2776    2.1795    7.6965 C.3       1 RES1    0.0000
     84 H31       -2.3834    1.2510    7.4353 H         1 RES1    0.0000
     85 H32       -1.3403    2.3095    7.9095 H         1 RES1    0.0000
     86 C45       -3.0370    2.3805    8.9101 C.3       1 RES1    0.0000
     87 H33       -3.9652    2.2130    8.6852 H         1 RES1    0.0000
     88 H34       -2.7704    1.6764    9.5219 H         1 RES1    0.0000
     89 C46       -3.0147    3.5817    9.6472 C.3       1 RES1    0.0000
     90 H35       -3.6008    3.5039   10.4060 H         1 RES1    0.0000
     91 H36       -3.3083    4.3064    9.0883 H         1 RES1    0.0000
     92 H37       -2.1211    3.7538    9.9521 H         1 RES1    0.0000
     93 O5        10.0404   -4.1599   15.3187 O.2       2 RES2    0.0000
     94 O6         9.9037   -4.4228   17.4091 O.2       2 RES2    0.0000
     95 O7         6.6787   -1.8508   19.9171 O.2       2 RES2    0.0000
     96 O8         5.0661   -0.8921   18.8853 O.2       2 RES2    0.0000
     97 N6         5.5631   -0.2114   14.1667 N.2       2 RES2    0.0000
     98 N7         6.1810   -1.2843   14.0075 N.2       2 RES2    0.0000
     99 N8         1.9094    2.1131   10.5446 N.3       2 RES2    0.0000
    100 N9         9.5083   -3.9553   16.3691 N.pl3     2 RES2    0.0000
    101 N10        6.0999   -1.5294   18.9063 N.pl3     2 RES2    0.0000
    102 C47        4.8053    0.3101   13.1051 C.ar      2 RES2    0.0000
    103 C48        4.2873   -0.3782   11.9923 C.ar      2 RES2    0.0000
    104 C49        3.3869    0.2669   11.1506 C.ar      2 RES2    0.0000
    105 C50        2.9239    1.5716   11.3843 C.ar      2 RES2    0.0000
    106 C51        3.4656    2.2473   12.4784 C.ar      2 RES2    0.0000
    107 C52        4.3918    1.6358   13.3053 C.ar      2 RES2    0.0000
    108 C53        4.8723    2.5200   14.4573 C.3       2 RES2    0.0000
    109 H38        5.5384    2.0817   15.0264 H         2 RES2    0.0000
    110 C54        5.3889    3.7927   13.8110 C.ar      2 RES2    0.0000
    111 C55        6.6464    4.3481   13.9746 C.ar      2 RES2    0.0000
    112 H39        7.2851    3.9232   14.5013 H         2 RES2    0.0000
    113 C56        6.9363    5.5380   13.3483 C.ar      2 RES2    0.0000
    114 H40        7.7722    5.9269   13.4682 H         2 RES2    0.0000
    115 C57        6.0051    6.1616   12.5475 C.ar      2 RES2    0.0000
    116 H41        6.2223    6.9615   12.1234 H         2 RES2    0.0000
    117 C58        4.7547    5.6109   12.3666 C.ar      2 RES2    0.0000
    118 H42        4.1284    6.0321   11.8253 H         2 RES2    0.0000
    119 C59        4.4423    4.4238   13.0024 C.ar      2 RES2    0.0000
    120 C60        3.1227    3.6721   12.9499 C.3       2 RES2    0.0000
    121 H43        2.4576    4.1105   12.3808 H         2 RES2    0.0000
    122 C61        2.6680    3.5491   14.4024 C.ar      2 RES2    0.0000
    123 C62        1.4859    4.0109   14.9471 C.ar      2 RES2    0.0000
    124 H44        0.8506    4.4326   14.4167 H         2 RES2    0.0000
    125 C63        1.2651    3.8303   16.3126 C.ar      2 RES2    0.0000
    126 H45        0.4767    4.1447   16.6930 H         2 RES2    0.0000
    127 C64        2.1840    3.2006   17.1008 C.ar      2 RES2    0.0000
    128 H46        2.0120    3.0832   18.0073 H         2 RES2    0.0000
    129 C65        3.3679    2.7375   16.5585 C.ar      2 RES2    0.0000
    130 H47        3.9940    2.3083   17.0961 H         2 RES2    0.0000
    131 C66        3.6126    2.9179   15.2124 C.ar      2 RES2    0.0000
    132 C67        4.5314   -1.8309   11.6014 C.3       2 RES2    0.0000
    133 H48        5.1508   -2.2903   12.2047 H         2 RES2    0.0000
    134 C68        5.0344   -1.7788   10.1648 C.ar      2 RES2    0.0000
    135 C69        6.2192   -2.2968    9.6903 C.ar      2 RES2    0.0000
    136 H49        6.8106   -2.7220   10.2705 H         2 RES2    0.0000
    137 C70        6.5236   -2.1793    8.3461 C.ar      2 RES2    0.0000
    138 H50        7.3182   -2.5334    8.0179 H         2 RES2    0.0000
    139 C71        5.6592   -1.5445    7.5034 C.ar      2 RES2    0.0000
    140 H51        5.8758   -1.4670    6.6020 H         2 RES2    0.0000
    141 C72        4.4617   -1.0117    7.9647 C.ar      2 RES2    0.0000
    142 H52        3.8795   -0.5804    7.3811 H         2 RES2    0.0000
    143 C73        4.1540   -1.1360    9.3065 C.ar      2 RES2    0.0000
    144 C74        2.8927   -0.6308   10.0083 C.3       2 RES2    0.0000
    145 H53        2.2744   -0.1736    9.4033 H         2 RES2    0.0000
    146 C75        2.2782   -1.8435   10.6777 C.ar      2 RES2    0.0000
    147 C76        0.9854   -2.3033   10.5252 C.ar      2 RES2    0.0000
    148 H54        0.3946   -1.8760    9.9487 H         2 RES2    0.0000
    149 C77        0.5823   -3.4192   11.2545 C.ar      2 RES2    0.0000
    150 H55       -0.2822   -3.7459   11.1580 H         2 RES2    0.0000
    151 C78        1.4487   -4.0413   12.1149 C.ar      2 RES2    0.0000
    152 H56        1.1638   -4.7859   12.5943 H         2 RES2    0.0000
    153 C79        2.7323   -3.5788   12.2782 C.ar      2 RES2    0.0000
    154 H57        3.3126   -4.0024   12.8686 H         2 RES2    0.0000
    155 C80        3.1543   -2.4797   11.5570 C.ar      2 RES2    0.0000
    156 C81        6.7350   -1.7499   15.2459 C.ar      2 RES2    0.0000
    157 C82        7.8287   -2.5973   15.1991 C.ar      2 RES2    0.0000
    158 H58        8.2073   -2.8481   14.3862 H         2 RES2    0.0000
    159 C83        8.3385   -3.0577   16.3979 C.ar      2 RES2    0.0000
    160 C84        7.8033   -2.7457   17.6191 C.ar      2 RES2    0.0000
    161 H59        8.1584   -3.0849   18.4104 H         2 RES2    0.0000
    162 C85        0.6317    2.1269   11.0327 C.3       2 RES2    0.0000
    163 H60        0.5553    3.0197   11.4019 H         2 RES2    0.0000
    164 H61        0.0964    2.1432   10.2231 H         2 RES2    0.0000
    165 C86       -0.0786    1.4439   11.8185 C.3       2 RES2    0.0000
    166 H62        0.4853    1.4651   12.6078 H         2 RES2    0.0000
    167 H63        0.0705    0.5606   11.4459 H         2 RES2    0.0000
    168 C87        6.7143   -1.9054   17.6198 C.ar      2 RES2    0.0000
    169 C88        6.1610   -1.4018   16.4667 C.ar      2 RES2    0.0000
    170 H64        5.4194   -0.8416   16.4999 H         2 RES2    0.0000
    171 C89        2.2875    3.2531    9.7069 C.3       2 RES2    0.0000
    172 H65        1.7716    4.0227    9.9961 H         2 RES2    0.0000
    173 H66        3.2217    3.4538    9.8742 H         2 RES2    0.0000
    174 C90        2.1183    3.1135    8.3329 C.3       2 RES2    0.0000
    175 H67        1.6014    3.8979    8.0924 H         2 RES2    0.0000
    176 H68        3.0073    3.2772    7.9807 H         2 RES2    0.0000
    177 C91        1.6335    2.1612    7.5135 C.3       2 RES2    0.0000
    178 H69        1.6645    2.4729    6.6054 H         2 RES2    0.0000
    179 H70        0.7248    1.9650    7.7537 H         2 RES2    0.0000
    180 H71        2.1655    1.3660    7.5979 H         2 RES2    0.0000
    181 C92       -1.2995    1.2409   12.4113 C.3       2 RES2    0.0000
    182 H72       -1.1893    0.6887   13.1904 H         2 RES2    0.0000
    183 H73       -1.8888    0.8043   11.7914 H         2 RES2    0.0000
    184 H74       -1.6740    2.0860   12.6688 H         2 RES2    0.0000
@<TRIPOS>BOND
     1    1    8 2
     2    2    8 2
     3    3    9 2
     4    4    9 2
     5    5    6 2
     6    6   64 1
     7    7   13 1
     8    8   67 1
     9    9   70 1
    10   10    5 1
    11   11   10 ar
    12   12   11 ar
    13   13   12 ar
    14   14   13 ar
    15   15   10 ar
    16   16   15 1
    17   17   16 1
    18   18   16 1
    19   19   18 ar
    20   20   19 1
    21   21   19 ar
    22   22   21 1
    23   23   21 ar
    24   24   23 1
    25   25   23 ar
    26   26   25 1
    27   27   18 ar
    28   28   14 1
    29   29   28 1
    30   30   28 1
    31   31   30 ar
    32   32   31 1
    33   33   31 ar
    34   34   33 1
    35   35   33 ar
    36   36   35 1
    37   37   35 ar
    38   38   37 1
    39   39   16 1
    40   40   11 1
    41   41   40 1
    42   42   40 1
    43   43   42 ar
    44   44   43 1
    45   45   43 ar
    46   46   45 1
    47   47   45 ar
    48   48   47 1
    49   49   47 ar
    50   50   49 1
    51   51   42 ar
    52   52   12 1
    53   53   52 1
    54   54   52 1
    55   55   54 ar
    56   56   55 1
    57   57   55 ar
    58   58   57 1
    59   59   57 ar
    60   60   59 1
    61   61   59 ar
    62   62   61 1
    63   63   40 1
    64   64   65 ar
    65   65   66 1
    66   67   65 ar
    67   68   67 ar
    68   69   68 1
    69   70   68 ar
    70   71   64 ar
    71   72   71 1
    72   73    7 1
    73   74   73 1
    74   75   73 1
    75   76   73 1
    76   77   76 1
    77   78   76 1
    78   79   76 1
    79   80   79 1
    80   81   79 1
    81   82   79 1
    82   83    7 1
    83   84   83 1
    84   85   83 1
    85   86   83 1
    86   87   86 1
    87   88   86 1
    88   89   86 1
    89   90   89 1
    90   91   89 1
    91   92   89 1
    92   93  100 2
    93   94  100 2
    94   95  101 2
    95   96  101 2
    96   97   98 2
    97   98  156 1
    98   99  105 1
    99  100  159 1
   100  101  168 1
   101  102   97 1
   102  103  102 ar
   103  104  103 ar
   104  105  104 ar
   105  106  105 ar
   106  107  102 ar
   107  108  107 1
   108  109  108 1
   109  110  108 1
   110  111  110 ar
   111  112  111 1
   112  113  111 ar
   113  114  113 1
   114  115  113 ar
   115  116  115 1
   116  117  115 ar
   117  118  117 1
   118  119  110 ar
   119  120  106 1
   120  121  120 1
   121  122  120 1
   122  123  122 ar
   123  124  123 1
   124  125  123 ar
   125  126  125 1
   126  127  125 ar
   127  128  127 1
   128  129  127 ar
   129  130  129 1
   130  131  108 1
   131  132  103 1
   132  133  132 1
   133  134  132 1
   134  135  134 ar
   135  136  135 1
   136  137  135 ar
   137  138  137 1
   138  139  137 ar
   139  140  139 1
   140  141  139 ar
   141  142  141 1
   142  143  134 ar
   143  144  104 1
   144  145  144 1
   145  146  144 1
   146  147  146 ar
   147  148  147 1
   148  149  147 ar
   149  150  149 1
   150  151  149 ar
   151  152  151 1
   152  153  151 ar
   153  154  153 1
   154  155  132 1
   155  156  157 ar
   156  157  158 1
   157  159  157 ar
   158  160  159 ar
   159  161  160 1
   160  162   99 1
   161  163  162 1
   162  164  162 1
   163  165  162 1
   164  166  165 1
   165  167  165 1
   166  168  160 ar
   167  169  156 ar
   168  170  169 1
   169  171   99 1
   170  172  171 1
   171  173  171 1
   172  174  171 1
   173  175  174 1
   174  176  174 1
   175  177  174 1
   176  178  177 1
   177  179  177 1
   178  180  177 1
   179  181  165 1
   180  182  181 1
   181  183  181 1
   182  184  181 1
   183   14   15 ar
   184   25   27 ar
   185   27   28 1
   186   30   39 ar
   187   37   39 ar
   188   49   51 ar
   189   51   52 1
   190   54   63 ar
   191   61   63 ar
   192   70   71 ar
   193  106  107 ar
   194  117  119 ar
   195  119  120 1
   196  122  131 ar
   197  129  131 ar
   198  141  143 ar
   199  143  144 1
   200  146  155 ar
   201  153  155 ar
   202  168  169 ar
@<TRIPOS>SUBSTRUCTURE
     1 RES1 1
     2 RES2 93

@<TRIPOS>CRYSIN
   9.5073   11.6556   33.9924  93.9100  92.4600  94.2970   2 1

