# MOL2 file generated by ConQuest
# Please check atom types

@<TRIPOS>MOLECULE
QOZZAI
    59    63     1
SMALL
NO_CHARGES
****
Generated from CSD

@<TRIPOS>ATOM
      1 O1         4.2752    5.8900    0.1529 O.3       1 RES1    0.0000
      2 O2         1.3100    8.9009    0.2646 O.2       1 RES1    0.0000
      3 O3        -3.5299    5.0751    3.9099 O.2       1 RES1    0.0000
      4 N1         5.2751    5.6603   -0.8326 N.2       1 RES1    0.0000
      5 N2        -0.0543    7.5723    1.5472 N.am      1 RES1    0.0000
      6 C1         8.2058    7.4491   -1.8174 C.ar      1 RES1    0.0000
      7 H1         8.3073    7.9775   -1.0590 H         1 RES1    0.0000
      8 C2         9.2206    7.3935   -2.7498 C.ar      1 RES1    0.0000
      9 H2         9.9974    7.8875   -2.6196 H         1 RES1    0.0000
     10 C3         9.0873    6.6175   -3.8624 C.ar      1 RES1    0.0000
     11 H3         9.7816    6.5678   -4.4796 H         1 RES1    0.0000
     12 C4         7.9301    5.9079   -4.0730 C.ar      1 RES1    0.0000
     13 H4         7.8355    5.3819   -4.8338 H         1 RES1    0.0000
     14 C5         6.9071    5.9778   -3.1479 C.ar      1 RES1    0.0000
     15 H5         6.1170    5.5122   -3.3037 H         1 RES1    0.0000
     16 C6         7.0348    6.7253   -1.9963 C.ar      1 RES1    0.0000
     17 C7         5.9557    6.7289   -0.9811 C.2       1 RES1    0.0000
     18 C8         5.5482    7.8531   -0.0536 C.3       1 RES1    0.0000
     19 C9         4.1688    7.3153    0.3165 C.3       1 RES1    0.0000
     20 H6         3.5230    7.6517   -0.3396 H         1 RES1    0.0000
     21 C10        6.4941    7.9266    1.1442 C.3       1 RES1    0.0000
     22 H7         6.1652    8.5734    1.7736 H         1 RES1    0.0000
     23 H8         7.3696    8.1860    0.8460 H         1 RES1    0.0000
     24 H9         6.5421    7.0653    1.5679 H         1 RES1    0.0000
     25 C11        5.4385    9.2107   -0.7401 C.3       1 RES1    0.0000
     26 H10        4.8780    9.1325   -1.5155 H         1 RES1    0.0000
     27 H11        6.3128    9.5057   -1.0067 H         1 RES1    0.0000
     28 H12        5.0568    9.8469   -0.1315 H         1 RES1    0.0000
     29 C12        3.6433    7.6257    1.6981 C.3       1 RES1    0.0000
     30 H13        4.1589    7.1234    2.3481 H         1 RES1    0.0000
     31 H14        3.7791    8.5686    1.8807 H         1 RES1    0.0000
     32 C13        2.1931    7.3046    1.8807 C.2       1 RES1    0.0000
     33 C14        1.1459    8.0391    1.1199 C.2       1 RES1    0.0000
     34 C15        0.0811    6.5476    2.5818 C.3       1 RES1    0.0000
     35 C16        1.6044    6.4517    2.7084 C.2       1 RES1    0.0000
     36 C17       -1.3252    8.0972    1.0980 C.3       1 RES1    0.0000
     37 H15       -1.9012    7.3698    0.8509 H         1 RES1    0.0000
     38 H16       -1.1862    8.6670    0.3384 H         1 RES1    0.0000
     39 H17       -1.7309    8.6006    1.8064 H         1 RES1    0.0000
     40 C18        2.2401    5.4696    3.6263 C.ar      1 RES1    0.0000
     41 C19        2.2188    5.6390    4.9969 C.ar      1 RES1    0.0000
     42 H18        1.7987    6.3818    5.3670 H         1 RES1    0.0000
     43 C20        2.8247    4.7031    5.8234 C.ar      1 RES1    0.0000
     44 H19        2.8183    4.8310    6.7437 H         1 RES1    0.0000
     45 C21        3.4282    3.5978    5.3000 C.ar      1 RES1    0.0000
     46 H20        3.8228    2.9723    5.8636 H         1 RES1    0.0000
     47 C22        3.4514    3.4130    3.9403 C.ar      1 RES1    0.0000
     48 H21        3.8581    2.6584    3.5800 H         1 RES1    0.0000
     49 C23        2.8713    4.3489    3.1077 C.ar      1 RES1    0.0000
     50 H22        2.9047    4.2269    2.1862 H         1 RES1    0.0000
     51 C24       -0.5794    7.0215    3.8502 C.2       1 RES1    0.0000
     52 H23       -0.1798    7.7133    4.3262 H         1 RES1    0.0000
     53 C25       -2.3830    5.4068    3.6263 C.2       1 RES1    0.0000
     54 C26       -1.6931    6.5050    4.3152 C.2       1 RES1    0.0000
     55 H24       -2.0543    6.8438    5.1016 H         1 RES1    0.0000
     56 C27       -1.6457    4.7588    2.5611 C.2       1 RES1    0.0000
     57 H25       -1.9728    3.9662    2.2033 H         1 RES1    0.0000
     58 C28       -0.5189    5.2623    2.0803 C.2       1 RES1    0.0000
     59 H26       -0.0798    4.8014    1.4023 H         1 RES1    0.0000
@<TRIPOS>BOND
     1    1    4 1
     2    2   33 2
     3    3   53 2
     4    4   17 2
     5    5   33 1
     6    6    7 1
     7    8    6 ar
     8    9    8 1
     9   10    8 ar
    10   11   10 1
    11   12   10 ar
    12   13   12 1
    13   14   12 ar
    14   15   14 1
    15   16    6 ar
    16   17   16 1
    17   18   17 1
    18   19    1 1
    19   20   19 1
    20   21   18 1
    21   22   21 1
    22   23   21 1
    23   24   21 1
    24   25   18 1
    25   26   25 1
    26   27   25 1
    27   28   25 1
    28   29   19 1
    29   30   29 1
    30   31   29 1
    31   32   29 1
    32   33   32 1
    33   34    5 1
    34   35   32 2
    35   36    5 1
    36   37   36 1
    37   38   36 1
    38   39   36 1
    39   40   35 1
    40   41   40 ar
    41   42   41 1
    42   43   41 ar
    43   44   43 1
    44   45   43 ar
    45   46   45 1
    46   47   45 ar
    47   48   47 1
    48   49   40 ar
    49   50   49 1
    50   51   34 1
    51   52   51 1
    52   53   54 1
    53   54   51 2
    54   55   54 1
    55   56   53 1
    56   57   56 1
    57   58   34 1
    58   59   58 1
    59   14   16 ar
    60   18   19 1
    61   34   35 1
    62   47   49 ar
    63   56   58 2
@<TRIPOS>SUBSTRUCTURE
     1 RES1 1

@<TRIPOS>CRYSIN
  15.8733   11.8466   12.3385  90.0000  99.4020  90.0000  14 1

