# MOL2 file generated by ConQuest
# Please check atom types

@<TRIPOS>MOLECULE
QQQAZG02
    41    42     1
SMALL
NO_CHARGES
****
Generated from CSD

@<TRIPOS>ATOM
      1 C1        10.2801   13.8231    2.1603 C.3       1 RES1    0.0000
      2 C2         9.0530   12.9668    1.9514 C.ar      1 RES1    0.0000
      3 C3         9.1396   11.5865    1.8943 C.ar      1 RES1    0.0000
      4 C4         7.9895   10.7791    1.7465 C.ar      1 RES1    0.0000
      5 C5         6.7229   11.3561    1.6966 C.ar      1 RES1    0.0000
      6 C6         6.6387   12.7608    1.7353 C.ar      1 RES1    0.0000
      7 C7         7.7951   13.5132    1.8641 C.ar      1 RES1    0.0000
      8 C8         2.3433   12.9770    1.9363 C.3       1 RES1    0.0000
      9 C9         2.1082   11.5131    1.7491 C.2       1 RES1    0.0000
     10 C10        3.2667   10.5977    1.6618 C.2       1 RES1    0.0000
     11 C11        3.1453    9.1012    1.5737 C.2       1 RES1    0.0000
     12 C12        1.4126    7.2887    1.3813 C.ar      1 RES1    0.0000
     13 C13        2.2749    6.1735    1.5560 C.ar      1 RES1    0.0000
     14 C14        1.6969    4.9135    1.4503 C.ar      1 RES1    0.0000
     15 C15        0.3631    4.7178    1.2059 C.ar      1 RES1    0.0000
     16 C16       -0.4517    5.8493    1.0161 C.ar      1 RES1    0.0000
     17 C17        0.0942    7.1256    1.1271 C.ar      1 RES1    0.0000
     18 N1         8.2086    9.3540    1.6729 N.pl3     1 RES1    0.0000
     19 N2         5.5569   10.5916    1.6269 N.pl3     1 RES1    0.0000
     20 N3         4.4128   11.2277    1.6815 N.2       1 RES1    0.0000
     21 N4         1.8900    8.6364    1.4903 N.am      1 RES1    0.0000
     22 O1         9.3448    8.9218    1.6664 O.2       1 RES1    0.0000
     23 O2         7.2481    8.6119    1.6118 O.2       1 RES1    0.0000
     24 O3         4.1592    8.4039    1.5849 O.2       1 RES1    0.0000
     25 O4         0.9393   11.1115    1.7150 O.2       1 RES1    0.0000
     26 H1        10.9614   13.6824    1.3347 H         1 RES1    0.0000
     27 H2         9.9897   14.8629    2.2141 H         1 RES1    0.0000
     28 H3        10.7666   13.5376    3.0811 H         1 RES1    0.0000
     29 H4        10.1090   11.1155    1.9645 H         1 RES1    0.0000
     30 H5         5.6772   13.2481    1.6657 H         1 RES1    0.0000
     31 H6         7.7036   14.5897    1.8969 H         1 RES1    0.0000
     32 H7         2.9120   13.1360    2.8401 H         1 RES1    0.0000
     33 H8         1.3946   13.4867    2.0125 H         1 RES1    0.0000
     34 H9         2.8930   13.3643    1.0910 H         1 RES1    0.0000
     35 H10        3.3278    6.2999    1.7603 H         1 RES1    0.0000
     36 H11        2.3297    4.0470    1.5672 H         1 RES1    0.0000
     37 H12       -0.0511    3.7208    1.1593 H         1 RES1    0.0000
     38 H13       -1.4993    5.7290    0.7842 H         1 RES1    0.0000
     39 H14       -0.5409    7.9921    1.0102 H         1 RES1    0.0000
     40 H15        1.1202    9.3948    1.5081 H         1 RES1    0.0000
     41 H16        5.5949    9.5171    1.5317 H         1 RES1    0.0000
@<TRIPOS>BOND
     1    1    2 1
     2    2    3 ar
     3    3    4 ar
     4    4    5 ar
     5    5    6 ar
     6    6    7 ar
     7    7    2 ar
     8    8    9 1
     9    9   10 1
    10   10   11 1
    11   11   21 1
    12   12   13 ar
    13   13   14 ar
    14   14   15 ar
    15   15   16 ar
    16   16   17 ar
    17   17   12 ar
    18   18    4 1
    19   19    5 1
    20   20   10 2
    21   21   12 1
    22   22   18 2
    23   23   18 2
    24   24   11 2
    25   25    9 2
    26   26    1 1
    27   27    1 1
    28   28    1 1
    29   29    3 1
    30   30    6 1
    31   31    7 1
    32   32    8 1
    33   33    8 1
    34   34    8 1
    35   35   13 1
    36   36   14 1
    37   37   15 1
    38   38   16 1
    39   39   17 1
    40   40   21 1
    41   41   19 1
    42   19   20 1
@<TRIPOS>SUBSTRUCTURE
     1 RES1 1

@<TRIPOS>CRYSIN
  12.0340   20.3880    7.6230  90.0000 120.5000  90.0000  14 2

