# MOL2 file generated by ConQuest
# Please check atom types

@<TRIPOS>MOLECULE
QQQAIY03
    54    56     2
SMALL
NO_CHARGES
****
Generated from CSD

@<TRIPOS>ATOM
      1 N1        -1.9965    8.3781   11.9648 N.2       1 RES1    0.0000
      2 N2        -3.3857    7.9599   18.2802 N.pl3     1 RES1    0.0000
      3 O1        -4.0738    8.9240   18.6052 O.2       1 RES1    0.0000
      4 O2        -3.0840    7.0470   19.0461 O.2       1 RES1    0.0000
      5 C1        -2.1221    7.6801   14.2599 C.ar      1 RES1    0.0000
      6 C2        -1.7940    6.6785   15.1718 C.ar      1 RES1    0.0000
      7 C3        -2.1873    6.7701   16.5023 C.ar      1 RES1    0.0000
      8 C4        -2.9155    7.8800   16.8898 C.ar      1 RES1    0.0000
      9 C5        -3.2368    8.9133   16.0152 C.ar      1 RES1    0.0000
     10 C6        -2.8407    8.8040   14.6916 C.ar      1 RES1    0.0000
     11 C7        -1.7102    7.5195   12.8595 C.2       1 RES1    0.0000
     12 C8        -1.6305    8.0950   10.6231 C.ar      1 RES1    0.0000
     13 C9        -1.1956    9.1525    9.8267 C.ar      1 RES1    0.0000
     14 C10       -0.8500    8.9245    8.4962 C.ar      1 RES1    0.0000
     15 C11       -0.9611    7.6535    7.9463 C.ar      1 RES1    0.0000
     16 C12       -1.4256    6.6074    8.7326 C.ar      1 RES1    0.0000
     17 C13       -1.7574    6.8173   10.0662 C.ar      1 RES1    0.0000
     18 H1        -1.2677    5.9193   14.8972 H         1 RES1    0.0000
     19 H2        -1.9606    6.0792   17.1495 H         1 RES1    0.0000
     20 H3        -3.7400    9.6896   16.3058 H         1 RES1    0.0000
     21 H4        -3.0715    9.4796   14.0623 H         1 RES1    0.0000
     22 H5        -1.1958    6.7070   12.6595 H         1 RES1    0.0000
     23 H6        -1.1236   10.0456   10.2127 H         1 RES1    0.0000
     24 H7        -0.5549    9.6608    7.9779 H         1 RES1    0.0000
     25 H8        -0.7304    7.5044    7.0297 H         1 RES1    0.0000
     26 H9        -1.5260    5.7199    8.3816 H         1 RES1    0.0000
     27 H10       -2.0941    6.0941   10.5845 H         1 RES1    0.0000
     28 N3         2.8627   10.2390    2.0424 N.2       2 RES2    0.0000
     29 N4         4.8395   10.1407   -4.1387 N.pl3     2 RES2    0.0000
     30 O3         4.4404   11.1396   -4.7271 O.2       2 RES2    0.0000
     31 O4         5.5425    9.2843   -4.6710 O.2       2 RES2    0.0000
     32 C14        3.7509    9.5888   -0.0970 C.ar      2 RES2    0.0000
     33 C15        4.3638    8.5601   -0.8139 C.ar      2 RES2    0.0000
     34 C16        4.7356    8.7414   -2.1395 C.ar      2 RES2    0.0000
     35 C17        4.4564    9.9569   -2.7332 C.ar      2 RES2    0.0000
     36 C18        3.8399   11.0042   -2.0565 C.ar      2 RES2    0.0000
     37 C19        3.5022   10.8157   -0.7266 C.ar      2 RES2    0.0000
     38 C20        3.3954    9.3448    1.3073 C.2       2 RES2    0.0000
     39 C21        2.6033    9.9376    3.4058 C.ar      2 RES2    0.0000
     40 C22        1.6100   10.6767    4.0485 C.ar      2 RES2    0.0000
     41 C23        1.3195   10.4440    5.3872 C.ar      2 RES2    0.0000
     42 C24        2.0152    9.4770    6.1038 C.ar      2 RES2    0.0000
     43 C25        3.0128    8.7442    5.4681 C.ar      2 RES2    0.0000
     44 C26        3.3132    8.9721    4.1340 C.ar      2 RES2    0.0000
     45 H11        4.5189    7.7176   -0.3790 H         2 RES2    0.0000
     46 H12        5.1723    8.0331   -2.6182 H         2 RES2    0.0000
     47 H13        3.6883   11.8354   -2.4657 H         2 RES2    0.0000
     48 H14        3.0880   11.5134   -0.2367 H         2 RES2    0.0000
     49 H15        3.5552    8.4136    1.6191 H         2 RES2    0.0000
     50 H16        1.1025   11.3216    3.5519 H         2 RES2    0.0000
     51 H17        0.6329   10.9698    5.8099 H         2 RES2    0.0000
     52 H18        1.8059    9.3122    7.0311 H         2 RES2    0.0000
     53 H19        3.5050    8.0821    5.9522 H         2 RES2    0.0000
     54 H20        4.0257    8.4829    3.7160 H         2 RES2    0.0000
@<TRIPOS>BOND
     1    1   11 2
     2    2    3 2
     3    4    2 2
     4    5    6 ar
     5    6    7 ar
     6    7    8 ar
     7    8    2 1
     8    9    8 ar
     9   10    5 ar
    10   11    5 1
    11   12    1 1
    12   13   12 ar
    13   14   13 ar
    14   15   14 ar
    15   16   15 ar
    16   17   12 ar
    17   18    6 1
    18   19    7 1
    19   20    9 1
    20   21   10 1
    21   22   11 1
    22   23   13 1
    23   24   14 1
    24   25   15 1
    25   26   16 1
    26   27   17 1
    27   28   38 2
    28   29   30 2
    29   31   29 2
    30   32   33 ar
    31   33   34 ar
    32   34   35 ar
    33   35   29 1
    34   36   35 ar
    35   37   32 ar
    36   38   32 1
    37   39   28 1
    38   40   39 ar
    39   41   40 ar
    40   42   41 ar
    41   43   42 ar
    42   44   39 ar
    43   45   33 1
    44   46   34 1
    45   47   36 1
    46   48   37 1
    47   49   38 1
    48   50   40 1
    49   51   41 1
    50   52   42 1
    51   53   43 1
    52   54   44 1
    53    9   10 ar
    54   16   17 ar
    55   36   37 ar
    56   43   44 ar
@<TRIPOS>SUBSTRUCTURE
     1 RES1 1
     2 RES2 28

@<TRIPOS>CRYSIN
  14.2105   10.6596   14.8045  90.0000 101.2280  90.0000 231 1

