# MOL2 file generated by ConQuest
# Please check atom types

@<TRIPOS>MOLECULE
QQQAIY02
    54    56     2
SMALL
NO_CHARGES
****
Generated from CSD

@<TRIPOS>ATOM
      1 N1        -2.0849    8.4534   11.9173 N.2       1 RES1    0.0000
      2 N2        -3.4988    7.9970   18.2139 N.pl3     1 RES1    0.0000
      3 O1        -4.1806    8.9558   18.5468 O.2       1 RES1    0.0000
      4 O2        -3.2052    7.0799   18.9684 O.2       1 RES1    0.0000
      5 C1        -2.2225    7.7460   14.2036 C.ar      1 RES1    0.0000
      6 C2        -1.8963    6.7461   15.1074 C.ar      1 RES1    0.0000
      7 C3        -2.2934    6.8305   16.4334 C.ar      1 RES1    0.0000
      8 C4        -3.0274    7.9267   16.8225 C.ar      1 RES1    0.0000
      9 C5        -3.3489    8.9543   15.9594 C.ar      1 RES1    0.0000
     10 C6        -2.9496    8.8556   14.6366 C.ar      1 RES1    0.0000
     11 C7        -1.8058    7.5971   12.8031 C.2       1 RES1    0.0000
     12 C8        -1.7071    8.1852   10.5748 C.ar      1 RES1    0.0000
     13 C9        -1.2637    9.2431    9.8028 C.ar      1 RES1    0.0000
     14 C10       -0.9077    9.0280    8.4762 C.ar      1 RES1    0.0000
     15 C11       -1.0150    7.7723    7.9189 C.ar      1 RES1    0.0000
     16 C12       -1.4850    6.7265    8.6802 C.ar      1 RES1    0.0000
     17 C13       -1.8311    6.9191   10.0094 C.ar      1 RES1    0.0000
     18 H1        -1.3703    5.9814   14.8218 H         1 RES1    0.0000
     19 H2        -2.0762    6.1382   17.0646 H         1 RES1    0.0000
     20 H3        -3.8659    9.7113   16.2404 H         1 RES1    0.0000
     21 H4        -3.1735    9.5460   14.0005 H         1 RES1    0.0000
     22 H5        -1.2874    6.7942   12.6108 H         1 RES1    0.0000
     23 H6        -1.1908   10.1290   10.1931 H         1 RES1    0.0000
     24 H7        -0.6045    9.7779    7.9994 H         1 RES1    0.0000
     25 H8        -0.7618    7.6499    6.9988 H         1 RES1    0.0000
     26 H9        -1.6090    5.8193    8.3031 H         1 RES1    0.0000
     27 H10       -2.1794    6.1725   10.5242 H         1 RES1    0.0000
     28 N3         2.9023   10.3033    2.0346 N.2       2 RES2    0.0000
     29 N4         4.9306   10.2047   -4.1125 N.pl3     2 RES2    0.0000
     30 O3         4.5787   11.2156   -4.6927 O.2       2 RES2    0.0000
     31 O4         5.5952    9.3335   -4.6488 O.2       2 RES2    0.0000
     32 C14        3.8018    9.6550   -0.0923 C.ar      2 RES2    0.0000
     33 C15        4.3996    8.6303   -0.8053 C.ar      2 RES2    0.0000
     34 C16        4.7806    8.8100   -2.1233 C.ar      2 RES2    0.0000
     35 C17        4.5353   10.0240   -2.7113 C.ar      2 RES2    0.0000
     36 C18        3.9334   11.0701   -2.0390 C.ar      2 RES2    0.0000
     37 C19        3.5802   10.8808   -0.7152 C.ar      2 RES2    0.0000
     38 C20        3.4331    9.4165    1.3108 C.2       2 RES2    0.0000
     39 C21        2.6280   10.0117    3.3976 C.ar      2 RES2    0.0000
     40 C22        1.6439   10.7594    4.0244 C.ar      2 RES2    0.0000
     41 C23        1.3433   10.5464    5.3578 C.ar      2 RES2    0.0000
     42 C24        2.0213    9.5874    6.0833 C.ar      2 RES2    0.0000
     43 C25        3.0088    8.8477    5.4677 C.ar      2 RES2    0.0000
     44 C26        3.3186    9.0520    4.1395 C.ar      2 RES2    0.0000
     45 H11        4.5287    7.7766   -0.3557 H         2 RES2    0.0000
     46 H12        5.2064    8.0987   -2.6014 H         2 RES2    0.0000
     47 H13        3.8221   11.9059   -2.4611 H         2 RES2    0.0000
     48 H14        3.1894   11.6032   -0.2386 H         2 RES2    0.0000
     49 H15        3.6064    8.4852    1.6499 H         2 RES2    0.0000
     50 H16        1.1701   11.4174    3.5225 H         2 RES2    0.0000
     51 H17        0.6561   11.0663    5.7639 H         2 RES2    0.0000
     52 H18        1.8039    9.4472    7.0263 H         2 RES2    0.0000
     53 H19        3.4680    8.1867    5.9461 H         2 RES2    0.0000
     54 H20        4.0025    8.5614    3.7033 H         2 RES2    0.0000
@<TRIPOS>BOND
     1    1   11 2
     2    2    3 2
     3    4    2 2
     4    5    6 ar
     5    6    7 ar
     6    7    8 ar
     7    8    2 1
     8    9    8 ar
     9   10    5 ar
    10   11    5 1
    11   12    1 1
    12   13   12 ar
    13   14   13 ar
    14   15   14 ar
    15   16   15 ar
    16   17   12 ar
    17   18    6 1
    18   19    7 1
    19   20    9 1
    20   21   10 1
    21   22   11 1
    22   23   13 1
    23   24   14 1
    24   25   15 1
    25   26   16 1
    26   27   17 1
    27   28   38 2
    28   29   30 2
    29   31   29 2
    30   32   33 ar
    31   33   34 ar
    32   34   35 ar
    33   35   29 1
    34   36   35 ar
    35   37   32 ar
    36   38   32 1
    37   39   28 1
    38   40   39 ar
    39   41   40 ar
    40   42   41 ar
    41   43   42 ar
    42   44   39 ar
    43   45   33 1
    44   46   34 1
    45   47   36 1
    46   48   37 1
    47   49   38 1
    48   50   40 1
    49   51   41 1
    50   52   42 1
    51   53   43 1
    52   54   44 1
    53    9   10 ar
    54   16   17 ar
    55   36   37 ar
    56   43   44 ar
@<TRIPOS>SUBSTRUCTURE
     1 RES1 1
     2 RES2 28

@<TRIPOS>CRYSIN
  14.4053   10.7367   14.7627  90.0000 101.6170  90.0000 231 1

