# MOL2 file generated by ConQuest
# Please check atom types

@<TRIPOS>MOLECULE
QQQAIY04
    54    56     2
SMALL
NO_CHARGES
****
Generated from CSD

@<TRIPOS>ATOM
      1 O1         4.5856    8.9819   11.2987 O.2       1 RES1    0.0000
      2 N1         6.6865    8.5522    4.6655 N.2       1 RES1    0.0000
      3 N2         5.2606    8.0300   10.9521 N.pl3     1 RES1    0.0000
      4 C1         6.5377    7.8243    6.9409 C.ar      1 RES1    0.0000
      5 C2         5.8062    8.9156    7.3923 C.ar      1 RES1    0.0000
      6 O2         5.5488    7.1065   11.6878 O.2       1 RES1    0.0000
      7 C3         5.7298    7.9759    9.5582 C.ar      1 RES1    0.0000
      8 C4         5.4031    8.9957    8.7034 C.ar      1 RES1    0.0000
      9 C5         6.9554    7.6998    5.5396 C.2       1 RES1    0.0000
     10 C6         7.0756    8.3039    3.3256 C.ar      1 RES1    0.0000
     11 C7         6.8621    6.8283    7.8387 C.ar      1 RES1    0.0000
     12 C8         6.4652    6.8997    9.1500 C.ar      1 RES1    0.0000
     13 C9         7.5265    9.3649    2.5764 C.ar      1 RES1    0.0000
     14 C10        6.9529    7.0610    2.7314 C.ar      1 RES1    0.0000
     15 C11        7.8964    9.1776    1.2622 C.ar      1 RES1    0.0000
     16 C12        7.7795    7.9467    0.6859 C.ar      1 RES1    0.0000
     17 C13        7.3045    6.8932    1.4222 C.ar      1 RES1    0.0000
     18 H1         4.8869    9.7439    8.9827 H         1 RES1    0.0000
     19 H2         5.5628    9.5923    6.7838 H         1 RES1    0.0000
     20 H3         6.6559    6.2794    9.7608 H         1 RES1    0.0000
     21 H4         7.3508    6.1170    7.5346 H         1 RES1    0.0000
     22 H5         7.4552    6.9181    5.3573 H         1 RES1    0.0000
     23 H6         7.5903   10.2310    2.9870 H         1 RES1    0.0000
     24 H7         6.6219    6.3443    3.2161 H         1 RES1    0.0000
     25 H8         7.1809    6.0195    1.0231 H         1 RES1    0.0000
     26 H9         8.1641    9.9604    0.8069 H         1 RES1    0.0000
     27 H10        7.9697    7.8600   -0.1441 H         1 RES1    0.0000
     28 N3         5.0440    5.9643   -4.0873 N.pl3     2 RES2    0.0000
     29 N4         2.9651    5.8734    2.0233 N.2       2 RES2    0.0000
     30 O3         5.6478    6.8608   -4.6266 O.2       2 RES2    0.0000
     31 O4         4.7467    4.9488   -4.6689 O.2       2 RES2    0.0000
     32 C14        2.6769    6.1657    3.3958 C.ar      2 RES2    0.0000
     33 C15        4.6277    6.1310   -2.6932 C.ar      2 RES2    0.0000
     34 C16        3.8741    6.4991   -0.0922 C.ar      2 RES2    0.0000
     35 C17        1.7038    5.3948    3.9932 C.ar      2 RES2    0.0000
     36 C18        3.4801    6.7352    1.3279 C.2       2 RES2    0.0000
     37 C19        4.8245    7.3350   -2.0971 C.ar      2 RES2    0.0000
     38 C20        1.3948    5.5713    5.3184 C.ar      2 RES2    0.0000
     39 C21        3.3388    7.1000    4.1599 C.ar      2 RES2    0.0000
     40 C22        2.0523    6.5046    6.0605 C.ar      2 RES2    0.0000
     41 C23        4.4388    7.5103   -0.8055 C.ar      2 RES2    0.0000
     42 C24        3.6897    5.2736   -0.6988 C.ar      2 RES2    0.0000
     43 C25        3.0291    7.2657    5.4798 C.ar      2 RES2    0.0000
     44 C26        4.0535    5.0776   -2.0245 C.ar      2 RES2    0.0000
     45 H11        3.3567    4.5580   -0.2882 H         2 RES2    0.0000
     46 H12        3.9780    4.2656   -2.4640 H         2 RES2    0.0000
     47 H13        5.2328    8.0224   -2.5792 H         2 RES2    0.0000
     48 H14        3.6894    7.6760    1.6715 H         2 RES2    0.0000
     49 H15        4.5933    8.3689   -0.3170 H         2 RES2    0.0000
     50 H16        1.2045    4.7528    3.4337 H         2 RES2    0.0000
     51 H17        0.6680    5.0668    5.7075 H         2 RES2    0.0000
     52 H18        3.4839    7.9358    6.0374 H         2 RES2    0.0000
     53 H19        1.8619    6.6150    6.9193 H         2 RES2    0.0000
     54 H20        4.0254    7.6219    3.7608 H         2 RES2    0.0000
@<TRIPOS>BOND
     1    1    3 2
     2    2    9 2
     3    3    6 2
     4    4    5 ar
     5    5    8 ar
     6    7    3 1
     7    8    7 ar
     8    9    4 1
     9   10    2 1
    10   11    4 ar
    11   12    7 ar
    12   13   10 ar
    13   14   10 ar
    14   15   13 ar
    15   16   15 ar
    16   17   14 ar
    17   18    8 1
    18   19    5 1
    19   20   12 1
    20   21   11 1
    21   22    9 1
    22   23   13 1
    23   24   14 1
    24   25   17 1
    25   26   15 1
    26   27   16 1
    27   28   30 2
    28   29   32 1
    29   31   28 2
    30   32   35 ar
    31   33   28 1
    32   34   36 1
    33   35   38 ar
    34   36   29 2
    35   37   33 ar
    36   38   40 ar
    37   39   32 ar
    38   40   43 ar
    39   41   34 ar
    40   42   34 ar
    41   43   39 ar
    42   44   33 ar
    43   45   42 1
    44   46   44 1
    45   47   37 1
    46   48   36 1
    47   49   41 1
    48   50   35 1
    49   51   38 1
    50   52   43 1
    51   53   40 1
    52   54   39 1
    53   11   12 ar
    54   16   17 ar
    55   37   41 ar
    56   42   44 ar
@<TRIPOS>SUBSTRUCTURE
     1 RES1 1
     2 RES2 28

@<TRIPOS>CRYSIN
  14.6480   10.8265   14.7278  90.0000 101.9400  90.0000 231 1

