# MOL2 file generated by ConQuest
# Please check atom types

@<TRIPOS>MOLECULE
QQQAIY01
    59    56     3
SMALL
NO_CHARGES
****
Generated from CSD

@<TRIPOS>ATOM
      1 N1        -2.1620    8.5424   11.8681 N.2       1 RES1    0.0000
      2 N2        -3.5841    8.0233   18.1513 N.pl3     1 RES1    0.0000
      3 O1        -4.2624    8.9741   18.4956 O.2       1 RES1    0.0000
      4 O2        -3.2954    7.0995   18.8888 O.2       1 RES1    0.0000
      5 C1        -2.3088    7.8161   14.1428 C.ar      1 RES1    0.0000
      6 C2        -1.9852    6.8194   15.0327 C.ar      1 RES1    0.0000
      7 C3        -2.3769    6.8907   16.3537 C.ar      1 RES1    0.0000
      8 C4        -3.1174    7.9655   16.7562 C.ar      1 RES1    0.0000
      9 C5        -3.4397    8.9856   15.9059 C.ar      1 RES1    0.0000
     10 C6        -3.0412    8.9070   14.5847 C.ar      1 RES1    0.0000
     11 C7        -1.8901    7.6880   12.7381 C.2       1 RES1    0.0000
     12 C8        -1.7732    8.2970   10.5228 C.ar      1 RES1    0.0000
     13 C9        -1.3189    9.3582    9.7820 C.ar      1 RES1    0.0000
     14 C10       -0.9524    9.1667    8.4610 C.ar      1 RES1    0.0000
     15 C11       -1.0636    7.9325    7.8863 C.ar      1 RES1    0.0000
     16 C12       -1.5418    6.8810    8.6180 C.ar      1 RES1    0.0000
     17 C13       -1.8959    7.0476    9.9384 C.ar      1 RES1    0.0000
     18 H1        -1.4623    6.0686   14.7397 H         1 RES1    0.0000
     19 H2        -2.1811    6.2201   16.9824 H         1 RES1    0.0000
     20 H3        -3.9511    9.7271   16.1888 H         1 RES1    0.0000
     21 H4        -3.2804    9.6059   13.9864 H         1 RES1    0.0000
     22 H5        -1.3683    6.9016   12.5445 H         1 RES1    0.0000
     23 H6        -1.2188   10.2442   10.1909 H         1 RES1    0.0000
     24 H7        -0.6463    9.9305    8.0375 H         1 RES1    0.0000
     25 H8        -0.8282    7.8211    7.0292 H         1 RES1    0.0000
     26 H9        -1.6988    6.0037    8.2392 H         1 RES1    0.0000
     27 H10       -2.2757    6.3174   10.4199 H         1 RES1    0.0000
     28 N3         2.9517   10.3707    2.0212 N.2       2 RES2    0.0000
     29 C14        3.8659    9.7011   -0.0968 C.ar      2 RES2    0.0000
     30 C15        3.4826    9.4934    1.3134 C.2       2 RES2    0.0000
     31 H11        3.6459    8.6616    1.6954 H         2 RES2    0.0000
     32 C16        2.6595   10.1014    3.3766 C.ar      2 RES2    0.0000
     33 N4         5.0361   10.2669   -4.0882 N.pl3     2 RES2    0.0000
     34 O3         4.7384   11.2869   -4.6688 O.2       2 RES2    0.0000
     35 O4         5.6443    9.3712   -4.6269 O.2       2 RES2    0.0000
     36 C17        4.4373    8.7200   -0.7971 C.ar      2 RES2    0.0000
     37 C18        4.8248    8.8963   -2.1011 C.ar      2 RES2    0.0000
     38 C19        4.6231   10.1046   -2.6921 C.ar      2 RES2    0.0000
     39 C20        4.0486   11.1539   -2.0277 C.ar      2 RES2    0.0000
     40 C21        3.6807   10.9625   -0.7058 C.ar      2 RES2    0.0000
     41 C22        1.7029   10.8348    3.9905 C.ar      2 RES2    0.0000
     42 C23        1.3946   10.6585    5.3181 C.ar      2 RES2    0.0000
     43 C24        2.0481    9.7228    6.0644 C.ar      2 RES2    0.0000
     44 C25        3.0212    8.9699    5.4779 C.ar      2 RES2    0.0000
     45 C26        3.3392    9.1300    4.1550 C.ar      2 RES2    0.0000
     46 H12        4.5792    7.8319   -0.3227 H         2 RES2    0.0000
     47 H13        5.2343    8.1564   -2.5827 H         2 RES2    0.0000
     48 H14        3.9846   11.9858   -2.4732 H         2 RES2    0.0000
     49 H15        3.3593   11.6937   -0.2780 H         2 RES2    0.0000
     50 H16        1.2434   11.4774    3.4700 H         2 RES2    0.0000
     51 H17        0.7338   11.1745    5.6925 H         2 RES2    0.0000
     52 H18        1.8459    9.5951    6.9601 H         2 RES2    0.0000
     53 H19        3.4455    8.3511    5.9921 H         2 RES2    0.0000
     54 H20        4.0104    8.5891    3.7364 H         2 RES2    0.0000
     55 N5         3.1971    9.7033    2.1981 Du        3 SUP3    0.0000
     56 C27        3.9172   10.2874   -0.0230 Du        3 SUP3    0.0000
     57 C28        3.4188   10.5687    1.3367 Du        3 SUP3    0.0000
     58 H21        3.2594   11.4590    1.5643 Du        3 SUP3    0.0000
     59 C29        2.8456    9.7358    3.5693 Du        3 SUP3    0.0000
@<TRIPOS>BOND
     1    1   11 2
     2    2    3 2
     3    4    2 2
     4    5    6 ar
     5    6    7 ar
     6    7    8 ar
     7    8    2 1
     8    9    8 ar
     9   10    5 ar
    10   11    5 1
    11   12    1 1
    12   13   12 ar
    13   14   13 ar
    14   15   14 ar
    15   16   15 ar
    16   17   12 ar
    17   18    6 1
    18   19    7 1
    19   20    9 1
    20   21   10 1
    21   22   11 1
    22   23   13 1
    23   24   14 1
    24   25   15 1
    25   26   16 1
    26   27   17 1
    27   28   30 2
    28   29   30 1
    29   30   31 1
    30   32   28 1
    31   33   34 2
    32   35   33 2
    33   36   29 ar
    34   37   36 ar
    35   38   33 1
    36   39   38 ar
    37   40   29 ar
    38   41   32 ar
    39   42   41 ar
    40   43   42 ar
    41   44   43 ar
    42   45   32 ar
    43   46   36 1
    44   47   37 1
    45   48   39 1
    46   49   40 1
    47   50   41 1
    48   51   42 1
    49   52   43 1
    50   53   44 1
    51   54   45 1
    52    9   10 ar
    53   16   17 ar
    54   37   38 ar
    55   39   40 ar
    56   44   45 ar
@<TRIPOS>SUBSTRUCTURE
     1 RES1 1
     2 RES2 28
     3 SUP3 55

@<TRIPOS>CRYSIN
  14.6363   10.8175   14.7228  90.0000 101.9430  90.0000 231 1

