# MOL2 file generated by ConQuest
# Please check atom types

@<TRIPOS>MOLECULE
QQQAZG21
    41    42     1
SMALL
NO_CHARGES
****
Generated from CSD

@<TRIPOS>ATOM
      1 C1         0.9665    9.5885    7.7574 C.ar      1 RES1    0.0000
      2 N1         1.1416   11.0240    7.6208 N.pl3     1 RES1    0.0000
      3 O1         0.7150   11.7591    8.4767 O.2       1 RES1    0.0000
      4 O2         1.7282   11.4536    6.6449 O.2       1 RES1    0.0000
      5 C2         1.4382    8.8025    6.6977 C.ar      1 RES1    0.0000
      6 H1         1.8848    9.2627    5.8657 H         1 RES1    0.0000
      7 C3         1.3186    7.4118    6.7381 C.ar      1 RES1    0.0000
      8 C4         1.7679    6.5627    5.5945 C.3       1 RES1    0.0000
      9 H2         1.6698    6.9923    4.8660 H         1 RES1    0.0000
     10 H3         1.2150    5.5038    5.6173 H         1 RES1    0.0000
     11 H4         2.5578    5.9783    5.8936 H         1 RES1    0.0000
     12 C5         0.7622    6.8579    7.8754 C.ar      1 RES1    0.0000
     13 H5         0.6948    5.8134    7.9468 H         1 RES1    0.0000
     14 C6         0.2912    7.6256    8.9237 C.ar      1 RES1    0.0000
     15 H6        -0.1163    7.1552    9.7692 H         1 RES1    0.0000
     16 C7         0.3509    9.0244    8.8730 C.ar      1 RES1    0.0000
     17 N2        -0.1759    9.7799    9.9234 N.pl3     1 RES1    0.0000
     18 H7        -0.0638   10.8244    9.9493 H         1 RES1    0.0000
     19 N3        -0.8219    9.1364   10.8869 N.2       1 RES1    0.0000
     20 C8        -1.3752    9.7860   11.8886 C.2       1 RES1    0.0000
     21 C9        -2.0547    8.8595   12.8511 C.2       1 RES1    0.0000
     22 C10       -2.0747    7.4057   12.5344 C.3       1 RES1    0.0000
     23 H8        -1.1238    7.1532   12.5634 H         1 RES1    0.0000
     24 H9        -2.6325    6.7154   13.1843 H         1 RES1    0.0000
     25 H10       -2.4027    7.4851   11.6703 H         1 RES1    0.0000
     26 O3        -2.6017    9.2729   13.8549 O.2       1 RES1    0.0000
     27 C11       -1.3660   11.2663   12.0252 C.2       1 RES1    0.0000
     28 O4        -0.8557   11.9749   11.1497 O.2       1 RES1    0.0000
     29 N4        -1.9199   11.7509   13.1533 N.am      1 RES1    0.0000
     30 H11       -2.3031   11.0260   13.8094 H         1 RES1    0.0000
     31 C12       -2.0631   13.0907   13.5889 C.ar      1 RES1    0.0000
     32 C13       -2.5394   13.2557   14.8649 C.ar      1 RES1    0.0000
     33 H12       -2.7703   12.4106   15.4434 H         1 RES1    0.0000
     34 C14       -2.7180   14.5181   15.4000 C.ar      1 RES1    0.0000
     35 H13       -3.0500   14.6321   16.3893 H         1 RES1    0.0000
     36 C15       -2.4532   15.6401   14.6135 C.ar      1 RES1    0.0000
     37 H14       -2.6031   16.6052   15.0005 H         1 RES1    0.0000
     38 C16       -1.9916   15.4710   13.3188 C.ar      1 RES1    0.0000
     39 H15       -1.7980   16.3140   12.7227 H         1 RES1    0.0000
     40 C17       -1.7794   14.1923   12.7962 C.ar      1 RES1    0.0000
     41 H16       -1.4113   14.0681   11.8203 H         1 RES1    0.0000
@<TRIPOS>BOND
     1    1    2 1
     2    2    3 2
     3    4    2 2
     4    5    1 ar
     5    6    5 1
     6    7    5 ar
     7    8    7 1
     8    9    8 1
     9   10    8 1
    10   11    8 1
    11   12    7 ar
    12   13   12 1
    13   14   12 ar
    14   15   14 1
    15   16    1 ar
    16   17   16 1
    17   18   17 1
    18   19   17 1
    19   20   19 2
    20   21   20 1
    21   22   21 1
    22   23   22 1
    23   24   22 1
    24   25   22 1
    25   26   21 2
    26   27   20 1
    27   28   27 2
    28   29   27 1
    29   30   29 1
    30   31   29 1
    31   32   31 ar
    32   33   32 1
    33   34   32 ar
    34   35   34 1
    35   36   34 ar
    36   37   36 1
    37   38   36 ar
    38   39   38 1
    39   40   31 ar
    40   41   40 1
    41   14   16 ar
    42   38   40 ar
@<TRIPOS>SUBSTRUCTURE
     1 RES1 1

@<TRIPOS>CRYSIN
   7.5870   20.3620   12.0330  90.0000 120.6800  90.0000  14 1

