# MOL2 file generated by ConQuest
# Please check atom types

@<TRIPOS>MOLECULE
QQQFGG01
    28    29     1
SMALL
NO_CHARGES
****
Generated from CSD

@<TRIPOS>ATOM
      1 O1         4.0167    6.4793    1.0010 O.2       1 RES1    0.0000
      2 O2         4.0680    8.4459    1.8240 O.2       1 RES1    0.0000
      3 O3         2.1580    9.5687    5.9624 O.2       1 RES1    0.0000
      4 O4         1.0968    8.1019    7.1125 O.2       1 RES1    0.0000
      5 N1         2.8714    4.4974    2.3003 N.pl3     1 RES1    0.0000
      6 H1         3.2113    4.7932    1.5346 H         1 RES1    0.0000
      7 N2         3.7391    7.2785    1.8913 N.pl3     1 RES1    0.0000
      8 N3         1.7602    8.4309    6.1419 N.pl3     1 RES1    0.0000
      9 C1         2.5067    3.1187    2.3824 C.ar      1 RES1    0.0000
     10 C2         2.8468    2.3398    3.4698 C.ar      1 RES1    0.0000
     11 H2         3.3018    2.7118    4.1919 H         1 RES1    0.0000
     12 C3         2.5046    1.0026    3.4752 C.ar      1 RES1    0.0000
     13 H3         2.7179    0.4748    4.2108 H         1 RES1    0.0000
     14 C4         1.8523    0.4455    2.4050 C.ar      1 RES1    0.0000
     15 H4         1.6234   -0.4560    2.4177 H         1 RES1    0.0000
     16 C5         1.5367    1.2209    1.3155 C.ar      1 RES1    0.0000
     17 H5         1.1043    0.8392    0.5869 H         1 RES1    0.0000
     18 C6         1.8578    2.5611    1.2985 C.ar      1 RES1    0.0000
     19 H6         1.6391    3.0861    0.5627 H         1 RES1    0.0000
     20 C7         2.6265    5.4506    3.2184 C.ar      1 RES1    0.0000
     21 C8         3.0185    6.8122    3.0563 C.ar      1 RES1    0.0000
     22 C9         2.7413    7.7748    4.0161 C.ar      1 RES1    0.0000
     23 H7         3.0060    8.6566    3.8877 H         1 RES1    0.0000
     24 C10        2.0748    7.4139    5.1544 C.ar      1 RES1    0.0000
     25 C11        1.6653    6.0955    5.3649 C.ar      1 RES1    0.0000
     26 H8         1.2133    5.8642    6.1438 H         1 RES1    0.0000
     27 C12        1.9324    5.1526    4.4234 C.ar      1 RES1    0.0000
     28 H9         1.6505    4.2786    4.5715 H         1 RES1    0.0000
@<TRIPOS>BOND
     1    1    7 2
     2    2    7 2
     3    3    8 2
     4    4    8 2
     5    5    6 1
     6    7   21 1
     7    8   24 1
     8    9    5 1
     9   10    9 ar
    10   11   10 1
    11   12   10 ar
    12   13   12 1
    13   14   12 ar
    14   15   14 1
    15   16   14 ar
    16   17   16 1
    17   18    9 ar
    18   19   18 1
    19   20    5 1
    20   21   20 ar
    21   22   21 ar
    22   23   22 1
    23   24   22 ar
    24   25   24 ar
    25   26   25 1
    26   27   20 ar
    27   28   27 1
    28   16   18 ar
    29   25   27 ar
@<TRIPOS>SUBSTRUCTURE
     1 RES1 1

@<TRIPOS>CRYSIN
   3.8926   11.0416   26.9230  90.0000  90.0040  90.0000 231 1

