# MOL2 file generated by ConQuest
# Please check atom types

@<TRIPOS>MOLECULE
QQQFGG02
    28    29     1
SMALL
NO_CHARGES
****
Generated from CSD

@<TRIPOS>ATOM
      1 O1        -0.1865    4.5495   12.4539 O.2       1 RES1    0.0000
      2 N1         0.9309    6.5286   11.1276 N.pl3     1 RES1    0.0000
      3 C1         1.2801    7.9149   11.0348 C.ar      1 RES1    0.0000
      4 H1         0.6245    6.2803   11.8577 H         1 RES1    0.0000
      5 O2        -0.1906    2.5419   11.6488 O.2       1 RES1    0.0000
      6 N2         0.1037    3.7295   11.5629 N.pl3     1 RES1    0.0000
      7 C2         0.9351    8.6842    9.9357 C.ar      1 RES1    0.0000
      8 H2         0.4788    8.2924    9.1997 H         1 RES1    0.0000
      9 O3         1.6376    1.4301    7.4735 O.2       1 RES1    0.0000
     10 N3         2.0467    2.5761    7.2911 N.pl3     1 RES1    0.0000
     11 C3         1.2629   10.0330    9.9207 C.ar      1 RES1    0.0000
     12 H3         1.0449   10.5628    9.1622 H         1 RES1    0.0000
     13 O4         2.7279    2.9119    6.3186 O.2       1 RES1    0.0000
     14 C4         1.9038   10.6103   10.9981 C.ar      1 RES1    0.0000
     15 H4         2.1247   11.5341   10.9806 H         1 RES1    0.0000
     16 C5         2.2255    9.8432   12.1077 C.ar      1 RES1    0.0000
     17 H5         2.6595   10.2427   12.8528 H         1 RES1    0.0000
     18 C6         1.9119    8.4900   12.1278 C.ar      1 RES1    0.0000
     19 H6         2.1292    7.9613   12.8876 H         1 RES1    0.0000
     20 C7         1.1768    5.5695   10.2130 C.ar      1 RES1    0.0000
     21 C8         0.8046    4.1986   10.3868 C.ar      1 RES1    0.0000
     22 C9         1.0760    3.2329    9.4269 C.ar      1 RES1    0.0000
     23 H7         0.8160    2.3300    9.5672 H         1 RES1    0.0000
     24 C10        1.7215    3.5960    8.2768 C.ar      1 RES1    0.0000
     25 C11        2.1131    4.9249    8.0507 C.ar      1 RES1    0.0000
     26 H8         2.5579    5.1633    7.2444 H         1 RES1    0.0000
     27 C12        1.8512    5.8730    8.9956 C.ar      1 RES1    0.0000
     28 H9         2.1282    6.7670    8.8376 H         1 RES1    0.0000
@<TRIPOS>BOND
     1    1    6 2
     2    2    3 1
     3    3    7 ar
     4    4    2 1
     5    5    6 2
     6    6   21 1
     7    7    8 1
     8    9   10 2
     9   10   13 2
    10   11    7 ar
    11   12   11 1
    12   14   11 ar
    13   15   14 1
    14   16   14 ar
    15   17   16 1
    16   18    3 ar
    17   19   18 1
    18   20    2 1
    19   21   20 ar
    20   22   21 ar
    21   23   22 1
    22   24   10 1
    23   25   24 ar
    24   26   25 1
    25   27   20 ar
    26   28   27 1
    27   16   18 ar
    28   22   24 ar
    29   25   27 ar
@<TRIPOS>SUBSTRUCTURE
     1 RES1 1

@<TRIPOS>CRYSIN
   3.7626   11.0374   26.8216  90.0000  90.2730  90.0000 231 1

