# MOL2 file generated by ConQuest
# Please check atom types

@<TRIPOS>MOLECULE
QQQFAD01
    43    36     3
SMALL
NO_CHARGES
****
Generated from CSD

@<TRIPOS>ATOM
      1 C1         0.9790    3.8069    2.6467 C.3       1 RES1    0.0000
      2 O1         3.3958    3.4793    2.8693 O.3       1 RES1    0.0000
      3 N1         0.9728    4.3530    1.2085 N.pl3     1 RES1    0.0000
      4 O2         0.0769    5.8890    3.5530 O.3       1 RES1    0.0000
      5 O3        -0.5002    1.9139    2.1845 O.3       1 RES1    0.0000
      6 C2        -0.3519    3.1080    2.9127 C.3       1 RES1    0.0000
      7 C3         1.1756    5.0083    3.5858 C.3       1 RES1    0.0000
      8 C4         2.1480    2.8131    2.7967 C.3       1 RES1    0.0000
      9 O4        -0.0397    4.2792    0.5782 O.2       1 RES1    0.0000
     10 O5         1.8308    4.9985    0.8201 O.2       1 RES1    0.0000
     11 O6         4.7853    3.1280    0.6749 O.3       2 RES2    0.0000
     12 C5         6.0768    1.3161   -0.2958 C.3       2 RES2    0.0000
     13 O7         4.9328   -0.7850   -0.7768 O.3       2 RES2    0.0000
     14 C6         7.3527    0.5107   -0.0838 C.3       2 RES2    0.0000
     15 N2         6.0541    1.7610   -1.7615 N.pl3     2 RES2    0.0000
     16 C7         4.8426    0.4404   -0.0644 C.3       2 RES2    0.0000
     17 C8         6.0346    2.5275    0.6321 C.3       2 RES2    0.0000
     18 O8         8.5081    1.3105   -0.2525 O.3       2 RES2    0.0000
     19 O9         6.5702    1.0813   -2.6045 O.2       2 RES2    0.0000
     20 O10        5.2912    2.6136   -2.0943 O.2       2 RES2    0.0000
     21 H1         3.8222    3.3949    2.2378 H         1 RES1    0.0000
     22 H2        -0.2484    5.8030    4.0597 H         1 RES1    0.0000
     23 H3        -0.6254    1.5112    1.5817 H         1 RES1    0.0000
     24 H4        -1.1237    3.5091    2.6537 H         1 RES1    0.0000
     25 H5        -0.3792    2.9159    3.9074 H         1 RES1    0.0000
     26 H6         1.9553    5.5295    3.2688 H         1 RES1    0.0000
     27 H7         1.2130    4.7961    4.2823 H         1 RES1    0.0000
     28 H8         2.3458    2.2043    2.0855 H         1 RES1    0.0000
     29 H9         1.9266    2.3498    3.7492 H         1 RES1    0.0000
     30 H10        4.7272    3.5169    0.2343 H         2 RES2    0.0000
     31 H11        4.7394   -1.0727   -0.5858 H         2 RES2    0.0000
     32 H12        7.5538   -0.2083   -0.8026 H         2 RES2    0.0000
     33 H13        7.3424    0.2517    0.7323 H         2 RES2    0.0000
     34 H14        3.9745    0.8577   -0.3691 H         2 RES2    0.0000
     35 H15        4.7438    0.3788    1.0603 H         2 RES2    0.0000
     36 H16        6.2855    2.2362    1.7047 H         2 RES2    0.0000
     37 H17        6.6639    3.1145    0.1992 H         2 RES2    0.0000
     38 H18        8.8267    1.0069   -1.1130 H         2 RES2    0.0000
     39 H19        6.5178    2.9259   -1.8746 Du        3 SUP3    0.0000
     40 H20        1.0094    5.5632    0.9139 Du        3 SUP3    0.0000
     41 H21        5.3363    1.5267   -2.5717 Du        3 SUP3    0.0000
     42 H22        1.5734    3.5065    0.4862 Du        3 SUP3    0.0000
     43 H23        6.8737    1.9707   -2.4135 Du        3 SUP3    0.0000
@<TRIPOS>BOND
     1    1    3 1
     2    2    8 1
     3    3    9 2
     4    4    7 1
     5    5    6 1
     6    6    1 1
     7    7    1 1
     8    8    1 1
     9   10    3 2
    10   11   17 1
    11   12   14 1
    12   13   16 1
    13   14   18 1
    14   15   12 1
    15   16   12 1
    16   17   12 1
    17   18   38 1
    18   19   15 2
    19   20   15 2
    20   21    2 1
    21   22    4 1
    22   23    5 1
    23   24    6 1
    24   25    6 1
    25   26    7 1
    26   27    7 1
    27   28    8 1
    28   29    8 1
    29   30   11 1
    30   31   13 1
    31   32   14 1
    32   33   14 1
    33   34   16 1
    34   35   16 1
    35   36   17 1
    36   37   17 1
@<TRIPOS>SUBSTRUCTURE
     1 RES1 1
     2 RES2 11
     3 SUP3 39

@<TRIPOS>CRYSIN
   9.8200    6.1050    6.2190 109.6100  89.8400  91.6700   1 1

