# MOL2 file generated by ConQuest
# Please check atom types

@<TRIPOS>MOLECULE
QUBHEA
    58    59     1
SMALL
NO_CHARGES
****
Generated from CSD

@<TRIPOS>ATOM
      1 O1         4.7252    3.9318    6.7520 O.2       1 RES1    0.0000
      2 O2         0.4663    6.3262    4.1642 O.2       1 RES1    0.0000
      3 O3         1.6453    4.7336    3.3293 O.2       1 RES1    0.0000
      4 O4         1.5887    6.6990    7.7997 O.3       1 RES1    0.0000
      5 N1         4.4746    6.0428    7.6185 N.am      1 RES1    0.0000
      6 N2         3.9417    5.7042    8.8655 N.3       1 RES1    0.0000
      7 N3         1.5254    5.7351    4.0201 N.pl3     1 RES1    0.0000
      8 C1         4.7826    5.1616    6.6458 C.2       1 RES1    0.0000
      9 C2         5.1290    5.9336    5.3891 C.3       1 RES1    0.0000
     10 C3         5.3022    7.3861    5.8808 C.3       1 RES1    0.0000
     11 C4         4.5853    7.4512    7.2265 C.3       1 RES1    0.0000
     12 C5         4.0366    5.7174    4.3147 C.3       1 RES1    0.0000
     13 C6         2.7085    6.2898    4.7767 C.3       1 RES1    0.0000
     14 C7         4.4229    6.3097    2.9584 C.3       1 RES1    0.0000
     15 C8         2.6844    4.9134    8.8328 C.3       1 RES1    0.0000
     16 C9         2.8518    3.9032    9.9857 C.3       1 RES1    0.0000
     17 C10        4.0216    4.4370   10.8143 C.3       1 RES1    0.0000
     18 C11        4.9167    5.0403    9.7547 C.3       1 RES1    0.0000
     19 C12        5.5786    5.5807    2.2930 C.3       1 RES1    0.0000
     20 C13        1.4263    5.8090    8.9240 C.3       1 RES1    0.0000
     21 C14        0.1674    4.9377    8.7502 C.3       1 RES1    0.0000
     22 C15        0.0724    4.1348    7.4787 C.3       1 RES1    0.0000
     23 C16        0.5487    7.6508    7.5825 C.3       1 RES1    0.0000
     24 C17        1.3072    6.5975   10.2442 C.3       1 RES1    0.0000
     25 C18        2.2839    7.7214   10.4816 C.3       1 RES1    0.0000
     26 H1         6.2697    7.5880    6.0397 H         1 RES1    0.0000
     27 H2         3.6802    7.8526    7.1629 H         1 RES1    0.0000
     28 H3         5.0541    8.0071    7.9046 H         1 RES1    0.0000
     29 H4         0.3497    7.0255   10.2145 H         1 RES1    0.0000
     30 H5         3.1140    3.0330    9.5576 H         1 RES1    0.0000
     31 H6         2.5812    4.4337    7.9894 H         1 RES1    0.0000
     32 H7         4.9708    8.0181    5.2556 H         1 RES1    0.0000
     33 H8         4.6627    7.3122    3.1576 H         1 RES1    0.0000
     34 H9         2.4063    8.2497    9.6847 H         1 RES1    0.0000
     35 H10        2.0483    8.2718   11.3165 H         1 RES1    0.0000
     36 H11        2.6394    7.3784    4.6622 H         1 RES1    0.0000
     37 H12       -0.9242    3.6506    7.3536 H         1 RES1    0.0000
     38 H13        2.0732    3.7719   10.5112 H         1 RES1    0.0000
     39 H14        5.6702    5.9115    1.5046 H         1 RES1    0.0000
     40 H15        4.4546    3.6396   11.4013 H         1 RES1    0.0000
     41 H16        5.4621    4.3344    9.2821 H         1 RES1    0.0000
     42 H17        0.8077    3.4631    7.4172 H         1 RES1    0.0000
     43 H18        2.4563    6.1101    5.6583 H         1 RES1    0.0000
     44 H19        0.8326    8.0732    6.8026 H         1 RES1    0.0000
     45 H20        0.2082    4.5439    6.7391 H         1 RES1    0.0000
     46 H21        5.4870    5.6799   10.0874 H         1 RES1    0.0000
     47 H22        5.8700    5.6027    5.0437 H         1 RES1    0.0000
     48 H23        3.2389    7.6431   10.6172 H         1 RES1    0.0000
     49 H24       -0.4913    5.5145    8.8159 H         1 RES1    0.0000
     50 H25        0.0333    4.2020    9.5576 H         1 RES1    0.0000
     51 H26        0.3997    8.1725    8.3073 H         1 RES1    0.0000
     52 H27        3.9217    4.6763    4.1748 H         1 RES1    0.0000
     53 H28        3.6136    6.2976    2.4159 H         1 RES1    0.0000
     54 H29       -0.3580    7.3563    7.3748 H         1 RES1    0.0000
     55 H30        1.3156    6.0660   10.9563 H         1 RES1    0.0000
     56 H31        3.7635    5.0733   11.4225 H         1 RES1    0.0000
     57 H32        5.4121    4.3565    2.1404 H         1 RES1    0.0000
     58 H33        6.4362    5.6689    2.7973 H         1 RES1    0.0000
@<TRIPOS>BOND
     1    1    8 2
     2    2    7 2
     3    3    7 2
     4    4   20 1
     5    5    6 1
     6    6   15 1
     7    7   13 1
     8    8    5 1
     9    9    8 1
    10   10    9 1
    11   11    5 1
    12   12    9 1
    13   13   12 1
    14   14   12 1
    15   15   16 1
    16   16   17 1
    17   17   18 1
    18   18    6 1
    19   19   14 1
    20   20   15 1
    21   21   20 1
    22   22   21 1
    23   23    4 1
    24   24   20 1
    25   25   24 1
    26   26   10 1
    27   27   11 1
    28   28   11 1
    29   29   24 1
    30   30   16 1
    31   31   15 1
    32   32   10 1
    33   33   14 1
    34   34   25 1
    35   35   25 1
    36   36   13 1
    37   37   22 1
    38   38   16 1
    39   39   19 1
    40   40   17 1
    41   41   18 1
    42   42   22 1
    43   43   13 1
    44   44   23 1
    45   45   22 1
    46   46   18 1
    47   47    9 1
    48   48   25 1
    49   49   21 1
    50   50   21 1
    51   51   23 1
    52   52   12 1
    53   53   14 1
    54   54   23 1
    55   55   24 1
    56   56   17 1
    57   57   19 1
    58   58   19 1
    59   10   11 1
@<TRIPOS>SUBSTRUCTURE
     1 RES1 1

@<TRIPOS>CRYSIN
   8.3263   11.0290   21.1920  90.0000  90.0000  90.0000  19 1

