# MOL2 file generated by ConQuest
# Please check atom types

@<TRIPOS>MOLECULE
QUBJII
    43    45     1
SMALL
USER_CHARGES
****
Generated from CSD

@<TRIPOS>ATOM
      1 O1        -2.1721   10.0979   -0.5366 O.3       1 RES1    0.0000
      2 H1        -2.7262   10.5760   -0.9048 H         1 RES1    0.0000
      3 C1         1.4645    5.8231    2.3765 C.3       1 RES1    0.0000
      4 H2         2.3295    6.1954    2.1918 H         1 RES1    0.0000
      5 H3         1.5126    4.8657    2.3370 H         1 RES1    0.0000
      6 H4         1.1797    6.0939    3.2523 H         1 RES1    0.0000
      7 C2         0.4585    6.3273    1.3349 C.3       1 RES1    0.0000
      8 N1        -2.1223   10.4067    0.8250 N.2       1 RES1    0.0000
      9 C3         0.3990    7.8720    1.2940 C.3       1 RES1    0.0000
     10 H5         0.6444    8.2460    2.1547 H         1 RES1    0.0000
     11 H6         1.0026    8.2197    0.6191 H         1 RES1    0.0000
     12 C4        -1.2847   11.1127    3.3859 C.ar      1 RES1    0.0000
     13 H7        -1.1970   11.7801    2.7436 H         1 RES1    0.0000
     14 O2        -3.0579    7.0398    1.5789 O.2       1 RES1   -1.0000
     15 C5         0.8114    5.7882   -0.0546 C.3       1 RES1    0.0000
     16 H8         1.6865    6.0942   -0.3043 H         1 RES1    0.0000
     17 H9         0.1673    6.1047   -0.6934 H         1 RES1    0.0000
     18 H10        0.8010    4.8288   -0.0383 H         1 RES1    0.0000
     19 C6        -2.5435    4.7312    3.1606 C.ar      1 RES1    0.0000
     20 H11       -2.9550    5.5375    3.3743 H         1 RES1    0.0000
     21 C7        -2.9824    3.5727    3.7367 C.ar      1 RES1    0.0000
     22 H12       -3.6768    3.6014    4.3558 H         1 RES1    0.0000
     23 N2        -1.7611    6.9975    1.4591 N.pl3     1 RES1    1.0000
     24 C8        -1.2343   11.4573    4.7182 C.ar      1 RES1    0.0000
     25 H13       -1.1394   12.3496    4.9645 H         1 RES1    0.0000
     26 C9        -0.9828    5.9797    1.6954 C.2       1 RES1    0.0000
     27 C10       -0.9028    3.5048    1.9479 C.ar      1 RES1    0.0000
     28 H14       -0.1912    3.4784    1.3497 H         1 RES1    0.0000
     29 C11       -1.5771    9.4835    1.5349 C.2       1 RES1    0.0000
     30 C12       -1.4604    9.8086    2.9738 C.ar      1 RES1    0.0000
     31 C13       -1.3609    2.3327    2.5171 C.ar      1 RES1    0.0000
     32 H15       -0.9633    1.5212    2.2964 H         1 RES1    0.0000
     33 C14       -1.0332    8.2096    0.9544 C.3       1 RES1    0.0000
     34 H16       -1.1239    8.2463   -0.0209 H         1 RES1    0.0000
     35 C15       -1.4515    9.1995    5.3118 C.ar      1 RES1    0.0000
     36 H17       -1.4888    8.5384    5.9634 H         1 RES1    0.0000
     37 C16       -1.4911    4.7170    2.2593 C.ar      1 RES1    0.0000
     38 C17       -1.3231   10.4955    5.6730 C.ar      1 RES1    0.0000
     39 H18       -1.2965   10.7287    6.5732 H         1 RES1    0.0000
     40 C18       -2.4098    2.3673    3.4138 C.ar      1 RES1    0.0000
     41 H19       -2.7264    1.5810    3.7948 H         1 RES1    0.0000
     42 C19       -1.5257    8.8515    3.9702 C.ar      1 RES1    0.0000
     43 H20       -1.6218    7.9571    3.7355 H         1 RES1    0.0000
@<TRIPOS>BOND
     1    1    2 1
     2    3    4 1
     3    5    3 1
     4    6    3 1
     5    7    3 1
     6    8    1 1
     7    9    7 1
     8   10    9 1
     9   11    9 1
    10   12   13 1
    11   14   23 1
    12   15    7 1
    13   16   15 1
    14   17   15 1
    15   18   15 1
    16   19   20 1
    17   21   19 ar
    18   22   21 1
    19   23   26 2
    20   24   12 ar
    21   25   24 1
    22   26    7 1
    23   27   28 1
    24   29    8 2
    25   30   12 ar
    26   31   27 ar
    27   32   31 1
    28   33    9 1
    29   34   33 1
    30   35   36 1
    31   37   19 ar
    32   38   24 ar
    33   39   38 1
    34   40   21 ar
    35   41   40 1
    36   42   30 ar
    37   43   42 1
    38   23   33 1
    39   26   37 1
    40   27   37 ar
    41   29   30 1
    42   29   33 1
    43   31   40 ar
    44   35   38 ar
    45   35   42 ar
@<TRIPOS>SUBSTRUCTURE
     1 RES1 1

@<TRIPOS>CRYSIN
   8.4089   10.0499   12.6368 102.2680 103.7270 110.2980   2 1

