# MOL2 file generated by ConQuest
# Please check atom types

@<TRIPOS>MOLECULE
QUBMAC
    41    44     1
SMALL
NO_CHARGES
****
Generated from CSD

@<TRIPOS>ATOM
      1 O1         8.7056    1.5121    4.9665 O.2       1 RES1    0.0000
      2 O2        10.0496    0.9351    3.3832 O.2       1 RES1    0.0000
      3 N1         5.1641    0.2584    5.1191 N.pl3     1 RES1    0.0000
      4 H1         4.9866   -0.2906    5.7569 H         1 RES1    0.0000
      5 N2         6.2074    1.1768    3.3992 N.2       1 RES1    0.0000
      6 N3         9.1496    0.7156    4.1753 N.pl3     1 RES1    0.0000
      7 C1         7.2329   -0.8619    4.3539 C.ar      1 RES1    0.0000
      8 C2         6.8006   -2.1865    4.4871 C.ar      1 RES1    0.0000
      9 H2         5.8633   -2.3525    4.6152 H         1 RES1    0.0000
     10 C3         7.7158   -3.2184    4.4475 C.ar      1 RES1    0.0000
     11 H3         7.4101   -4.1218    4.5478 H         1 RES1    0.0000
     12 C4         9.0393   -2.9634    4.2579 C.ar      1 RES1    0.0000
     13 H4         9.6430   -3.7087    4.2208 H         1 RES1    0.0000
     14 C5         9.4876   -1.6823    4.1399 C.ar      1 RES1    0.0000
     15 H5        10.4158   -1.4886    3.9924 H         1 RES1    0.0000
     16 C6         8.5886   -0.6405    4.2107 C.ar      1 RES1    0.0000
     17 C7         6.2442    0.1957    4.2891 C.2       1 RES1    0.0000
     18 C8         4.4101    1.3443    4.7601 C.2       1 RES1    0.0000
     19 C9         5.0530    1.9034    3.6857 C.2       1 RES1    0.0000
     20 C10        4.6887    3.0543    2.8498 C.ar      1 RES1    0.0000
     21 C11        5.6735    3.8807    2.3046 C.ar      1 RES1    0.0000
     22 H6         6.5457    3.5288    2.5827 H         1 RES1    0.0000
     23 C12        5.3521    4.9818    1.5336 C.ar      1 RES1    0.0000
     24 H7         6.0444    5.5432    1.1755 H         1 RES1    0.0000
     25 C13        4.0420    5.2744    1.2884 C.ar      1 RES1    0.0000
     26 H8         3.8151    6.0394    0.7559 H         1 RES1    0.0000
     27 C14        3.0440    4.4797    1.7923 C.ar      1 RES1    0.0000
     28 H9         2.1257    4.6793    1.5968 H         1 RES1    0.0000
     29 C15        3.3721    3.3627    2.5785 C.ar      1 RES1    0.0000
     30 H10        2.6580    2.8289    2.9332 H         1 RES1    0.0000
     31 C16        3.2117    1.7258    5.5379 C.ar      1 RES1    0.0000
     32 C17        3.0176    3.0424    5.9213 C.ar      1 RES1    0.0000
     33 H11        3.6435    3.7166    5.6491 H         1 RES1    0.0000
     34 C18        1.9405    3.3963    6.6822 C.ar      1 RES1    0.0000
     35 H12        1.8026    4.3156    6.9257 H         1 RES1    0.0000
     36 C19        1.0638    2.4395    7.1026 C.ar      1 RES1    0.0000
     37 H13        0.3119    2.6787    7.6495 H         1 RES1    0.0000
     38 C20        1.2270    1.1407    6.7361 C.ar      1 RES1    0.0000
     39 H14        0.5953    0.4784    7.0285 H         1 RES1    0.0000
     40 C21        2.3026    0.7809    5.9550 C.ar      1 RES1    0.0000
     41 H15        2.4213   -0.1384    5.6988 H         1 RES1    0.0000
@<TRIPOS>BOND
     1    1    6 2
     2    2    6 2
     3    3    4 1
     4    5   17 2
     5    6   16 1
     6    7    8 ar
     7    8    9 1
     8   10    8 ar
     9   11   10 1
    10   12   10 ar
    11   13   12 1
    12   14   12 ar
    13   15   14 1
    14   16    7 ar
    15   17    3 1
    16   18    3 1
    17   19    5 1
    18   20   19 1
    19   21   20 ar
    20   22   21 1
    21   23   21 ar
    22   24   23 1
    23   25   23 ar
    24   26   25 1
    25   27   25 ar
    26   28   27 1
    27   29   20 ar
    28   30   29 1
    29   31   18 1
    30   32   31 ar
    31   33   32 1
    32   34   32 ar
    33   35   34 1
    34   36   34 ar
    35   37   36 1
    36   38   36 ar
    37   39   38 1
    38   40   31 ar
    39   41   40 1
    40    7   17 1
    41   14   16 ar
    42   18   19 2
    43   27   29 ar
    44   38   40 ar
@<TRIPOS>SUBSTRUCTURE
     1 RES1 1

@<TRIPOS>CRYSIN
  10.5210   19.7690    9.0560  90.0000 111.4900  90.0000   9 1

