# MOL2 file generated by ConQuest
# Please check atom types

@<TRIPOS>MOLECULE
QUBNAD
    88    94     2
SMALL
NO_CHARGES
****
Generated from CSD

@<TRIPOS>ATOM
      1 O1         1.7227    6.3263    9.0174 O.2       1 RES1    0.0000
      2 O2         1.3315    8.0188    7.7531 O.2       1 RES1    0.0000
      3 N1         6.9354    4.4394    4.4219 N.3       1 RES1    0.0000
      4 N2         5.4445    5.1366    2.9230 N.2       1 RES1    0.0000
      5 N3         1.9228    6.9778    8.0016 N.pl3     1 RES1    0.0000
      6 C1         4.7980    5.5379    5.2473 C.ar      1 RES1    0.0000
      7 C2         3.9006    6.5526    4.8869 C.ar      1 RES1    0.0000
      8 H1         3.9335    6.9250    4.0024 H         1 RES1    0.0000
      9 C3         2.9623    7.0334    5.7726 C.ar      1 RES1    0.0000
     10 H2         2.3466    7.7316    5.5374 H         1 RES1    0.0000
     11 C4         2.9177    6.4874    7.0451 C.ar      1 RES1    0.0000
     12 C5         3.7812    5.4872    7.4414 C.ar      1 RES1    0.0000
     13 H3         3.7327    5.1358    8.3332 H         1 RES1    0.0000
     14 C6         4.7177    5.0211    6.5423 C.ar      1 RES1    0.0000
     15 H4         5.3272    4.3280    6.8072 H         1 RES1    0.0000
     16 C7         5.7185    5.0404    4.2187 C.2       1 RES1    0.0000
     17 C8         7.4623    4.1613    3.1670 C.2       1 RES1    0.0000
     18 C9         6.5215    4.5918    2.2636 C.2       1 RES1    0.0000
     19 C10        6.5178    4.5176    0.7872 C.ar      1 RES1    0.0000
     20 C11        7.2121    3.5443    0.0837 C.ar      1 RES1    0.0000
     21 H5         7.7306    2.8942    0.5651 H         1 RES1    0.0000
     22 C12        7.1744    3.5010   -1.3024 C.ar      1 RES1    0.0000
     23 H6         7.6727    2.8278   -1.7716 H         1 RES1    0.0000
     24 C13        6.4135    4.4107   -2.0020 C.ar      1 RES1    0.0000
     25 H7         6.3868    4.3805   -2.9614 H         1 RES1    0.0000
     26 C14        5.7028    5.3689   -1.3233 C.ar      1 RES1    0.0000
     27 H8         5.1678    6.0067   -1.8014 H         1 RES1    0.0000
     28 C15        5.7560    5.4303    0.0614 C.ar      1 RES1    0.0000
     29 H9         5.2489    6.0993    0.5276 H         1 RES1    0.0000
     30 C16        8.8057    3.5781    2.9676 C.ar      1 RES1    0.0000
     31 C17        9.1796    2.3671    3.5364 C.ar      1 RES1    0.0000
     32 H10        8.5595    1.9127    4.1123 H         1 RES1    0.0000
     33 C18       10.4157    1.8064    3.2808 C.ar      1 RES1    0.0000
     34 H11       10.6527    0.9765    3.7023 H         1 RES1    0.0000
     35 C19       11.2960    2.4463    2.4544 C.ar      1 RES1    0.0000
     36 H12       12.1283    2.0062    2.2695 H         1 RES1    0.0000
     37 C20       10.9604    3.6612    1.8919 C.ar      1 RES1    0.0000
     38 H13       11.6014    4.1088    1.3358 H         1 RES1    0.0000
     39 C21        9.7179    4.2329    2.1443 C.ar      1 RES1    0.0000
     40 H14        9.4696    5.0732    1.7522 H         1 RES1    0.0000
     41 C22        7.6649    4.2945    5.6843 C.3       1 RES1    0.0000
     42 H15        7.4520    5.0308    6.2628 H         1 RES1    0.0000
     43 H16        8.6085    4.2880    5.5089 H         1 RES1    0.0000
     44 H17        7.4120    3.4718    6.1076 H         1 RES1    0.0000
     45 O3         3.3268    2.3672    7.8869 O.2       2 RES2    0.0000
     46 O4         3.5363    0.5224    8.9778 O.2       2 RES2    0.0000
     47 N4         7.3557   -0.6133    2.7654 N.3       2 RES2    0.0000
     48 N5         8.5407   -1.3887    4.4768 N.2       2 RES2    0.0000
     49 N6         3.8021    1.2440    8.0370 N.pl3     2 RES2    0.0000
     50 C23        6.4949   -0.1800    5.1006 C.ar      2 RES2    0.0000
     51 C24        5.7591    0.9913    4.8877 C.ar      2 RES2    0.0000
     52 H18        5.8667    1.4768    4.0670 H         2 RES2    0.0000
     53 C25        4.8812    1.4604    5.8499 C.ar      2 RES2    0.0000
     54 H19        4.3720    2.2573    5.6809 H         2 RES2    0.0000
     55 C26        4.7581    0.7633    7.0289 C.ar      2 RES2    0.0000
     56 C27        5.4747   -0.3857    7.2843 C.ar      2 RES2    0.0000
     57 H20        5.3821   -0.8583    8.1159 H         2 RES2    0.0000
     58 C28        6.3373   -0.8466    6.3188 C.ar      2 RES2    0.0000
     59 H21        6.8497   -1.6399    6.4930 H         2 RES2    0.0000
     60 C29        7.4474   -0.7269    4.1273 C.2       2 RES2    0.0000
     61 C30        8.4613   -1.2439    2.2345 C.2       2 RES2    0.0000
     62 C31        9.1862   -1.7166    3.3042 C.2       2 RES2    0.0000
     63 C32       10.4477   -2.4743    3.3316 C.ar      2 RES2    0.0000
     64 C33       11.2640   -2.6268    2.2158 C.ar      2 RES2    0.0000
     65 H22       11.0153   -2.1986    1.3927 H         2 RES2    0.0000
     66 C34       12.4368   -3.3747    2.2812 C.ar      2 RES2    0.0000
     67 H23       12.9870   -3.4577    1.4988 H         2 RES2    0.0000
     68 C35       12.8112   -3.9751    3.4566 C.ar      2 RES2    0.0000
     69 H24       13.6046   -4.5130    3.4993 H         2 RES2    0.0000
     70 C36       12.0243   -3.8261    4.5706 C.ar      2 RES2    0.0000
     71 H25       12.2874   -4.2281    5.4016 H         2 RES2    0.0000
     72 C37       10.8589   -3.0876    4.5055 C.ar      2 RES2    0.0000
     73 H26       10.3249   -2.9895    5.2968 H         2 RES2    0.0000
     74 C38        8.6557   -1.2981    0.7562 C.ar      2 RES2    0.0000
     75 C39        9.1670   -0.2001    0.0861 C.ar      2 RES2    0.0000
     76 H27        9.4193    0.5843    0.5793 H         2 RES2    0.0000
     77 C40        9.3089   -0.2322   -1.2877 C.ar      2 RES2    0.0000
     78 H28        9.6653    0.5307   -1.7484 H         2 RES2    0.0000
     79 C41        8.9322   -1.3440   -1.9961 C.ar      2 RES2    0.0000
     80 H29        9.0210   -1.3561   -2.9523 H         2 RES2    0.0000
     81 C42        8.4303   -2.4348   -1.3452 C.ar      2 RES2    0.0000
     82 H30        8.1806   -3.2161   -1.8441 H         2 RES2    0.0000
     83 C43        8.2886   -2.4143    0.0344 C.ar      2 RES2    0.0000
     84 H31        7.9301   -3.1773    0.4940 H         2 RES2    0.0000
     85 C44        6.2301   -0.0933    1.9787 C.3       2 RES2    0.0000
     86 H32        6.1712   -0.5711    1.1483 H         2 RES2    0.0000
     87 H33        6.3685    0.8409    1.8001 H         2 RES2    0.0000
     88 H34        5.4139   -0.2063    2.4725 H         2 RES2    0.0000
@<TRIPOS>BOND
     1    1    5 2
     2    2    5 2
     3    3   16 1
     4    4   16 2
     5    5   11 1
     6    6    7 ar
     7    7    8 1
     8    9    7 ar
     9   10    9 1
    10   11    9 ar
    11   12   11 ar
    12   13   12 1
    13   14    6 ar
    14   15   14 1
    15   16    6 1
    16   17    3 1
    17   18    4 1
    18   19   18 1
    19   20   19 ar
    20   21   20 1
    21   22   20 ar
    22   23   22 1
    23   24   22 ar
    24   25   24 1
    25   26   24 ar
    26   27   26 1
    27   28   19 ar
    28   29   28 1
    29   30   17 1
    30   31   30 ar
    31   32   31 1
    32   33   31 ar
    33   34   33 1
    34   35   33 ar
    35   36   35 1
    36   37   35 ar
    37   38   37 1
    38   39   30 ar
    39   40   39 1
    40   41    3 1
    41   42   41 1
    42   43   41 1
    43   44   41 1
    44   45   49 2
    45   46   49 2
    46   47   60 1
    47   48   60 2
    48   49   55 1
    49   50   51 ar
    50   51   52 1
    51   53   51 ar
    52   54   53 1
    53   55   53 ar
    54   56   55 ar
    55   57   56 1
    56   58   50 ar
    57   59   58 1
    58   60   50 1
    59   61   47 1
    60   62   48 1
    61   63   62 1
    62   64   63 ar
    63   65   64 1
    64   66   64 ar
    65   67   66 1
    66   68   66 ar
    67   69   68 1
    68   70   68 ar
    69   71   70 1
    70   72   63 ar
    71   73   72 1
    72   74   61 1
    73   75   74 ar
    74   76   75 1
    75   77   75 ar
    76   78   77 1
    77   79   77 ar
    78   80   79 1
    79   81   79 ar
    80   82   81 1
    81   83   74 ar
    82   84   83 1
    83   85   47 1
    84   86   85 1
    85   87   85 1
    86   88   85 1
    87   12   14 ar
    88   17   18 2
    89   26   28 ar
    90   37   39 ar
    91   56   58 ar
    92   61   62 2
    93   70   72 ar
    94   81   83 ar
@<TRIPOS>SUBSTRUCTURE
     1 RES1 1
     2 RES2 45

@<TRIPOS>CRYSIN
  11.8550   12.3840   14.7910 111.9500  99.5600 109.6300   2 1

