# MOL2 file generated by ConQuest
# Please check atom types

@<TRIPOS>MOLECULE
QUBWUH
    43    46     1
SMALL
NO_CHARGES
****
Generated from CSD

@<TRIPOS>ATOM
      1 C1         3.7885    3.4521    1.5545 C.ar      1 RES1    0.0000
      2 C2         3.4205    2.1270    1.4912 C.ar      1 RES1    0.0000
      3 H1         2.5250    1.8798    1.5387 H         1 RES1    0.0000
      4 C3         4.4044    1.1776    1.3564 C.ar      1 RES1    0.0000
      5 H2         4.1724    0.2771    1.3211 H         1 RES1    0.0000
      6 C4         5.7279    1.5405    1.2728 C.ar      1 RES1    0.0000
      7 H3         6.3797    0.8856    1.1661 H         1 RES1    0.0000
      8 C5         6.0945    2.8613    1.3456 C.ar      1 RES1    0.0000
      9 H4         6.9919    3.1003    1.2899 H         1 RES1    0.0000
     10 C6         5.1161    3.8443    1.5026 C.ar      1 RES1    0.0000
     11 C7         5.3701    5.2422    1.6990 C.2       1 RES1    0.0000
     12 C8         7.0619    6.8925    1.8075 C.2       1 RES1    0.0000
     13 C9         9.3187    5.9813    1.5061 C.3       1 RES1    0.0000
     14 H5        10.2003    6.3515    1.4189 H         1 RES1    0.0000
     15 H6         9.1060    5.4718    0.7205 H         1 RES1    0.0000
     16 H7         9.2875    5.4093    2.2762 H         1 RES1    0.0000
     17 C10        6.1061    7.8663    2.0272 C.2       1 RES1    0.0000
     18 C11        4.6728    7.5473    2.3468 C.3       1 RES1    0.0000
     19 H8         4.0870    8.1582    1.8527 H         1 RES1    0.0000
     20 C12        4.3967    6.1390    1.9126 C.2       1 RES1    0.0000
     21 C13        3.0176    5.7087    1.8727 C.2       1 RES1    0.0000
     22 C14        4.3908    7.6800    3.8439 C.ar      1 RES1    0.0000
     23 C15        4.9528    6.7779    4.7319 C.ar      1 RES1    0.0000
     24 H9         5.4813    6.0839    4.4090 H         1 RES1    0.0000
     25 C16        4.7377    6.8984    6.0914 C.ar      1 RES1    0.0000
     26 H10        5.1241    6.2832    6.6708 H         1 RES1    0.0000
     27 C17        3.9578    7.9184    6.6054 C.ar      1 RES1    0.0000
     28 C18        3.7432    8.0485    8.0833 C.3       1 RES1    0.0000
     29 H11        4.2246    7.3539    8.5392 H         1 RES1    0.0000
     30 H12        2.8074    7.9719    8.2786 H         1 RES1    0.0000
     31 H13        4.0622    8.9058    8.3789 H         1 RES1    0.0000
     32 C19        3.3789    8.7941    5.7110 C.ar      1 RES1    0.0000
     33 H14        2.8366    9.4778    6.0324 H         1 RES1    0.0000
     34 C20        3.5843    8.6808    4.3501 C.ar      1 RES1    0.0000
     35 H15        3.1765    9.2832    3.7706 H         1 RES1    0.0000
     36 N1         8.3546    7.0553    1.6620 N.3       1 RES1    0.0000
     37 H16        8.6550    7.8610    1.6586 H         1 RES1    0.0000
     38 N2         6.4784    9.2000    2.0667 N.pl3     1 RES1    0.0000
     39 O1         6.6997    5.5810    1.7130 O.3       1 RES1    0.0000
     40 O2         2.7737    4.3730    1.6833 O.3       1 RES1    0.0000
     41 O3         2.0634    6.4258    1.9945 O.2       1 RES1    0.0000
     42 O4         5.5974   10.0495    2.2775 O.2       1 RES1    0.0000
     43 O5         7.6789    9.5443    1.8990 O.2       1 RES1    0.0000
@<TRIPOS>BOND
     1    1    2 ar
     2    2    3 1
     3    4    2 ar
     4    5    4 1
     5    6    4 ar
     6    7    6 1
     7    8    6 ar
     8    9    8 1
     9   10    1 ar
    10   11   10 1
    11   12   17 2
    12   13   14 1
    13   15   13 1
    14   16   13 1
    15   17   18 1
    16   18   19 1
    17   20   11 2
    18   21   20 1
    19   22   18 1
    20   23   22 ar
    21   24   23 1
    22   25   23 ar
    23   26   25 1
    24   27   25 ar
    25   28   27 1
    26   29   28 1
    27   30   28 1
    28   31   28 1
    29   32   27 ar
    30   33   32 1
    31   34   22 ar
    32   35   34 1
    33   36   12 1
    34   37   36 1
    35   38   17 1
    36   39   11 1
    37   40    1 1
    38   41   21 2
    39   42   38 2
    40   43   38 2
    41    8   10 ar
    42   12   39 1
    43   13   36 1
    44   18   20 1
    45   21   40 1
    46   32   34 ar
@<TRIPOS>SUBSTRUCTURE
     1 RES1 1

@<TRIPOS>CRYSIN
  10.8336   11.7927   13.7275  90.0000 108.3570  90.0000 231 1

