# MOL2 file generated by ConQuest
# Please check atom types

@<TRIPOS>MOLECULE
QUDQEL
    36    38     1
SMALL
NO_CHARGES
****
Generated from CSD

@<TRIPOS>ATOM
      1 O1        -0.7701   -3.2631   -5.3500 O.3       1 RES1    0.0000
      2 C1         0.4431   -3.9073   -5.4230 C.2       1 RES1    0.0000
      3 C2         1.1658   -3.7061   -4.3174 C.2       1 RES1    0.0000
      4 H1         2.0168   -4.0405   -4.1450 H         1 RES1    0.0000
      5 C3         0.3862   -2.8823   -3.4476 C.ar      1 RES1    0.0000
      6 C4         0.5451   -2.3233   -2.1667 C.ar      1 RES1    0.0000
      7 H2         1.3205   -2.4705   -1.6747 H         1 RES1    0.0000
      8 C5        -0.4753   -1.5526   -1.6597 C.ar      1 RES1    0.0000
      9 H3        -0.3857   -1.1834   -0.8100 H         1 RES1    0.0000
     10 C6        -1.6305   -1.3123   -2.3802 C.ar      1 RES1    0.0000
     11 H4        -2.2969   -0.7846   -2.0050 H         1 RES1    0.0000
     12 C7        -1.8216   -1.8391   -3.6515 C.ar      1 RES1    0.0000
     13 H5        -2.5917   -1.6728   -4.1450 H         1 RES1    0.0000
     14 C8        -0.7965   -2.6220   -4.1307 C.ar      1 RES1    0.0000
     15 C9         0.6910   -4.7319   -6.6421 C.3       1 RES1    0.0000
     16 H6        -0.0170   -5.4042   -6.7331 H         1 RES1    0.0000
     17 C10        2.0326   -5.4138   -6.6090 C.3       1 RES1    0.0000
     18 H7         2.1522   -5.9241   -7.4139 H         1 RES1    0.0000
     19 H8         2.0754   -5.9981   -5.8484 H         1 RES1    0.0000
     20 H9         2.7254   -4.7528   -6.5436 H         1 RES1    0.0000
     21 O2         0.6881   -3.8529   -7.8109 O.3       1 RES1    0.0000
     22 C11       -0.2696   -4.0388   -8.7232 C.2       1 RES1    0.0000
     23 O3        -1.2121   -4.7694   -8.5911 O.2       1 RES1    0.0000
     24 C12       -0.0170   -3.2106   -9.9389 C.ar      1 RES1    0.0000
     25 C13       -0.9905   -3.1880  -10.9253 C.ar      1 RES1    0.0000
     26 H10       -1.7765   -3.6730  -10.8121 H         1 RES1    0.0000
     27 C14       -0.7965   -2.4461  -12.0751 C.ar      1 RES1    0.0000
     28 H11       -1.4447   -2.4182  -12.7424 H         1 RES1    0.0000
     29 C15        0.3821   -1.7494  -12.2067 C.ar      1 RES1    0.0000
     30 C16        1.3539   -1.7494  -11.2513 C.ar      1 RES1    0.0000
     31 H12        2.1399   -1.2661  -11.3694 H         1 RES1    0.0000
     32 C17        1.1411   -2.4887  -10.1006 C.ar      1 RES1    0.0000
     33 H13        1.7870   -2.4966   -9.4304 H         1 RES1    0.0000
     34 N1         0.5984   -0.9640  -13.4404 N.pl3     1 RES1    0.0000
     35 O4        -0.2772   -0.9387  -14.2683 O.2       1 RES1    0.0000
     36 O5         1.6610   -0.3936  -13.5642 O.2       1 RES1    0.0000
@<TRIPOS>BOND
     1    1    2 1
     2    2    3 2
     3    3    4 1
     4    5    3 1
     5    6    5 ar
     6    7    6 1
     7    8    6 ar
     8    9    8 1
     9   10    8 ar
    10   11   10 1
    11   12   10 ar
    12   13   12 1
    13   14    1 1
    14   15    2 1
    15   16   15 1
    16   17   15 1
    17   18   17 1
    18   19   17 1
    19   20   17 1
    20   21   15 1
    21   22   21 1
    22   23   22 2
    23   24   22 1
    24   25   24 ar
    25   26   25 1
    26   27   25 ar
    27   28   27 1
    28   29   27 ar
    29   30   29 ar
    30   31   30 1
    31   32   24 ar
    32   33   32 1
    33   34   29 1
    34   35   34 2
    35   36   34 2
    36    5   14 ar
    37   12   14 ar
    38   30   32 ar
@<TRIPOS>SUBSTRUCTURE
     1 RES1 1

@<TRIPOS>CRYSIN
   5.8610    8.7080   28.7250  90.0000  90.0000  90.0000  19 1

