# MOL2 file generated by ConQuest
# Please check atom types

@<TRIPOS>MOLECULE
QUDROX
    32    34     1
SMALL
NO_CHARGES
****
Generated from CSD

@<TRIPOS>ATOM
      1 O1         3.3907   -0.6197   10.1389 O.2       1 RES1    0.0000
      2 O2         4.9757   -0.6507   14.0221 O.3       1 RES1    0.0000
      3 N1         5.8382   -1.7447   13.7771 N.2       1 RES1    0.0000
      4 O3         4.6713   -2.3534    9.9779 O.2       1 RES1    0.0000
      5 O4         7.5042   -3.0290   11.5885 O.2       1 RES1    0.0000
      6 C1         3.3301    0.7535   13.0699 C.ar      1 RES1    0.0000
      7 C2         5.5818   -2.1234   12.5585 C.2       1 RES1    0.0000
      8 N2         4.1705   -1.4296   10.6116 N.pl3     1 RES1    0.0000
      9 C3         4.2302   -0.3879   12.9270 C.2       1 RES1    0.0000
     10 C4         3.6577    1.7657   13.9747 C.ar      1 RES1    0.0000
     11 C5         4.5836   -1.3083   11.9785 C.2       1 RES1    0.0000
     12 C6         5.7586   -4.5998   11.9339 C.ar      1 RES1    0.0000
     13 C7         2.1474    0.8541   12.3509 C.ar      1 RES1    0.0000
     14 C8         1.6671    2.9445   13.4108 C.ar      1 RES1    0.0000
     15 C9         2.8255    2.8506   14.1377 C.ar      1 RES1    0.0000
     16 C10        4.5821   -4.8637   12.6002 C.ar      1 RES1    0.0000
     17 C11        6.3804   -3.2652   11.9684 C.2       1 RES1    0.0000
     18 C12        1.3245    1.9439   12.5242 C.ar      1 RES1    0.0000
     19 C13        6.3726   -5.6127   11.2215 C.ar      1 RES1    0.0000
     20 C14        5.7984   -6.8621   11.1601 C.ar      1 RES1    0.0000
     21 C15        4.0378   -6.1316   12.5595 C.ar      1 RES1    0.0000
     22 C16        4.6403   -7.1219   11.8308 C.ar      1 RES1    0.0000
     23 H1         4.4841    1.7061   14.4676 H         1 RES1    0.0000
     24 H2         1.1178    3.7024   13.5182 H         1 RES1    0.0000
     25 H3         0.4979    2.0146   12.0320 H         1 RES1    0.0000
     26 H4         3.0849    3.5585   14.7380 H         1 RES1    0.0000
     27 H5         1.9290    0.1646   11.7319 H         1 RES1    0.0000
     28 H6         4.2059   -7.9999   11.7931 H         1 RES1    0.0000
     29 H7         3.2191   -6.3292   13.0070 H         1 RES1    0.0000
     30 H8         4.1689   -4.1829   13.0859 H         1 RES1    0.0000
     31 H9         7.1568   -5.4109   10.7806 H         1 RES1    0.0000
     32 H10        6.2406   -7.5609   10.6543 H         1 RES1    0.0000
@<TRIPOS>BOND
     1    1    8 2
     2    2    3 1
     3    3    7 2
     4    4    8 2
     5    5   17 2
     6    6    9 1
     7    7   11 1
     8    8   11 1
     9    9    2 1
    10   10    6 ar
    11   11    9 2
    12   12   16 ar
    13   13    6 ar
    14   14   15 ar
    15   15   10 ar
    16   16   21 ar
    17   17    7 1
    18   18   13 ar
    19   19   12 ar
    20   20   19 ar
    21   21   22 ar
    22   22   20 ar
    23   23   10 1
    24   24   14 1
    25   25   18 1
    26   26   15 1
    27   27   13 1
    28   28   22 1
    29   29   21 1
    30   30   16 1
    31   31   19 1
    32   32   20 1
    33   12   17 1
    34   14   18 ar
@<TRIPOS>SUBSTRUCTURE
     1 RES1 1

@<TRIPOS>CRYSIN
   5.7370   12.1950   19.8440  90.0000  95.9400  90.0000 231 1

