# MOL2 file generated by ConQuest
# Please check atom types

@<TRIPOS>MOLECULE
QUFFUS
    45    45     2
SMALL
NO_CHARGES
****
Generated from CSD

@<TRIPOS>ATOM
      1 O1         3.8508    4.4393    8.3990 O.3       1 RES1    0.0000
      2 H1         4.3488    4.9837    7.9972 H         1 RES1    0.0000
      3 O2         3.7908    3.7050   -2.9070 O.2       1 RES1    0.0000
      4 N1         4.6732    4.2412    4.1006 N.pl3     1 RES1    0.0000
      5 N2         2.2535    6.5995   -4.0167 N.2       1 RES1    0.0000
      6 C1         3.9191    3.1084    7.7240 C.3       1 RES1    0.0000
      7 H2         3.1971    2.5126    8.0461 H         1 RES1    0.0000
      8 H3         4.7922    2.6735    7.8909 H         1 RES1    0.0000
      9 C2         4.9390    4.0436    5.5409 C.3       1 RES1    0.0000
     10 H4         5.1471    4.9163    5.9618 H         1 RES1    0.0000
     11 H5         5.7251    3.4531    5.6546 H         1 RES1    0.0000
     12 C3         4.0389    5.3289    3.6532 C.2       1 RES1    0.0000
     13 H6         3.8083    6.0097    4.2739 H         1 RES1    0.0000
     14 C4         3.7119    5.4986    2.3564 C.2       1 RES1    0.0000
     15 H7         3.2301    6.2728    2.0896 H         1 RES1    0.0000
     16 C5         4.0782    4.5426    1.4009 C.2       1 RES1    0.0000
     17 C6         4.7323    3.4182    1.9047 C.2       1 RES1    0.0000
     18 H8         4.9789    2.7205    1.3084 H         1 RES1    0.0000
     19 C7         5.0245    3.2942    3.2216 C.2       1 RES1    0.0000
     20 H9         5.4862    2.5209    3.5256 H         1 RES1    0.0000
     21 C8         3.7995    4.6671    0.0032 C.2       1 RES1    0.0000
     22 H10        4.0168    3.9182   -0.5410 H         1 RES1    0.0000
     23 C9         3.2689    5.7152   -0.6175 C.2       1 RES1    0.0000
     24 H11        3.0735    6.4724   -0.0787 H         1 RES1    0.0000
     25 C10        2.9628    5.8236   -2.0025 C.2       1 RES1    0.0000
     26 C11        3.2589    4.8000   -2.9506 C.2       1 RES1    0.0000
     27 O3         2.7908    5.2900   -4.1655 O.3       1 RES1    0.0000
     28 C12        2.3823    6.8885   -2.7380 C.2       1 RES1    0.0000
     29 C13        1.9657    8.2449   -2.3245 C.ar      1 RES1    0.0000
     30 C14        2.0130    9.2635   -3.2291 C.ar      1 RES1    0.0000
     31 H12        2.2766    9.0846   -4.1240 H         1 RES1    0.0000
     32 C15        1.6856   10.5389   -2.8634 C.ar      1 RES1    0.0000
     33 H13        1.7232   11.2354   -3.5075 H         1 RES1    0.0000
     34 C16        1.3072   10.8233   -1.5880 C.ar      1 RES1    0.0000
     35 H14        1.1105   11.7159   -1.3297 H         1 RES1    0.0000
     36 C17        1.2132    9.7944   -0.6781 C.ar      1 RES1    0.0000
     37 H15        0.9192    9.9773    0.2062 H         1 RES1    0.0000
     38 C18        1.5410    8.5000   -1.0310 C.ar      1 RES1    0.0000
     39 H16        1.4755    7.7950   -0.3975 H         1 RES1    0.0000
     40 C19        3.7406    3.4273    6.2264 C.3       1 RES1    0.0000
     41 H17        2.9613    4.0454    6.1223 H         1 RES1    0.0000
     42 O4         3.3887    2.1642    5.6875 O.3       1 RES1    0.0000
     43 H18        2.9327    2.2737    4.9903 H         1 RES1    0.0000
     44 O5         2.7367    4.1588    6.0415 Du        2 SUP2    0.0000
     45 H19        2.2192    3.7882    5.4973 Du        2 SUP2    0.0000
@<TRIPOS>BOND
     1    1    2 1
     2    3   26 2
     3    4    9 1
     4    5   27 1
     5    6    1 1
     6    7    6 1
     7    8    6 1
     8    9   10 1
     9   11    9 1
    10   12    4 1
    11   13   12 1
    12   14   12 2
    13   15   14 1
    14   16   14 1
    15   17   16 1
    16   18   17 1
    17   19    4 1
    18   20   19 1
    19   21   16 2
    20   22   21 1
    21   23   21 1
    22   24   23 1
    23   25   23 2
    24   26   25 1
    25   27   26 1
    26   28    5 2
    27   29   28 1
    28   30   29 ar
    29   31   30 1
    30   32   30 ar
    31   33   32 1
    32   34   32 ar
    33   35   34 1
    34   36   34 ar
    35   37   36 1
    36   38   29 ar
    37   39   38 1
    38   40    6 1
    39   41   40 1
    40   42   40 1
    41   43   42 1
    42    9   40 1
    43   17   19 2
    44   25   28 1
    45   36   38 ar
@<TRIPOS>SUBSTRUCTURE
     1 RES1 1
     2 SUP2 44

@<TRIPOS>CRYSIN
   7.7610   10.2570   11.1190  73.4080  80.7440  70.2400   2 1

