# MOL2 file generated by ConQuest
# Please check atom types

@<TRIPOS>MOLECULE
QUFPOY
    34    34     2
SMALL
USER_CHARGES
****
Generated from CSD

@<TRIPOS>ATOM
      1 O1         7.1072    7.3512    4.3225 O.2       1 RES1   -1.0000
      2 O2         5.9474    8.3383    2.1382 O.2       1 RES1    0.0000
      3 O3         5.0543    6.8925    0.8034 O.2       1 RES1    0.0000
      4 O4         9.0773    5.9982    5.8355 O.2       1 RES1    0.0000
      5 O5         7.9121    4.2458    6.2932 O.2       1 RES1    0.0000
      6 N1         5.8144    7.1966    1.7050 N.pl3     1 RES1    0.0000
      7 N2         7.6121    2.7936    1.3994 N.1       1 RES1    1.0000
      8 N3         7.7644    1.8955    0.7742 N.1       1 RES1    0.0000
      9 N4         8.2886    5.1040    5.5298 N.pl3     1 RES1    0.0000
     10 C1         7.1659    6.3127    3.6604 C.ar      1 RES1    0.0000
     11 C2         6.5876    6.1219    2.3241 C.ar      1 RES1    0.0000
     12 C3         6.7345    4.9957    1.5898 C.ar      1 RES1    0.0000
     13 C4         7.4103    3.9108    2.1658 C.ar      1 RES1    0.0000
     14 C5         7.9028    3.9327    3.4807 C.ar      1 RES1    0.0000
     15 C6         7.7628    5.0821    4.1581 C.ar      1 RES1    0.0000
     16 H1         8.3427    3.1312    3.8248 H         1 RES1    0.0000
     17 H2         6.2938    5.0125    0.7066 H         1 RES1    0.0000
     18 O6         3.5497    5.0950    3.5084 O.2       2 RES2   -1.0000
     19 O7         4.7373    2.3658    1.1735 O.2       2 RES2    0.0000
     20 O8         2.7541    3.1157    1.6344 O.2       2 RES2    0.0000
     21 O9         3.8250    5.0975    7.4176 O.2       2 RES2    0.0000
     22 O10        4.6360    6.2998    5.8048 O.2       2 RES2    0.0000
     23 N5         3.8745    2.7652    1.9708 N.pl3     2 RES2    0.0000
     24 N6         5.4471    0.6146    5.9661 N.1       2 RES2    1.0000
     25 N7         5.7224   -0.3144    6.4914 N.1       2 RES2    0.0000
     26 N8         4.2804    5.2419    6.2902 N.pl3     2 RES2    0.0000
     27 C7         4.0237    4.1066    4.0660 C.ar      2 RES2    0.0000
     28 C8         4.2487    2.8232    3.3870 C.ar      2 RES2    0.0000
     29 C9         4.7582    1.7112    3.9569 C.ar      2 RES2    0.0000
     30 C10        5.0667    1.7679    5.3363 C.ar      2 RES2    0.0000
     31 C11        4.8842    2.9379    6.0889 C.ar      2 RES2    0.0000
     32 C12        4.4234    4.0371    5.4668 C.ar      2 RES2    0.0000
     33 H3         4.9561    0.9149    3.4408 H         2 RES2    0.0000
     34 H4         5.1494    2.8993    6.9891 H         2 RES2    0.0000
@<TRIPOS>BOND
     1    1   10 1
     2    2    6 2
     3    3    6 2
     4    4    9 2
     5    5    9 2
     6    6   11 1
     7    7    8 3
     8    9   15 1
     9   10   11 ar
    10   11   12 ar
    11   12   13 ar
    12   13    7 1
    13   14   13 ar
    14   15   10 ar
    15   16   14 1
    16   17   12 1
    17   18   27 1
    18   19   23 2
    19   20   23 2
    20   21   26 2
    21   22   26 2
    22   23   28 1
    23   24   25 3
    24   26   32 1
    25   27   28 ar
    26   28   29 ar
    27   29   30 ar
    28   30   24 1
    29   31   30 ar
    30   32   27 ar
    31   33   29 1
    32   34   31 1
    33   14   15 ar
    34   31   32 ar
@<TRIPOS>SUBSTRUCTURE
     1 RES1 1
     2 RES2 18

@<TRIPOS>CRYSIN
   7.7319   12.8856   15.3606  90.0000  90.0000  90.0000  19 1

