# MOL2 file generated by ConQuest
# Please check atom types

@<TRIPOS>MOLECULE
QUFPAK
    20    20     1
SMALL
NO_CHARGES
****
Generated from CSD

@<TRIPOS>ATOM
      1 O1         4.1758   -0.7182    3.4230 O.2       1 RES1    0.0000
      2 O2         2.7461    0.6419    4.2563 O.2       1 RES1    0.0000
      3 O3         6.4871    3.2299   -1.0424 O.2       1 RES1    0.0000
      4 O4         7.1087    1.2807   -0.3644 O.2       1 RES1    0.0000
      5 N1         5.8722    0.0896    1.6051 N.3       1 RES1    0.0000
      6 N2         3.6307    0.3867    3.4507 N.pl3     1 RES1    0.0000
      7 N3         2.7786    4.7964    1.7294 N.3       1 RES1    0.0000
      8 N4         6.3667    2.2683   -0.2839 N.pl3     1 RES1    0.0000
      9 C1         5.1212    1.1965    1.6061 C.ar      1 RES1    0.0000
     10 C2         4.0187    1.4068    2.4945 C.ar      1 RES1    0.0000
     11 C3         3.2514    2.5555    2.5119 C.ar      1 RES1    0.0000
     12 C4         3.5105    3.6179    1.6513 C.ar      1 RES1    0.0000
     13 C5         4.5624    3.4651    0.7575 C.ar      1 RES1    0.0000
     14 C6         5.3243    2.3045    0.7258 C.ar      1 RES1    0.0000
     15 H1         4.7544    4.1291    0.1899 H         1 RES1    0.0000
     16 H2         2.0465    4.7112    2.1360 H         1 RES1    0.0000
     17 H3         2.5280    2.6167    3.1214 H         1 RES1    0.0000
     18 H4         6.5408    0.1084    1.0319 H         1 RES1    0.0000
     19 H5         5.7154   -0.6050    2.2082 H         1 RES1    0.0000
     20 H6         2.7646    5.2791    0.9906 H         1 RES1    0.0000
@<TRIPOS>BOND
     1    1    6 2
     2    2    6 2
     3    3    8 2
     4    4    8 2
     5    5    9 1
     6    6   10 1
     7    7   12 1
     8    8   14 1
     9    9   10 ar
    10   10   11 ar
    11   11   12 ar
    12   12   13 ar
    13   13   14 ar
    14   14    9 ar
    15   15   13 1
    16   16    7 1
    17   17   11 1
    18   18    5 1
    19   19    5 1
    20   20    7 1
@<TRIPOS>SUBSTRUCTURE
     1 RES1 1

@<TRIPOS>CRYSIN
   5.1323   14.2678   10.4372  90.0000  98.6420  90.0000  14 1

