# MOL2 file generated by ConQuest
# Please check atom types

@<TRIPOS>MOLECULE
QUFPUE
    18    18     1
SMALL
USER_CHARGES
****
Generated from CSD

@<TRIPOS>ATOM
      1 O1        -1.3580    1.8931    3.6706 O.2       1 RES1   -1.0000
      2 O2         0.6953    1.4627    1.5303 O.2       1 RES1    0.0000
      3 O3         0.3892    3.5390    1.0260 O.2       1 RES1    0.0000
      4 O4         2.6470    4.1534    2.7546 O.3       1 RES1    0.0000
      5 O5         3.8798    5.1155    4.7850 O.2       1 RES1    0.0000
      6 O6         2.9256    5.1905    6.7240 O.2       1 RES1    0.0000
      7 N1         0.5869    2.6447    1.8271 N.pl3     1 RES1    0.0000
      8 N2         2.9576    4.8100    5.5651 N.pl3     1 RES1    0.0000
      9 N3        -1.0516    2.3115    6.3321 N.1       1 RES1    1.0000
     10 N4        -1.8640    1.8841    6.9400 N.1       1 RES1    0.0000
     11 C1        -0.3528    2.4812    4.0744 C.ar      1 RES1    0.0000
     12 C2         0.7020    2.9765    3.2423 C.ar      1 RES1    0.0000
     13 C3         1.7732    3.7181    3.6580 C.ar      1 RES1    0.0000
     14 C4         1.8917    3.9837    5.0645 C.ar      1 RES1    0.0000
     15 C5         0.9689    3.5227    5.9562 C.ar      1 RES1    0.0000
     16 C6        -0.1101    2.7972    5.4753 C.ar      1 RES1    0.0000
     17 H1         1.0705    3.6842    6.8696 H         1 RES1    0.0000
     18 H2         3.2441    4.6135    3.1927 H         1 RES1    0.0000
@<TRIPOS>BOND
     1    1   11 1
     2    2    7 2
     3    3    7 2
     4    4   13 1
     5    5    8 2
     6    6    8 2
     7    7   12 1
     8    8   14 1
     9    9   10 3
    10   11   12 ar
    11   12   13 ar
    12   13   14 ar
    13   14   15 ar
    14   15   16 ar
    15   16    9 1
    16   17   15 1
    17   18    4 1
    18   11   16 ar
@<TRIPOS>SUBSTRUCTURE
     1 RES1 1

@<TRIPOS>CRYSIN
  11.3036    9.3770   15.4235  90.0000  90.0000  90.0000  61 1

