# MOL2 file generated by ConQuest
# Please check atom types

@<TRIPOS>MOLECULE
QUFPEO
    21    21     1
SMALL
NO_CHARGES
****
Generated from CSD

@<TRIPOS>ATOM
      1 O1         6.3540    2.9907    2.2603 O.3       1 RES1    0.0000
      2 O2         9.1442   -1.5236   -0.2764 O.2       1 RES1    0.0000
      3 O3         8.6857    1.6872    3.3550 O.2       1 RES1    0.0000
      4 O4         7.3030    0.0228    3.2787 O.2       1 RES1    0.0000
      5 N1         8.9619   -0.6825    0.6049 N.pl3     1 RES1    0.0000
      6 O5         9.4399   -0.7780    1.7261 O.2       1 RES1    0.0000
      7 C1         6.7853    2.3241    1.1713 C.ar      1 RES1    0.0000
      8 N2         7.9089    0.9487    2.7735 N.pl3     1 RES1    0.0000
      9 O6         5.1967    3.8601   -1.6366 O.2       1 RES1    0.0000
     10 O7         5.0568    4.3553    0.4577 O.2       1 RES1    0.0000
     11 C2         7.8004    0.7836   -1.0312 C.ar      1 RES1    0.0000
     12 N3         5.5020    3.6735   -0.4813 N.pl3     1 RES1    0.0000
     13 N4         8.2475    0.1342   -2.1289 N.3       1 RES1    0.0000
     14 C3         6.9278    1.8748   -1.2140 C.ar      1 RES1    0.0000
     15 H1         6.6725    2.1157   -2.0926 H         1 RES1    0.0000
     16 C4         8.1204    0.4591    0.3050 C.ar      1 RES1    0.0000
     17 C5         7.6272    1.2508    1.3596 C.ar      1 RES1    0.0000
     18 C6         6.4408    2.5936   -0.1648 C.ar      1 RES1    0.0000
     19 H2         8.7363   -0.5992   -2.0301 H         1 RES1    0.0000
     20 H3         8.0320    0.4649   -2.9248 H         1 RES1    0.0000
     21 H4         5.8062    3.5641    1.9866 H         1 RES1    0.0000
@<TRIPOS>BOND
     1    1    7 1
     2    2    5 2
     3    3    8 2
     4    4    8 2
     5    5    6 2
     6    7   17 ar
     7    8   17 1
     8    9   12 2
     9   10   12 2
    10   11   13 1
    11   12   18 1
    12   13   19 1
    13   14   11 ar
    14   15   14 1
    15   16    5 1
    16   17   16 ar
    17   18    7 ar
    18   20   13 1
    19   21    1 1
    20   11   16 ar
    21   14   18 ar
@<TRIPOS>SUBSTRUCTURE
     1 RES1 1

@<TRIPOS>CRYSIN
  12.5540   10.3306   13.5974  90.0000  90.0000  90.0000  61 1

