# MOL2 file generated by ConQuest
# Please check atom types

@<TRIPOS>MOLECULE
QUFSAN
    31    32     1
SMALL
NO_CHARGES
****
Generated from CSD

@<TRIPOS>ATOM
      1 O1         7.3233    2.8737    7.3644 O.2       1 RES1    0.0000
      2 O2         9.4602    2.7980    7.6631 O.2       1 RES1    0.0000
      3 O3        12.2212    0.3629    4.5582 O.2       1 RES1    0.0000
      4 O4        11.3054   -1.0218    3.1956 O.2       1 RES1    0.0000
      5 O5         5.1114    1.4668    3.6058 O.2       1 RES1    0.0000
      6 O6         4.6031   -0.3943    2.4324 O.3       1 RES1    0.0000
      7 N1         8.4411    2.4638    7.0840 N.pl3     1 RES1    0.0000
      8 N2        11.2468   -0.1750    4.0673 N.pl3     1 RES1    0.0000
      9 N3         6.4315   -0.3919    3.6429 N.am      1 RES1    0.0000
     10 H1         6.4270   -1.2332    3.4628 H         1 RES1    0.0000
     11 C1         8.8066   -0.2884    3.9191 C.ar      1 RES1    0.0000
     12 H2         8.9006   -0.9120    3.2358 H         1 RES1    0.0000
     13 C2         9.9130    0.2301    4.5482 C.ar      1 RES1    0.0000
     14 C3         9.8361    1.1337    5.5854 C.ar      1 RES1    0.0000
     15 H3        10.5955    1.4700    6.0029 H         1 RES1    0.0000
     16 C4         8.5686    1.5092    5.9671 C.ar      1 RES1    0.0000
     17 C5         7.4201    1.0394    5.3650 C.ar      1 RES1    0.0000
     18 H4         6.5825    1.3228    5.6520 H         1 RES1    0.0000
     19 C6         7.5456    0.1325    4.3201 C.ar      1 RES1    0.0000
     20 C7         5.3713    0.3438    3.2584 C.2       1 RES1    0.0000
     21 C8         3.6199    0.2856    1.6809 C.ar      1 RES1    0.0000
     22 C9         2.3027    0.0843    1.9934 C.ar      1 RES1    0.0000
     23 H5         2.0611   -0.4267    2.7319 H         1 RES1    0.0000
     24 C10        1.3433    0.6565    1.1870 C.ar      1 RES1    0.0000
     25 H6         0.4425    0.5261    1.3805 H         1 RES1    0.0000
     26 C11        1.6985    1.4150    0.1058 C.ar      1 RES1    0.0000
     27 H7         1.0407    1.7956   -0.4298 H         1 RES1    0.0000
     28 C12        3.0264    1.6155   -0.1916 C.ar      1 RES1    0.0000
     29 H8         3.2660    2.1354   -0.9240 H         1 RES1    0.0000
     30 C13        4.0033    1.0415    0.5997 C.ar      1 RES1    0.0000
     31 H9         4.9036    1.1657    0.4043 H         1 RES1    0.0000
@<TRIPOS>BOND
     1    1    7 2
     2    2    7 2
     3    3    8 2
     4    4    8 2
     5    5   20 2
     6    6   20 1
     7    7   16 1
     8    8   13 1
     9    9   10 1
    10   11   12 1
    11   13   11 ar
    12   14   13 ar
    13   15   14 1
    14   16   14 ar
    15   17   16 ar
    16   18   17 1
    17   19    9 1
    18   20    9 1
    19   21    6 1
    20   22   21 ar
    21   23   22 1
    22   24   22 ar
    23   25   24 1
    24   26   24 ar
    25   27   26 1
    26   28   26 ar
    27   29   28 1
    28   30   21 ar
    29   31   30 1
    30   11   19 ar
    31   17   19 ar
    32   28   30 ar
@<TRIPOS>SUBSTRUCTURE
     1 RES1 1

@<TRIPOS>CRYSIN
  12.2549    8.8717   12.1470  90.0000  91.6730  90.0000  14 1

