# MOL2 file generated by ConQuest
# Please check atom types

@<TRIPOS>MOLECULE
QUGLIN
    32    34     1
SMALL
NO_CHARGES
****
Generated from CSD

@<TRIPOS>ATOM
      1 O1         4.7080    7.1674   -4.1942 O.2       1 RES1    0.0000
      2 O2         7.1003   11.1278   -2.0341 O.2       1 RES1    0.0000
      3 O3         5.3428   12.2468   -1.7658 O.2       1 RES1    0.0000
      4 N1         5.1793   10.2409   -2.5475 N.3       1 RES1    0.0000
      5 N2         5.8989   11.2682   -2.0777 N.pl3     1 RES1    0.0000
      6 C1         4.6225    8.2641   -3.6333 C.2       1 RES1    0.0000
      7 C2         3.4260    9.0204   -3.2885 C.ar      1 RES1    0.0000
      8 C3         2.0884    8.7312   -3.5181 C.ar      1 RES1    0.0000
      9 C4         1.1353    9.6376   -3.1452 C.ar      1 RES1    0.0000
     10 C5         1.5072   10.8108   -2.5349 C.ar      1 RES1    0.0000
     11 C6         2.8180   11.1208   -2.2569 C.ar      1 RES1    0.0000
     12 C7         3.7818   10.2019   -2.6608 C.ar      1 RES1    0.0000
     13 C8         5.8512    9.0815   -3.1587 C.3       1 RES1    0.0000
     14 C9         6.6309    8.2725   -2.1416 C.ar      1 RES1    0.0000
     15 C10        7.7422    7.5677   -2.4942 C.ar      1 RES1    0.0000
     16 C11        8.4165    6.8073   -1.5672 C.ar      1 RES1    0.0000
     17 C12        7.9676    6.7211   -0.2625 C.ar      1 RES1    0.0000
     18 C13        6.8450    7.3814    0.0785 C.ar      1 RES1    0.0000
     19 C14        6.1811    8.1863   -0.8330 C.ar      1 RES1    0.0000
     20 C15        6.6611    9.4986   -4.4170 C.3       1 RES1    0.0000
     21 H1         1.8435    7.9291   -3.9230 H         1 RES1    0.0000
     22 H2         0.2371    9.4582   -3.3040 H         1 RES1    0.0000
     23 H3         0.8451   11.4197   -2.2995 H         1 RES1    0.0000
     24 H4         3.0493   11.9090   -1.8191 H         1 RES1    0.0000
     25 H5         8.0485    7.6025   -3.3718 H         1 RES1    0.0000
     26 H6         9.1821    6.3444   -1.8210 H         1 RES1    0.0000
     27 H7         8.4310    6.2165    0.3671 H         1 RES1    0.0000
     28 H8         6.5101    7.2952    0.9415 H         1 RES1    0.0000
     29 H9         5.4328    8.6687   -0.5676 H         1 RES1    0.0000
     30 H10        6.0989   10.0059   -5.0088 H         1 RES1    0.0000
     31 H11        6.9751    8.7118   -4.8703 H         1 RES1    0.0000
     32 H12        7.4108   10.0365   -4.1506 H         1 RES1    0.0000
@<TRIPOS>BOND
     1    1    6 2
     2    2    5 2
     3    3    5 2
     4    4    5 1
     5    6    7 1
     6    7    8 ar
     7    8    9 ar
     8    9   10 ar
     9   10   11 ar
    10   11   12 ar
    11   12    4 1
    12   13    4 1
    13   14   13 1
    14   15   14 ar
    15   16   15 ar
    16   17   16 ar
    17   18   17 ar
    18   19   14 ar
    19   20   13 1
    20   21    8 1
    21   22    9 1
    22   23   10 1
    23   24   11 1
    24   25   15 1
    25   26   16 1
    26   27   17 1
    27   28   18 1
    28   29   19 1
    29   30   20 1
    30   31   20 1
    31   32   20 1
    32    6   13 1
    33    7   12 ar
    34   18   19 ar
@<TRIPOS>SUBSTRUCTURE
     1 RES1 1

@<TRIPOS>CRYSIN
   9.8710   13.9010   10.7140  90.0000 115.3000  90.0000 231 1

