# MOL2 file generated by ConQuest
# Please check atom types

@<TRIPOS>MOLECULE
QUINOX
    28    28     2
SMALL
NO_CHARGES
****
Generated from CSD

@<TRIPOS>ATOM
      1 C1         2.4719    2.6491    1.5528 C.2       1 RES1    0.0000
      2 C2         2.2503    1.2013    1.6082 C.2       1 RES1    0.0000
      3 C3         3.2682    0.3470    1.6080 C.2       1 RES1    0.0000
      4 C4         4.6285    0.8208    1.5758 C.2       1 RES1    0.0000
      5 C5         4.8575    2.2520    1.5965 C.2       1 RES1    0.0000
      6 C6         3.8461    3.1151    1.6005 C.2       1 RES1    0.0000
      7 H1         1.3496    0.9174    1.6207 H         1 RES1    0.0000
      8 H2         3.1206   -0.5375    1.5955 H         1 RES1    0.0000
      9 H3         5.7309    2.5579    1.5980 H         1 RES1    0.0000
     10 H4         3.9894    4.0690    1.5273 H         1 RES1    0.0000
     11 H5         6.3034   -1.6743    1.5494 H         1 RES1    0.0000
     12 N1         5.7033    0.0875    1.5254 N.2       1 RES1    0.0000
     13 O1         1.5093    3.4317    1.4817 O.2       1 RES1    0.0000
     14 O2         5.4302   -1.2556    1.4889 O.3       1 RES1    0.0000
     15 C7        -3.2227   10.5415    1.5960 C.2       2 RES2    0.0000
     16 C8        -4.5688   10.0319    1.3504 C.2       2 RES2    0.0000
     17 C9        -4.8426    8.7251    1.3565 C.2       2 RES2    0.0000
     18 C10       -3.7980    7.7723    1.6241 C.2       2 RES2    0.0000
     19 C11       -2.4729    8.2608    1.9056 C.2       2 RES2    0.0000
     20 C12       -2.2032    9.5628    1.9036 C.2       2 RES2    0.0000
     21 H6        -5.2137   10.6848    1.1529 H         2 RES2    0.0000
     22 H7        -5.7300    8.3632    1.1674 H         2 RES2    0.0000
     23 H8        -1.8077    7.6288    2.0709 H         2 RES2    0.0000
     24 H9        -1.3335    9.9053    2.1012 H         2 RES2    0.0000
     25 H10       -5.1064    5.0539    1.2911 H         2 RES2    0.0000
     26 N2        -3.9147    6.4671    1.6291 N.2       2 RES2    0.0000
     27 O3        -2.9749   11.7476    1.5396 O.2       2 RES2    0.0000
     28 O4        -5.1839    6.0599    1.3474 O.3       2 RES2    0.0000
@<TRIPOS>BOND
     1    1    2 1
     2    2    3 2
     3    3    4 1
     4    4    5 1
     5    5    6 2
     6    6    1 1
     7    7    2 1
     8    8    3 1
     9    9    5 1
    10   10    6 1
    11   11   14 1
    12   12    4 2
    13   13    1 2
    14   14   12 1
    15   15   16 1
    16   16   17 2
    17   17   18 1
    18   18   19 1
    19   19   20 2
    20   20   15 1
    21   21   16 1
    22   22   17 1
    23   23   19 1
    24   24   20 1
    25   25   28 1
    26   26   18 2
    27   27   15 2
    28   28   26 1
@<TRIPOS>SUBSTRUCTURE
     1 RES1 1
     2 RES2 15

@<TRIPOS>CRYSIN
   6.6710   28.1400    7.2090  90.0000 118.8600  90.0000  14 1

