# MOL2 file generated by ConQuest
# Please check atom types

@<TRIPOS>MOLECULE
QUJGIL
    76    78     2
SMALL
NO_CHARGES
****
Generated from CSD

@<TRIPOS>ATOM
      1 O1        -4.6788    2.6495    1.3731 O.3       1 RES1    0.0000
      2 H1        -4.7355    2.4130    0.6162 H         1 RES1    0.0000
      3 O2        -2.5064    2.2409    1.1006 O.2       1 RES1    0.0000
      4 O3        -0.9778    2.0969    7.3376 O.3       1 RES1    0.0000
      5 H2        -0.1727    2.0663    7.8247 H         1 RES1    0.0000
      6 O4         0.3128    2.4392    5.5754 O.2       1 RES1    0.0000
      7 O5        -5.5066    3.3646    7.3823 O.2       1 RES1    0.0000
      8 O6        -6.6282    3.5430    5.5583 O.2       1 RES1    0.0000
      9 N1        -5.6003    3.3131    6.1744 N.pl3     1 RES1    0.0000
     10 C1        -2.0887    2.5761    3.9238 C.ar      1 RES1    0.0000
     11 C2        -3.3331    2.6767    3.2833 C.ar      1 RES1    0.0000
     12 C3        -4.4843    2.9121    4.0244 C.ar      1 RES1    0.0000
     13 H3        -5.3059    3.0140    3.6007 H         1 RES1    0.0000
     14 C4        -4.3918    2.9925    5.3931 C.ar      1 RES1    0.0000
     15 C5        -3.2124    2.7801    6.0638 C.ar      1 RES1    0.0000
     16 H4        -3.1923    2.7733    6.9931 H         1 RES1    0.0000
     17 C6        -2.0553    2.5790    5.3299 C.ar      1 RES1    0.0000
     18 C7        -3.4622    2.5160    1.8082 C.2       1 RES1    0.0000
     19 C8        -0.7829    2.3705    6.0839 C.2       1 RES1    0.0000
     20 O7        -0.0841    6.0801    2.6427 O.3       1 RES1    0.0000
     21 H5        -0.4667    6.8414    2.8869 H         1 RES1    0.0000
     22 O8        -1.7647    5.2146    3.8125 O.2       1 RES1    0.0000
     23 O9        -0.2313   -0.9829    2.4840 O.3       1 RES1    0.0000
     24 H6        -0.5798   -1.8301    2.7806 H         1 RES1    0.0000
     25 O10       -1.7785   -0.0972    3.8119 O.2       1 RES1    0.0000
     26 O11        3.7158    1.4701    1.4951 O.2       1 RES1    0.0000
     27 O12        3.6520    3.6144    1.3170 O.2       1 RES1    0.0000
     28 N2         3.1332    2.5422    1.5713 N.pl3     1 RES1    0.0000
     29 C9        -0.7915    2.5416    3.1554 C.ar      1 RES1    0.0000
     30 C10       -0.1503    3.7471    2.8337 C.ar      1 RES1    0.0000
     31 C11        1.1204    3.7368    2.2822 C.ar      1 RES1    0.0000
     32 H7         1.5530    4.5354    2.0854 H         1 RES1    0.0000
     33 C12        1.7355    2.5371    2.0294 C.ar      1 RES1    0.0000
     34 C13        1.0941    1.3390    2.2377 C.ar      1 RES1    0.0000
     35 H8         1.5088    0.5387    2.0050 H         1 RES1    0.0000
     36 C14       -0.1735    1.3316    2.7964 C.ar      1 RES1    0.0000
     37 C15       -0.7548    5.0773    3.1483 C.2       1 RES1    0.0000
     38 C16       -0.8163    0.0216    3.0779 C.2       1 RES1    0.0000
     39 O13        1.7788   -1.7647   11.7212 O.3       2 RES2    0.0000
     40 H9         2.0826   -2.4912   11.5086 H         2 RES2    0.0000
     41 O14        3.3193   -0.9047   10.3927 O.2       2 RES2    0.0000
     42 O15        1.6301    5.2833   11.6451 O.3       2 RES2    0.0000
     43 H10        2.0819    6.0512   11.5546 H         2 RES2    0.0000
     44 O16        3.2806    4.4095   10.4431 O.2       2 RES2    0.0000
     45 O17       -2.1486    2.7247   12.8975 O.2       2 RES2    0.0000
     46 O18       -2.0460    0.5778   13.0081 O.2       2 RES2    0.0000
     47 N3        -1.5560    1.6636   12.7596 N.pl3     2 RES2    0.0000
     48 C17        2.3293    1.7646   11.0720 C.ar      2 RES2    0.0000
     49 C18        1.7215    0.5450   11.4167 C.ar      2 RES2    0.0000
     50 C19        0.4676    0.5234   11.9998 C.ar      2 RES2    0.0000
     51 H11        0.0666   -0.2855   12.2239 H         2 RES2    0.0000
     52 C20       -0.1802    1.7095   12.2426 C.ar      2 RES2    0.0000
     53 C21        0.4120    2.9245   11.9955 C.ar      2 RES2    0.0000
     54 H12       -0.0236    3.7164   12.2182 H         2 RES2    0.0000
     55 C22        1.6645    2.9553   11.4124 C.ar      2 RES2    0.0000
     56 C23        2.3547   -0.7725   11.1223 C.2       2 RES2    0.0000
     57 C24        2.2752    4.2834   11.1266 C.2       2 RES2    0.0000
     58 O19        6.2019    1.8142   12.8946 O.3       2 RES2    0.0000
     59 H13        6.2710    1.9474   13.7162 H         2 RES2    0.0000
     60 O20        4.0025    1.9885   13.1823 O.2       2 RES2    0.0000
     61 O21        2.5633    2.0545    6.8513 O.3       2 RES2    0.0000
     62 H14        1.7590    2.1581    6.3698 H         2 RES2    0.0000
     63 O22        1.2659    1.8437    8.6443 O.2       2 RES2    0.0000
     64 O23        7.1559    1.0478    6.9371 O.2       2 RES2    0.0000
     65 O24        8.2232    0.8547    8.7870 O.2       2 RES2    0.0000
     66 N4         7.2126    1.0876    8.1493 N.pl3     2 RES2    0.0000
     67 C25        3.6299    1.7603   10.3137 C.ar      2 RES2    0.0000
     68 C26        4.8694    1.7020   10.9772 C.ar      2 RES2    0.0000
     69 C27        6.0388    1.5103   10.2606 C.ar      2 RES2    0.0000
     70 H15        6.8549    1.4575   10.7015 H         2 RES2    0.0000
     71 C28        5.9825    1.3985    8.8932 C.ar      2 RES2    0.0000
     72 C29        4.8073    1.5579    8.2010 C.ar      2 RES2    0.0000
     73 H16        4.8003    1.5462    7.2717 H         2 RES2    0.0000
     74 C30        3.6358    1.7353    8.9119 C.ar      2 RES2    0.0000
     75 C31        4.9746    1.8368   12.4609 C.2       2 RES2    0.0000
     76 C32        2.3662    1.8847    8.1292 C.2       2 RES2    0.0000
@<TRIPOS>BOND
     1    1    2 1
     2    3   18 2
     3    4    5 1
     4    6   19 2
     5    7    9 2
     6    8    9 2
     7    9   14 1
     8   10   11 ar
     9   11   12 ar
    10   12   13 1
    11   14   12 ar
    12   15   14 ar
    13   16   15 1
    14   17   10 ar
    15   18    1 1
    16   19    4 1
    17   20   21 1
    18   22   37 2
    19   23   24 1
    20   25   38 2
    21   26   28 2
    22   27   28 2
    23   28   33 1
    24   29   10 1
    25   30   29 ar
    26   31   30 ar
    27   32   31 1
    28   33   31 ar
    29   34   33 ar
    30   35   34 1
    31   36   29 ar
    32   37   20 1
    33   38   23 1
    34   39   40 1
    35   41   56 2
    36   42   43 1
    37   44   57 2
    38   45   47 2
    39   46   47 2
    40   47   52 1
    41   48   49 ar
    42   49   50 ar
    43   50   51 1
    44   52   50 ar
    45   53   52 ar
    46   54   53 1
    47   55   48 ar
    48   56   39 1
    49   57   42 1
    50   58   59 1
    51   60   75 2
    52   61   62 1
    53   63   76 2
    54   64   66 2
    55   65   66 2
    56   66   71 1
    57   67   48 1
    58   68   67 ar
    59   69   68 ar
    60   70   69 1
    61   71   69 ar
    62   72   71 ar
    63   73   72 1
    64   74   67 ar
    65   75   58 1
    66   76   61 1
    67   11   18 1
    68   15   17 ar
    69   17   19 1
    70   30   37 1
    71   34   36 ar
    72   36   38 1
    73   49   56 1
    74   53   55 ar
    75   55   57 1
    76   68   75 1
    77   72   74 ar
    78   74   76 1
@<TRIPOS>SUBSTRUCTURE
     1 RES1 1
     2 RES2 39

@<TRIPOS>CRYSIN
  14.6840   16.9930   15.4700  90.0000 111.8120  90.0000  14 1

