# MOL2 file generated by ConQuest
# Please check atom types

@<TRIPOS>MOLECULE
QUJMOX
    46    48     1
SMALL
NO_CHARGES
****
Generated from CSD

@<TRIPOS>ATOM
      1 O1         7.0989    6.4904    2.3704 O.3       1 RES1    0.0000
      2 O2         8.4231    5.3925    3.7633 O.2       1 RES1    0.0000
      3 O3         5.1838    4.7589    6.9874 O.3       1 RES1    0.0000
      4 O4         3.2683    4.8087    8.1215 O.2       1 RES1    0.0000
      5 O5         8.8316    5.6917   12.6303 O.2       1 RES1    0.0000
      6 O6         7.0817    5.5671   13.8445 O.2       1 RES1    0.0000
      7 N1         7.6326    5.5665   12.7674 N.pl3     1 RES1    0.0000
      8 C1         5.7727    8.5734    2.3347 C.3       1 RES1    0.0000
      9 C2         5.7430    7.0302    2.3160 C.3       1 RES1    0.0000
     10 C3         5.3011    7.0294    3.7882 C.3       1 RES1    0.0000
     11 H1         4.3397    6.8899    3.9162 H         1 RES1    0.0000
     12 C4         5.7382    8.5018    3.8764 C.3       1 RES1    0.0000
     13 H2         6.6054    8.6267    4.2930 H         1 RES1    0.0000
     14 H3         5.0735    9.0822    4.2792 H         1 RES1    0.0000
     15 C5         7.3579    5.9118    3.5556 C.2       1 RES1    0.0000
     16 C6         6.1704    6.0056    4.4797 C.3       1 RES1    0.0000
     17 H4         6.4547    6.3458    5.3545 H         1 RES1    0.0000
     18 C7         5.5055    4.6392    4.6460 C.3       1 RES1    0.0000
     19 H5         5.0907    4.3874    3.8057 H         1 RES1    0.0000
     20 H6         6.1875    3.9803    4.8494 H         1 RES1    0.0000
     21 C8         4.4658    4.6141    5.7307 C.3       1 RES1    0.0000
     22 H7         3.8356    5.3421    5.6129 H         1 RES1    0.0000
     23 H8         3.9779    3.7753    5.7135 H         1 RES1    0.0000
     24 C9         4.4690    4.8486    8.0970 C.2       1 RES1    0.0000
     25 C10        5.3206    5.0175    9.3022 C.ar      1 RES1    0.0000
     26 C11        6.6727    5.2629    9.2002 C.ar      1 RES1    0.0000
     27 H9         7.0754    5.3080    8.3631 H         1 RES1    0.0000
     28 C12        7.4254    5.4408   10.3370 C.ar      1 RES1    0.0000
     29 H10        8.3387    5.6058   10.2749 H         1 RES1    0.0000
     30 C13        6.8141    5.3725   11.5596 C.ar      1 RES1    0.0000
     31 C14        5.4781    5.1104   11.6938 C.ar      1 RES1    0.0000
     32 H11        5.0835    5.0538   12.5339 H         1 RES1    0.0000
     33 C15        4.7363    4.9345   10.5527 C.ar      1 RES1    0.0000
     34 H12        3.8261    4.7560   10.6221 H         1 RES1    0.0000
     35 C16        6.9583    9.2661    1.7131 C.3       1 RES1    0.0000
     36 H13        7.7688    8.8895    2.0637 H         1 RES1    0.0000
     37 H14        6.9257   10.2031    1.9196 H         1 RES1    0.0000
     38 H15        6.9359    9.1464    0.7615 H         1 RES1    0.0000
     39 C17        4.4756    9.1588    1.7920 C.3       1 RES1    0.0000
     40 H16        4.4369   10.0958    1.9966 H         1 RES1    0.0000
     41 H17        3.7286    8.7114    2.1978 H         1 RES1    0.0000
     42 H18        4.4433    9.0377    0.8405 H         1 RES1    0.0000
     43 C18        5.0028    6.2744    1.2459 C.3       1 RES1    0.0000
     44 H19        5.3448    6.5234    0.3847 H         1 RES1    0.0000
     45 H20        4.0682    6.4876    1.2923 H         1 RES1    0.0000
     46 H21        5.1237    5.3315    1.3791 H         1 RES1    0.0000
@<TRIPOS>BOND
     1    1    9 1
     2    2   15 2
     3    3   21 1
     4    4   24 2
     5    5    7 2
     6    6    7 2
     7    7   30 1
     8    8    9 1
     9    9   10 1
    10   10   11 1
    11   12    8 1
    12   13   12 1
    13   14   12 1
    14   15    1 1
    15   16   10 1
    16   17   16 1
    17   18   16 1
    18   19   18 1
    19   20   18 1
    20   21   18 1
    21   22   21 1
    22   23   21 1
    23   24    3 1
    24   25   24 1
    25   26   25 ar
    26   27   26 1
    27   28   26 ar
    28   29   28 1
    29   30   28 ar
    30   31   30 ar
    31   32   31 1
    32   33   25 ar
    33   34   33 1
    34   35    8 1
    35   36   35 1
    36   37   35 1
    37   38   35 1
    38   39    8 1
    39   40   39 1
    40   41   39 1
    41   42   39 1
    42   43    9 1
    43   44   43 1
    44   45   43 1
    45   46   43 1
    46   10   12 1
    47   15   16 1
    48   31   33 ar
@<TRIPOS>SUBSTRUCTURE
     1 RES1 1

@<TRIPOS>CRYSIN
   6.5693    7.6665   19.9360  85.8140  81.7460  62.1700   2 1

