# MOL2 file generated by ConQuest
# Please check atom types

@<TRIPOS>MOLECULE
QUKCUW
    60    52     2
SMALL
NO_CHARGES
****
Generated from CSD

@<TRIPOS>ATOM
      1 O1         0.4968    1.6174    3.8376 O.3       1 RES1    0.0000
      2 O2         1.7876    3.4415    4.1558 O.2       1 RES1    0.0000
      3 O3         7.5231   -0.3191    1.0175 O.2       1 RES1    0.0000
      4 O4         6.6415   -1.8288    2.2920 O.2       1 RES1    0.0000
      5 N1         6.5895   -0.7590    1.6863 N.pl3     1 RES1    0.0000
      6 C1         1.3622    2.5583    3.4479 C.2       1 RES1    0.0000
      7 C2         1.7746    2.3552    2.0188 C.3       1 RES1    0.0000
      8 H1         1.9409    3.2355    1.5953 H         1 RES1    0.0000
      9 H2         1.0397    1.9130    1.5240 H         1 RES1    0.0000
     10 C3         3.0202    1.5114    1.9238 C.ar      1 RES1    0.0000
     11 C4         4.1500    1.9943    1.2271 C.ar      1 RES1    0.0000
     12 H3         4.1080    2.8457    0.8075 H         1 RES1    0.0000
     13 C5         5.3148    1.2565    1.1440 C.ar      1 RES1    0.0000
     14 H4         6.0719    1.5874    0.6749 H         1 RES1    0.0000
     15 C6         5.3449    0.0294    1.7596 C.ar      1 RES1    0.0000
     16 C7         4.2686   -0.4987    2.4563 C.ar      1 RES1    0.0000
     17 H5         4.3280   -1.3466    2.8798 H         1 RES1    0.0000
     18 C8         3.1040    0.2485    2.5137 C.ar      1 RES1    0.0000
     19 H6         2.3462   -0.1054    2.9669 H         1 RES1    0.0000
     20 C9        -0.3478    1.7964    5.1005 C.3       1 RES1    0.0000
     21 H7         0.0639    2.4865    5.6963 H         1 RES1    0.0000
     22 C10       -0.0939    0.3586    5.6805 C.3       1 RES1    0.0000
     23 H8        -0.7208    0.1348    6.4148 H         1 RES1    0.0000
     24 H9        -0.1359   -0.3397    4.9798 H         1 RES1    0.0000
     25 C11       -1.8869    2.1108    4.8808 C.3       1 RES1    0.0000
     26 H10       -1.9388    2.9110    4.2989 H         1 RES1    0.0000
     27 H11       -2.2653    1.3572    4.3623 H         1 RES1    0.0000
     28 C12       -2.7340    2.3316    5.9536 C.3       1 RES1    0.0000
     29 H12       -2.6918    1.5144    6.5098 H         1 RES1    0.0000
     30 H13       -3.6496    2.3658    5.5775 H         1 RES1    0.0000
     31 C13       -2.6311    3.5122    6.9254 C.3       1 RES1    0.0000
     32 H14       -2.7816    4.3459    6.4128 H         1 RES1    0.0000
     33 H15       -3.3681    3.4339    7.5825 H         1 RES1    0.0000
     34 C14       -1.3248    3.6623    7.6993 C.3       1 RES1    0.0000
     35 H16       -0.5763    3.6941    7.0501 H         1 RES1    0.0000
     36 H17       -1.3403    4.5273    8.1802 H         1 RES1    0.0000
     37 C15       -1.0541    2.5642    8.6909 C.3       1 RES1    0.0000
     38 H18       -1.2350    1.6922    8.2594 H         1 RES1    0.0000
     39 H19       -1.6819    2.6596    9.4509 H         1 RES1    0.0000
     40 C16        0.3958    2.5589    9.2391 C.3       1 RES1    0.0000
     41 H20        0.6176    3.4704    9.5558 H         1 RES1    0.0000
     42 H21        0.4359    1.9530   10.0210 H         1 RES1    0.0000
     43 C17        1.4495    2.1256    8.2376 C.3       1 RES1    0.0000
     44 H22        2.3406    2.2633    8.6454 H         1 RES1    0.0000
     45 H23        1.3899    2.7203    7.4499 H         1 RES1    0.0000
     46 C18        1.3623    0.6612    7.7488 C.3       1 RES1    0.0000
     47 H24        0.5336    0.2467    8.0951 H         1 RES1    0.0000
     48 H25        2.1325    0.1496    8.1011 H         1 RES1    0.0000
     49 C19        1.3632    0.5888    6.2010 C.3       1 RES1    0.0000
     50 H26        1.9453   -0.1554    5.9021 H         1 RES1    0.0000
     51 H27        1.7221    1.4314    5.8269 H         1 RES1    0.0000
     52 C20        0.3656    1.5014    5.3717 Du        2 SUP2    0.0000
     53 H28        0.3879    2.4259    5.7576 Du        2 SUP2    0.0000
     54 C21       -1.0909    0.9332    5.5320 Du        2 SUP2    0.0000
     55 H29       -1.2132    0.0842    5.0372 Du        2 SUP2    0.0000
     56 H30       -1.3346    0.8019    6.4821 Du        2 SUP2    0.0000
     57 H31       -1.3126    2.8934    4.6829 Du        2 SUP2    0.0000
     58 H32       -2.3731    1.8335    4.0634 Du        2 SUP2    0.0000
     59 H33        1.1821   -0.3521    5.9477 Du        2 SUP2    0.0000
     60 H34        2.2814    0.7966    5.8942 Du        2 SUP2    0.0000
@<TRIPOS>BOND
     1    1    6 1
     2    2    6 2
     3    3    5 2
     4    4    5 2
     5    5   15 1
     6    6    7 1
     7    7    8 1
     8    9    7 1
     9   10    7 1
    10   11   10 ar
    11   12   11 1
    12   13   11 ar
    13   14   13 1
    14   15   13 ar
    15   16   15 ar
    16   17   16 1
    17   18   10 ar
    18   19   18 1
    19   20    1 1
    20   21   20 1
    21   22   20 1
    22   23   22 1
    23   24   22 1
    24   25   20 1
    25   26   25 1
    26   27   25 1
    27   28   25 1
    28   29   28 1
    29   30   28 1
    30   31   28 1
    31   32   31 1
    32   33   31 1
    33   34   31 1
    34   35   34 1
    35   36   34 1
    36   37   34 1
    37   38   37 1
    38   39   37 1
    39   40   37 1
    40   41   40 1
    41   42   40 1
    42   43   40 1
    43   44   43 1
    44   45   43 1
    45   46   43 1
    46   47   46 1
    47   48   46 1
    48   49   22 1
    49   50   49 1
    50   51   49 1
    51   16   18 ar
    52   46   49 1
@<TRIPOS>SUBSTRUCTURE
     1 RES1 1
     2 SUP2 52

@<TRIPOS>CRYSIN
   7.5250    5.8880   20.0220  90.0000  98.6830  90.0000   4 1

