# MOL2 file generated by ConQuest
# Please check atom types

@<TRIPOS>MOLECULE
QUKKOX
    40    42     1
SMALL
USER_CHARGES
****
Generated from CSD

@<TRIPOS>ATOM
      1 O1         7.8465   14.5543    4.1910 O.2       1 RES1   -1.0000
      2 O2         4.9340   12.8412    5.4609 O.2       1 RES1    0.0000
      3 O3         6.4140   13.5745    7.8688 O.3       1 RES1    0.0000
      4 H1         6.9673   13.9094    8.4071 H         1 RES1    0.0000
      5 N1         7.0412   15.4207    4.7879 N.pl3     1 RES1    1.0000
      6 N2         6.7671   11.5089    5.4575 N.am      1 RES1    0.0000
      7 C1         6.1111   12.6588    5.7446 C.2       1 RES1    0.0000
      8 C2         6.8638   13.7437    6.5409 C.3       1 RES1    0.0000
      9 H2         7.8508   13.5989    6.4841 H         1 RES1    0.0000
     10 C3         6.4972   15.0947    5.9924 C.ar      1 RES1    0.0000
     11 C4         5.6392   15.9861    6.6086 C.ar      1 RES1    0.0000
     12 H3         5.2633   15.7688    7.4533 H         1 RES1    0.0000
     13 C5         5.3244   17.1873    6.0066 C.ar      1 RES1    0.0000
     14 H4         4.7346   17.7993    6.4306 H         1 RES1    0.0000
     15 C6         5.8845   17.4863    4.7686 C.ar      1 RES1    0.0000
     16 H5         5.6698   18.3030    4.3314 H         1 RES1    0.0000
     17 C7         6.7475   16.5984    4.1854 C.ar      1 RES1    0.0000
     18 H6         7.1447   16.8110    3.3486 H         1 RES1    0.0000
     19 C8         8.1911   11.3172    5.6894 C.ar      1 RES1    0.0000
     20 C9         9.0677   11.6758    4.6753 C.ar      1 RES1    0.0000
     21 H7         8.7435   12.0594    3.8687 H         1 RES1    0.0000
     22 C10       10.4332   11.4645    4.8624 C.ar      1 RES1    0.0000
     23 H8        11.0493   11.7110    4.1836 H         1 RES1    0.0000
     24 C11       10.8914   10.8931    6.0379 C.ar      1 RES1    0.0000
     25 H9        11.8216   10.7385    6.1527 H         1 RES1    0.0000
     26 C12       10.0165   10.5488    7.0383 C.ar      1 RES1    0.0000
     27 H10       10.3407   10.1588    7.8415 H         1 RES1    0.0000
     28 C13        8.6409   10.7743    6.8706 C.ar      1 RES1    0.0000
     29 H11        8.0290   10.5548    7.5630 H         1 RES1    0.0000
     30 C14        6.0737   10.4306    4.7902 C.ar      1 RES1    0.0000
     31 C15        6.0355    9.1762    5.3728 C.ar      1 RES1    0.0000
     32 H12        6.4768    9.0248    6.2004 H         1 RES1    0.0000
     33 C16        5.3541    8.1448    4.7521 C.ar      1 RES1    0.0000
     34 H13        5.3218    7.2857    5.1568 H         1 RES1    0.0000
     35 C17        4.7193    8.3624    3.5413 C.ar      1 RES1    0.0000
     36 H14        4.2407    7.6595    3.1184 H         1 RES1    0.0000
     37 C18        4.7846    9.6045    2.9541 C.ar      1 RES1    0.0000
     38 H15        4.3561    9.7470    2.1185 H         1 RES1    0.0000
     39 C19        5.4635   10.6523    3.5584 C.ar      1 RES1    0.0000
     40 H16        5.5111   11.5051    3.1400 H         1 RES1    0.0000
@<TRIPOS>BOND
     1    1    5 1
     2    2    7 2
     3    3    4 1
     4    5   10 ar
     5    6    7 1
     6    7    8 1
     7    8    3 1
     8    9    8 1
     9   10    8 1
    10   11   10 ar
    11   12   11 1
    12   13   11 ar
    13   14   13 1
    14   15   13 ar
    15   16   15 1
    16   17    5 ar
    17   18   17 1
    18   19    6 1
    19   20   19 ar
    20   21   20 1
    21   22   20 ar
    22   23   22 1
    23   24   22 ar
    24   25   24 1
    25   26   24 ar
    26   27   26 1
    27   28   19 ar
    28   29   28 1
    29   30    6 1
    30   31   30 ar
    31   32   31 1
    32   33   31 ar
    33   34   33 1
    34   35   33 ar
    35   36   35 1
    36   37   35 ar
    37   38   37 1
    38   39   30 ar
    39   40   39 1
    40   15   17 ar
    41   26   28 ar
    42   37   39 ar
@<TRIPOS>SUBSTRUCTURE
     1 RES1 1

@<TRIPOS>CRYSIN
   8.4864   31.6770    5.6843  90.0000  90.0000  90.0000  33 1

