# MOL2 file generated by ConQuest
# Please check atom types

@<TRIPOS>MOLECULE
QUKXAV
    77    83     2
SMALL
NO_CHARGES
****
Generated from CSD

@<TRIPOS>ATOM
      1 C1         0.9164    2.1980    9.4025 C.3       1 RES1    0.0000
      2 C2         0.3170    1.0189    8.6731 C.ar      1 RES1    0.0000
      3 C3        -1.0033    0.8386    8.3568 C.ar      1 RES1    0.0000
      4 C4        -1.2738   -0.3129    7.6181 C.ar      1 RES1    0.0000
      5 C5        -0.2940   -1.2267    7.2602 C.ar      1 RES1    0.0000
      6 C6         1.0089   -1.0039    7.5869 C.ar      1 RES1    0.0000
      7 C7         1.3405    0.1127    8.3204 C.ar      1 RES1    0.0000
      8 C8         2.6306    0.5958    8.8292 C.ar      1 RES1    0.0000
      9 C9         3.9087    0.1101    8.7220 C.ar      1 RES1    0.0000
     10 C10        4.9165    0.7811    9.3297 C.ar      1 RES1    0.0000
     11 C11        4.7307    1.9727   10.0621 C.ar      1 RES1    0.0000
     12 C12        3.4020    2.4684   10.1526 C.ar      1 RES1    0.0000
     13 C13        2.3862    1.7824    9.5221 C.ar      1 RES1    0.0000
     14 O1         0.3367    2.4583   10.6562 O.3       1 RES1    0.0000
     15 C14       -0.0677    3.7776   10.6937 C.3       1 RES1    0.0000
     16 C15        0.5719    4.4460    9.5232 C.3       1 RES1    0.0000
     17 O2         0.7639    3.3596    8.6242 O.3       1 RES1    0.0000
     18 N1        -2.6716   -0.5558    7.2571 N.pl3     1 RES1    0.0000
     19 O3        -2.9151   -1.5496    6.5850 O.2       1 RES1    0.0000
     20 O4        -3.5276    0.2228    7.6337 O.2       1 RES1    0.0000
     21 N2         5.7829    2.6261   10.6625 N.3       1 RES1    0.0000
     22 C16        5.5538    3.7401   11.5572 C.3       1 RES1    0.0000
     23 C17        7.1574    2.2055   10.4585 C.3       1 RES1    0.0000
     24 C18       -7.4029    7.2273    9.0945 C.3       2 RES2    0.0000
     25 C19       -6.1244    7.4551    9.8821 C.ar      2 RES2    0.0000
     26 C20       -4.9034    6.8268    9.8176 C.ar      2 RES2    0.0000
     27 C21       -3.8964    7.2223   10.6708 C.ar      2 RES2    0.0000
     28 C22       -4.0725    8.2462   11.5323 C.ar      2 RES2    0.0000
     29 C23       -5.2623    8.8996   11.6394 C.ar      2 RES2    0.0000
     30 C24       -6.3113    8.5015   10.8050 C.ar      2 RES2    0.0000
     31 C25       -7.6743    8.9822   10.6500 C.ar      2 RES2    0.0000
     32 C26       -8.3624    9.9635   11.3263 C.ar      2 RES2    0.0000
     33 C27       -9.6792   10.2239   11.0183 C.ar      2 RES2    0.0000
     34 C28      -10.3440    9.4954    9.9893 C.ar      2 RES2    0.0000
     35 C29       -9.6147    8.4740    9.3213 C.ar      2 RES2    0.0000
     36 C30       -8.3105    8.2562    9.6834 C.ar      2 RES2    0.0000
     37 O5        -7.1811    7.4276    7.7191 O.3       2 RES2    0.0000
     38 C31       -7.1715    6.1859    7.0937 C.3       2 RES2    0.0000
     39 C32       -7.6748    5.2221    8.0353 C.3       2 RES2    0.0000
     40 O6        -7.8865    5.9205    9.2433 O.3       2 RES2    0.0000
     41 N3        -2.6384    6.5063   10.6437 N.pl3     2 RES2    0.0000
     42 O7        -1.7498    6.7767   11.4209 O.2       2 RES2    0.0000
     43 O8        -2.4973    5.6977    9.7594 O.2       2 RES2    0.0000
     44 N4       -11.6525    9.7858    9.6647 N.3       2 RES2    0.0000
     45 C33      -12.3240    8.9672    8.7064 C.3       2 RES2    0.0000
     46 C34      -12.4418   10.7396   10.4294 C.3       2 RES2    0.0000
     47 H1        -1.7667    1.4845    8.2892 H         1 RES1    0.0000
     48 H2        -0.6074   -2.0278    6.8794 H         1 RES1    0.0000
     49 H3         1.6374   -1.7123    7.4350 H         1 RES1    0.0000
     50 H4         4.1579   -0.8286    8.2996 H         1 RES1    0.0000
     51 H5         5.8125    0.5332    9.3900 H         1 RES1    0.0000
     52 H6         3.2200    3.3621   10.6604 H         1 RES1    0.0000
     53 H7        -1.0241    3.8327   10.6261 H         1 RES1    0.0000
     54 H8         0.2198    4.1907   11.5115 H         1 RES1    0.0000
     55 H9         1.4095    4.8466    9.7677 H         1 RES1    0.0000
     56 H10       -0.0042    5.1144    9.1455 H         1 RES1    0.0000
     57 H11        6.3955    4.0655   11.8860 H         1 RES1    0.0000
     58 H12        5.0126    3.4522   12.2949 H         1 RES1    0.0000
     59 H13        5.1032    4.4435   11.0838 H         1 RES1    0.0000
     60 H14        7.7452    2.7788   10.9580 H         1 RES1    0.0000
     61 H15        7.3739    2.2606    9.5242 H         1 RES1    0.0000
     62 H16        7.2645    1.2993   10.7571 H         1 RES1    0.0000
     63 H17       -4.5427    6.0908    9.2662 H         2 RES2    0.0000
     64 H18       -3.4385    8.4239   12.1305 H         2 RES2    0.0000
     65 H19       -5.4035    9.5930   12.2283 H         2 RES2    0.0000
     66 H20       -7.8777   10.5193   12.0015 H         2 RES2    0.0000
     67 H21      -10.0903   11.0550   11.5333 H         2 RES2    0.0000
     68 H22      -10.1662    7.7981    8.6315 H         2 RES2    0.0000
     69 H23       -7.7320    6.2059    6.3145 H         2 RES2    0.0000
     70 H24       -7.0337    4.5186    8.1664 H         2 RES2    0.0000
     71 H25       -8.4995    4.8466    7.7191 H         2 RES2    0.0000
     72 H26      -13.2222    9.2851    8.5878 H         2 RES2    0.0000
     73 H27      -12.3439    8.0584    9.0186 H         2 RES2    0.0000
     74 H28      -11.8568    9.0072    7.8689 H         2 RES2    0.0000
     75 H29      -13.3228   10.7997   10.0517 H         2 RES2    0.0000
     76 H30      -12.0210   11.6008   10.4003 H         2 RES2    0.0000
     77 H31      -12.5038   10.4442   11.3408 H         2 RES2    0.0000
@<TRIPOS>BOND
     1    1    2 1
     2    2    3 ar
     3    3    4 ar
     4    4    5 ar
     5    5    6 ar
     6    6    7 ar
     7    7    2 ar
     8    8    7 1
     9    9    8 ar
    10   10    9 ar
    11   11   10 ar
    12   12   11 ar
    13   13    1 1
    14   14    1 1
    15   15   14 1
    16   16   15 1
    17   17    1 1
    18   18    4 1
    19   19   18 2
    20   20   18 2
    21   21   11 1
    22   22   21 1
    23   23   21 1
    24   24   25 1
    25   25   26 ar
    26   26   27 ar
    27   27   28 ar
    28   28   29 ar
    29   29   30 ar
    30   30   25 ar
    31   31   30 1
    32   32   31 ar
    33   33   32 ar
    34   34   33 ar
    35   35   34 ar
    36   36   24 1
    37   37   24 1
    38   38   37 1
    39   39   38 1
    40   40   24 1
    41   41   27 1
    42   42   41 2
    43   43   41 2
    44   44   34 1
    45   45   44 1
    46   46   44 1
    47   47    3 1
    48   48    5 1
    49   49    6 1
    50   50    9 1
    51   51   10 1
    52   52   12 1
    53   53   15 1
    54   54   15 1
    55   55   16 1
    56   56   16 1
    57   57   22 1
    58   58   22 1
    59   59   22 1
    60   60   23 1
    61   61   23 1
    62   62   23 1
    63   63   26 1
    64   64   28 1
    65   65   29 1
    66   66   32 1
    67   67   33 1
    68   68   35 1
    69   69   38 1
    70   70   39 1
    71   71   39 1
    72   72   45 1
    73   73   45 1
    74   74   45 1
    75   75   46 1
    76   76   46 1
    77   77   46 1
    78    8   13 ar
    79   12   13 ar
    80   16   17 1
    81   31   36 ar
    82   35   36 ar
    83   39   40 1
@<TRIPOS>SUBSTRUCTURE
     1 RES1 1
     2 RES2 24

@<TRIPOS>CRYSIN
  11.7710   25.0340   11.3080  90.0000 113.0600  90.0000  14 1

