# MOL2 file generated by ConQuest
# Please check atom types

@<TRIPOS>MOLECULE
QULMAL
    33    34     1
SMALL
NO_CHARGES
****
Generated from CSD

@<TRIPOS>ATOM
      1 C1         1.7888    4.8004    8.5316 C.3       1 RES1    0.0000
      2 H1         1.6242    4.7867    7.5878 H         1 RES1    0.0000
      3 C2         3.1392    4.1748    8.8557 C.3       1 RES1    0.0000
      4 H2         3.2095    4.0672    9.8777 H         1 RES1    0.0000
      5 H3         3.1695    3.3435    8.4579 H         1 RES1    0.0000
      6 C3         4.3414    4.9543    8.3846 C.3       1 RES1    0.0000
      7 H4         4.3251    5.1063    7.3070 H         1 RES1    0.0000
      8 H5         5.1388    4.4680    8.6379 H         1 RES1    0.0000
      9 C4         4.4893    6.3298    9.0226 C.3       1 RES1    0.0000
     10 H6         4.2465    6.3737    9.9336 H         1 RES1    0.0000
     11 H7         5.4704    6.6256    9.0100 H         1 RES1    0.0000
     12 C5         3.7112    7.4080    8.3266 C.3       1 RES1    0.0000
     13 H8         4.0533    7.6117    7.4228 H         1 RES1    0.0000
     14 C6         3.6577    8.6981    9.1278 C.2       1 RES1    0.0000
     15 O1         4.0395    8.8081   10.2463 O.2       1 RES1    0.0000
     16 O2         3.1677    9.6974    8.4117 O.3       1 RES1    0.0000
     17 C7         2.9572   10.9406    9.1162 C.3       1 RES1    0.0000
     18 H9         2.6507   11.4936    8.5201 H         1 RES1    0.0000
     19 H10        3.8070   11.3126    9.5044 H         1 RES1    0.0000
     20 H11        2.3120   10.8094    9.7687 H         1 RES1    0.0000
     21 O3         2.3557    7.0254    7.9520 O.3       1 RES1    0.0000
     22 N1         1.7389    6.2101    8.9074 N.am      1 RES1    0.0000
     23 C8         1.0410    6.7835    9.8792 C.2       1 RES1    0.0000
     24 O4         1.0069    7.9911   10.0537 O.2       1 RES1    0.0000
     25 C9         0.3406    5.8280   10.8280 C.3       1 RES1    0.0000
     26 H12       -0.4778    6.2613   11.0228 H         1 RES1    0.0000
     27 C10        1.1537    5.6407   12.0868 C.3       1 RES1    0.0000
     28 H13        1.2530    6.5249   12.5194 H         1 RES1    0.0000
     29 H14        1.9521    5.1403   11.8484 H         1 RES1    0.0000
     30 H15        0.7052    4.9926   12.7177 H         1 RES1    0.0000
     31 N2         0.0196    4.5508   10.2006 N.am      1 RES1    0.0000
     32 C11        0.6880    3.9981    9.1790 C.2       1 RES1    0.0000
     33 O5         0.4539    2.8721    8.7720 O.2       1 RES1    0.0000
@<TRIPOS>BOND
     1    1    2 1
     2    3    1 1
     3    4    3 1
     4    5    3 1
     5    6    3 1
     6    7    6 1
     7    8    6 1
     8    9    6 1
     9   10    9 1
    10   11    9 1
    11   12    9 1
    12   13   12 1
    13   14   12 1
    14   15   14 2
    15   16   14 1
    16   17   16 1
    17   18   17 1
    18   19   17 1
    19   20   17 1
    20   21   12 1
    21   22    1 1
    22   23   22 1
    23   24   23 2
    24   25   23 1
    25   26   25 1
    26   27   25 1
    27   28   27 1
    28   29   27 1
    29   30   27 1
    30   31   25 1
    31   32    1 1
    32   33   32 2
    33   21   22 1
    34   31   32 1
@<TRIPOS>SUBSTRUCTURE
     1 RES1 1

@<TRIPOS>CRYSIN
   7.9622   10.5768   14.9149  90.0000  90.0000  90.0000  19 1

