# MOL2 file generated by ConQuest
# Please check atom types

@<TRIPOS>MOLECULE
QULYEB
    90    92     2
SMALL
NO_CHARGES
****
Generated from CSD

@<TRIPOS>ATOM
      1 O1        11.5222   10.9172    1.7751 O.2       1 RES1    0.0000
      2 O2         9.4889   10.7221    2.4438 O.2       1 RES1    0.0000
      3 O3         7.0396    8.0607    0.7164 O.2       2 RES2    0.0000
      4 O4         6.5159    6.0724    1.3930 O.2       2 RES2    0.0000
      5 O5         3.9896   10.8267   -1.5841 O.2       2 RES2    0.0000
      6 O6         2.0179   10.4081   -1.7751 O.2       2 RES2    0.0000
      7 O7        14.5414    7.3932    2.4119 O.2       1 RES1    0.0000
      8 O8        14.0639    5.8008    3.8368 O.2       1 RES1    0.0000
      9 N1        10.5825   10.2384    2.2766 N.pl3     1 RES1    0.0000
     10 N2        10.6134    4.5790    5.0388 N.2       1 RES1    0.0000
     11 N3        11.7070    5.2465    4.5771 N.pl3     1 RES1    0.0000
     12 N4         2.9422    4.4291    1.3930 N.2       2 RES2    0.0000
     13 N5         4.1129    5.3313    1.2338 N.pl3     2 RES2    0.0000
     14 N6         6.1924    7.1273    0.8915 N.pl3     2 RES2    0.0000
     15 N7         3.1578    9.9839   -1.4010 N.pl3     2 RES2    0.0000
     16 N8        13.8328    6.7314    3.1204 N.pl3     1 RES1    0.0000
     17 C1        12.1692    8.4283    2.8100 C.ar      1 RES1    0.0000
     18 C2        10.9368    8.9883    2.8577 C.ar      1 RES1    0.0000
     19 C3         9.8432    8.2586    3.4866 C.ar      1 RES1    0.0000
     20 C4        10.1358    7.0990    4.0677 C.ar      1 RES1    0.0000
     21 C5        12.4002    7.1839    3.3433 C.ar      1 RES1    0.0000
     22 C6        10.7674    3.4788    5.5642 C.2       1 RES1    0.0000
     23 C7        12.1229    2.8283    5.8189 C.3       1 RES1    0.0000
     24 C8        12.1538    1.3293    5.2537 C.3       1 RES1    0.0000
     25 C9        10.8444    0.6251    5.7473 C.3       1 RES1    0.0000
     26 C10        9.6121    1.3010    5.4766 C.3       1 RES1    0.0000
     27 C11        9.5813    2.7604    6.1532 C.3       1 RES1    0.0000
     28 C12        8.1949    3.4505    6.0577 C.3       1 RES1    0.0000
     29 C13        7.6712    3.4109    4.6567 C.3       1 RES1    0.0000
     30 C14       13.4631    0.7099    5.6597 C.3       1 RES1    0.0000
     31 C15        3.3735    8.8922   -0.6527 C.ar      2 RES2    0.0000
     32 C16        3.8202    6.4768    0.6209 C.ar      2 RES2    0.0000
     33 C17        2.5263    6.7907    0.1512 C.ar      2 RES2    0.0000
     34 C18        2.3568    7.9475   -0.4378 C.ar      2 RES2    0.0000
     35 C19        3.2502    3.3374    1.8945 C.2       2 RES2    0.0000
     36 C20        4.5596    2.7265    2.2607 C.3       2 RES2    0.0000
     37 C21        4.7752    1.3293    1.5761 C.3       2 RES2    0.0000
     38 C22        3.6045    0.4723    1.8945 C.3       2 RES2    0.0000
     39 C23        2.3260    1.0040    1.4567 C.3       2 RES2    0.0000
     40 C24        2.0487    2.4154    2.1493 C.3       2 RES2    0.0000
     41 C25        0.6932    2.9697    1.8786 C.3       2 RES2    0.0000
     42 C26        0.3081    2.9075    0.4139 C.3       2 RES2    0.0000
     43 C27       -0.3235    2.3475    2.8816 C.3       2 RES2    0.0000
     44 C28        6.1308    0.7552    1.9741 C.3       2 RES2    0.0000
     45 C29        7.2091    2.8849    7.0129 C.3       1 RES1    0.0000
     46 C30       11.4452    6.4372    4.0517 C.ar      1 RES1    0.0000
     47 C31        4.6366    8.5415   -0.2149 C.ar      2 RES2    0.0000
     48 C32        4.9139    7.4101    0.4697 C.ar      2 RES2    0.0000
     49 H1        12.8962    8.9233    2.3809 H         1 RES1    0.0000
     50 H2         8.9513    8.6348    3.5057 H         1 RES1    0.0000
     51 H3         9.4211    6.7370    4.5230 H         1 RES1    0.0000
     52 H4         1.8408    6.1798    0.2579 H         2 RES2    0.0000
     53 H5         1.4588    8.1596   -0.7339 H         2 RES2    0.0000
     54 H6         5.4191    9.0506   -0.4553 H         2 RES2    0.0000
     55 H7         6.8301    3.8861    4.6440 H         1 RES1    0.0000
     56 H8         8.2781    3.9144    4.0907 H         1 RES1    0.0000
     57 H9         7.5634    2.5568    4.3256 H         1 RES1    0.0000
     58 H10       13.3768   -0.1386    5.3238 H         1 RES1    0.0000
     59 H11       14.0916    1.2388    5.2720 H         1 RES1    0.0000
     60 H12       13.3845    0.7806    6.5751 H         1 RES1    0.0000
     61 H13       -0.5207    3.4647    0.4036 H         2 RES2    0.0000
     62 H14        0.9597    3.4138   -0.0613 H         2 RES2    0.0000
     63 H15        0.1725    2.0958    0.1640 H         2 RES2    0.0000
     64 H16       -1.1137    2.8792    2.6898 H         2 RES2    0.0000
     65 H17       -0.4097    1.4962    2.6691 H         2 RES2    0.0000
     66 H18        0.0015    2.5596    3.7198 H         2 RES2    0.0000
     67 H19        6.1077    0.7156    2.9126 H         2 RES2    0.0000
     68 H20        6.1554   -0.1018    1.5952 H         2 RES2    0.0000
     69 H21        6.7670    1.3236    1.6470 H         2 RES2    0.0000
     70 H22        6.4343    3.5269    6.9508 H         1 RES1    0.0000
     71 H23        6.9796    2.0760    6.8903 H         1 RES1    0.0000
     72 H24        7.5603    3.0800    7.9212 H         1 RES1    0.0000
     73 H25        9.8170    2.6671    7.0551 H         1 RES1    0.0000
     74 H26        8.3721    4.3160    6.2822 H         1 RES1    0.0000
     75 H27        4.7999    1.4622    0.6297 H         2 RES2    0.0000
     76 H28        2.1319    2.2400    3.1180 H         2 RES2    0.0000
     77 H29        0.8118    3.8804    2.1118 H         2 RES2    0.0000
     78 H30       12.7838    3.3204    5.4535 H         1 RES1    0.0000
     79 H31       12.2061    2.7123    6.7582 H         1 RES1    0.0000
     80 H32       10.8999   -0.1980    5.2084 H         1 RES1    0.0000
     81 H33       11.0616    0.4610    6.6038 H         1 RES1    0.0000
     82 H34        9.4041    1.2982    4.6074 H         1 RES1    0.0000
     83 H35        8.9775    0.7410    5.9916 H         1 RES1    0.0000
     84 H36        5.2374    3.3374    2.0155 H         2 RES2    0.0000
     85 H37        4.5365    2.6303    3.2048 H         2 RES2    0.0000
     86 H38        3.7339   -0.3677    1.4734 H         2 RES2    0.0000
     87 H39        3.5938    0.3507    2.8418 H         2 RES2    0.0000
     88 H40        2.3661    1.1257    0.5469 H         2 RES2    0.0000
     89 H41        1.6713    0.4073    1.7329 H         2 RES2    0.0000
     90 H42       12.1307    1.4339    4.2372 H         1 RES1    0.0000
@<TRIPOS>BOND
     1    1    9 2
     2    2    9 2
     3    3   14 2
     4    4   14 2
     5    5   15 2
     6    6   15 2
     7    7   16 2
     8    8   16 2
     9    9   18 1
    10   10   11 1
    11   11   46 1
    12   12   13 1
    13   13   32 1
    14   14   48 1
    15   15   31 1
    16   16   21 1
    17   17   18 ar
    18   18   19 ar
    19   19   20 ar
    20   20   46 ar
    21   21   17 ar
    22   22   10 2
    23   23   22 1
    24   24   23 1
    25   25   24 1
    26   26   25 1
    27   27   22 1
    28   28   27 1
    29   29   28 1
    30   30   24 1
    31   31   34 ar
    32   32   33 ar
    33   33   34 ar
    34   34   53 1
    35   35   12 2
    36   36   35 1
    37   37   36 1
    38   38   37 1
    39   39   38 1
    40   40   35 1
    41   41   40 1
    42   42   41 1
    43   43   41 1
    44   44   37 1
    45   45   28 1
    46   46   21 ar
    47   47   31 ar
    48   48   32 ar
    49   49   17 1
    50   50   19 1
    51   51   20 1
    52   52   33 1
    53   54   47 1
    54   55   29 1
    55   56   29 1
    56   57   29 1
    57   58   30 1
    58   59   30 1
    59   60   30 1
    60   61   42 1
    61   62   42 1
    62   63   42 1
    63   64   43 1
    64   65   43 1
    65   66   43 1
    66   67   44 1
    67   68   44 1
    68   69   44 1
    69   70   45 1
    70   71   45 1
    71   72   45 1
    72   73   27 1
    73   74   28 1
    74   75   37 1
    75   76   40 1
    76   77   41 1
    77   78   23 1
    78   79   23 1
    79   80   25 1
    80   81   25 1
    81   82   26 1
    82   83   26 1
    83   84   36 1
    84   85   36 1
    85   86   38 1
    86   87   38 1
    87   88   39 1
    88   89   39 1
    89   90   24 1
    90   26   27 1
    91   39   40 1
    92   47   48 ar
@<TRIPOS>SUBSTRUCTURE
     1 RES1 1
     2 RES2 3

@<TRIPOS>CRYSIN
  15.4040   28.2830    7.9602  90.0000  90.0000  90.0000  19 1

