# MOL2 file generated by ConQuest
# Please check atom types

@<TRIPOS>MOLECULE
QUMKOZ
   126   106     2
SMALL
NO_CHARGES
****
Generated from CSD

@<TRIPOS>ATOM
      1 O1         9.5920   10.2322    0.1878 O.3       1 RES1    0.0000
      2 O2         8.4365   14.4286    2.0793 O.3       1 RES1    0.0000
      3 O3        11.0561   13.4812    6.0170 O.3       1 RES1    0.0000
      4 O4        12.1485    9.2313    4.1464 O.3       1 RES1    0.0000
      5 O5        11.9482    8.0178   -1.9587 O.2       1 RES1    0.0000
      6 O6        11.0966    9.9955   -1.9956 O.2       1 RES1    0.0000
      7 O7         9.5049   16.5520    0.8080 O.2       1 RES1    0.0000
      8 O8         9.2896   18.1436    2.2289 O.2       1 RES1    0.0000
      9 O9        12.3199   17.3236    5.9512 O.2       1 RES1    0.0000
     10 O10       11.9192   15.6464    7.2074 O.2       1 RES1    0.0000
     11 O11       14.5715    8.3661    3.5707 O.2       1 RES1    0.0000
     12 O12       14.4170    6.8587    2.0496 O.2       1 RES1    0.0000
     13 O13       10.3396   12.9024    0.6617 O.3       1 RES1    0.0000
     14 O14       12.6147   12.0153    4.1415 O.3       1 RES1    0.0000
     15 N1        11.5392    9.0148   -1.4038 N.pl3     1 RES1    0.0000
     16 N2         9.4957   16.9874    1.9521 N.pl3     1 RES1    0.0000
     17 N3        11.8030   16.2482    6.1621 N.pl3     1 RES1    0.0000
     18 N4        14.0365    7.8696    2.6006 N.pl3     1 RES1    0.0000
     19 C1         8.6724   10.9921    0.9227 C.ar      1 RES1    0.0000
     20 C2         7.4293   10.4492    1.2258 C.ar      1 RES1    0.0000
     21 C3         6.5496   11.3092    1.8546 C.ar      1 RES1    0.0000
     22 C4         6.8225   12.6265    2.2065 C.ar      1 RES1    0.0000
     23 C5         8.1018   13.0790    1.8664 C.ar      1 RES1    0.0000
     24 C6         9.0431   12.3150    1.1942 C.ar      1 RES1    0.0000
     25 C7         9.3548   14.7462    3.0290 C.ar      1 RES1    0.0000
     26 C8         9.8246   16.0675    3.0369 C.ar      1 RES1    0.0000
     27 C9        10.6229   16.5132    4.0663 C.ar      1 RES1    0.0000
     28 C10       11.0133   15.6650    5.0681 C.ar      1 RES1    0.0000
     29 C11       10.6153   14.3036    5.0431 C.ar      1 RES1    0.0000
     30 C12        9.7680   13.8836    4.0281 C.ar      1 RES1    0.0000
     31 C13       10.7982   12.1023    5.9394 C.ar      1 RES1    0.0000
     32 C14        9.9442   11.5129    6.8686 C.ar      1 RES1    0.0000
     33 C15        9.8202   10.1338    6.7882 C.ar      1 RES1    0.0000
     34 C16       10.4776    9.3228    5.8761 C.ar      1 RES1    0.0000
     35 C17       11.3268    9.9912    4.9969 C.ar      1 RES1    0.0000
     36 C18       11.5388   11.3706    5.0127 C.ar      1 RES1    0.0000
     37 C19       11.9674    9.2405    2.8023 C.ar      1 RES1    0.0000
     38 C20       12.8750    8.5512    2.0127 C.ar      1 RES1    0.0000
     39 C21       12.6983    8.4558    0.6538 C.ar      1 RES1    0.0000
     40 C22       11.6295    9.0680    0.0514 C.ar      1 RES1    0.0000
     41 C23       10.6912    9.7462    0.8251 C.ar      1 RES1    0.0000
     42 C24       10.8569    9.8182    2.1986 C.ar      1 RES1    0.0000
     43 C25        6.9879    9.0421    0.7843 C.3       1 RES1    0.0000
     44 C26        7.9166    7.9663    1.3115 C.3       1 RES1    0.0000
     45 C27        6.9285    9.0202   -0.7421 C.3       1 RES1    0.0000
     46 C28        5.5881    8.7243    1.2996 C.3       1 RES1    0.0000
     47 C29        5.7454   13.5220    2.8352 C.3       1 RES1    0.0000
     48 C30        4.4254   12.7765    3.0198 C.3       1 RES1    0.0000
     49 C31        5.4798   14.7133    1.8967 C.3       1 RES1    0.0000
     50 C32        6.1768   14.0057    4.2127 C.3       1 RES1    0.0000
     51 C33        9.2531   12.3034    7.9930 C.3       1 RES1    0.0000
     52 C34        8.2902   13.3513    7.4025 C.3       1 RES1    0.0000
     53 C35       10.3115   12.9814    8.8721 C.3       1 RES1    0.0000
     54 C36        8.4305   11.3839    8.8972 C.3       1 RES1    0.0000
     55 C37       10.3345    7.7889    5.9249 C.3       1 RES1    0.0000
     56 C38        9.3073    7.3450    6.9688 C.3       1 RES1    0.0000
     57 C39       11.6850    7.1884    6.3229 C.3       1 RES1    0.0000
     58 C40        9.8718    7.2400    4.5738 C.3       1 RES1    0.0000
     59 H1         5.6866   10.9719    2.0655 H         1 RES1    0.0000
     60 H2        10.9056   17.4192    4.0822 H         1 RES1    0.0000
     61 H3         9.4653   12.9825    4.0202 H         1 RES1    0.0000
     62 H4         9.2371    9.7117    7.4077 H         1 RES1    0.0000
     63 H5        13.3190    7.9649    0.1292 H         1 RES1    0.0000
     64 H6        10.2080   10.2645    2.7298 H         1 RES1    0.0000
     65 H7         7.9359    8.0042    2.2909 H         1 RES1    0.0000
     66 H8         8.8194    8.1131    0.9609 H         1 RES1    0.0000
     67 H9         7.5936    7.0869    1.0255 H         1 RES1    0.0000
     68 H10        6.3262    9.7271   -1.0545 H         1 RES1    0.0000
     69 H11        6.5941    8.1492   -1.0426 H         1 RES1    0.0000
     70 H12        7.8256    9.1703   -1.1059 H         1 RES1    0.0000
     71 H13        4.7924   15.2914    2.2895 H         1 RES1    0.0000
     72 H14        5.1713   14.3819    1.0281 H         1 RES1    0.0000
     73 H15        6.3073   15.2252    1.7768 H         1 RES1    0.0000
     74 H16        5.4744   14.5714    4.5949 H         1 RES1    0.0000
     75 H17        7.0058   14.5215    4.1322 H         1 RES1    0.0000
     76 H18        6.3278   13.2334    4.7979 H         1 RES1    0.0000
     77 H19        7.8605   13.8455    8.1314 H         1 RES1    0.0000
     78 H20        7.6062   12.9009    6.8660 H         1 RES1    0.0000
     79 H21        8.7924   13.9735    6.8370 H         1 RES1    0.0000
     80 H22        9.8689   13.4874    9.5839 H         1 RES1    0.0000
     81 H23       10.8493   13.5905    8.3238 H         1 RES1    0.0000
     82 H24       10.8931   12.2983    9.2676 H         1 RES1    0.0000
     83 H25       11.6097    6.2117    6.3585 H         1 RES1    0.0000
     84 H26       11.9468    7.5284    7.2034 H         1 RES1    0.0000
     85 H27       12.3615    7.4391    5.6599 H         1 RES1    0.0000
     86 H28        9.7841    6.2659    4.6292 H         1 RES1    0.0000
     87 H29       10.5303    7.4703    3.8858 H         1 RES1    0.0000
     88 H30        9.0049    7.6330    4.3418 H         1 RES1    0.0000
     89 H31       10.9426   12.8199    1.2403 H         1 RES1    0.0000
     90 H32       12.9704   12.6523    4.5606 H         1 RES1    0.0000
     91 H33        5.3269    7.8264    1.0057 H         1 RES1    0.0000
     92 H34        4.9523    9.3806    0.9464 H         1 RES1    0.0000
     93 H35        5.5845    8.7609    2.2790 H         1 RES1    0.0000
     94 H36        4.5663   12.0003    3.6011 H         1 RES1    0.0000
     95 H37        4.0949   12.4744    2.1485 H         1 RES1    0.0000
     96 H38        3.7657   13.3752    3.4284 H         1 RES1    0.0000
     97 H39        9.0191   10.7174    9.3084 H         1 RES1    0.0000
     98 H40        7.7456   10.9288    8.3634 H         1 RES1    0.0000
     99 H41        7.9987   11.9156    9.5984 H         1 RES1    0.0000
    100 H42        9.2430    6.3673    6.9701 H         1 RES1    0.0000
    101 H43        8.4322    7.7293    6.7500 H         1 RES1    0.0000
    102 H44        9.5873    7.6555    7.8559 H         1 RES1    0.0000
    103 H45        8.2976    7.4650    0.5615 Du        2 SUP2    0.0000
    104 H46        7.4117    7.3572    1.8902 Du        2 SUP2    0.0000
    105 H47        8.6388    8.3823    1.8269 Du        2 SUP2    0.0000
    106 H48        7.5038    8.3036   -1.0822 Du        2 SUP2    0.0000
    107 H49        7.2361    9.8818   -1.0927 Du        2 SUP2    0.0000
    108 H50        6.0049    8.8611   -1.0281 Du        2 SUP2    0.0000
    109 H51        6.0541   14.6430    1.1059 Du        2 SUP2    0.0000
    110 H52        5.6757   15.5494    2.3713 Du        2 SUP2    0.0000
    111 H53        4.5405   14.7081    1.6199 Du        2 SUP2    0.0000
    112 H54        7.0645   13.6470    4.4249 Du        2 SUP2    0.0000
    113 H55        5.5310   13.6968    4.8822 Du        2 SUP2    0.0000
    114 H56        6.2106   14.9843    4.2192 Du        2 SUP2    0.0000
    115 H57        8.3140   13.3001    6.4244 Du        2 SUP2    0.0000
    116 H58        8.5661   14.2474    7.6898 Du        2 SUP2    0.0000
    117 H59        7.3799   13.1734    7.7188 Du        2 SUP2    0.0000
    118 H60       11.2047   12.7641    8.5321 Du        2 SUP2    0.0000
    119 H61       10.2258   12.6613    9.7935 Du        2 SUP2    0.0000
    120 H62       10.1797   13.9521    8.8497 Du        2 SUP2    0.0000
    121 H63       12.3373    7.9068    6.4574 Du        2 SUP2    0.0000
    122 H64       11.9977    6.5911    5.6112 Du        2 SUP2    0.0000
    123 H65       11.5842    6.6804    7.1547 Du        2 SUP2    0.0000
    124 H66        9.7612    7.9805    3.9411 Du        2 SUP2    0.0000
    125 H67        9.0167    6.7768    4.6872 Du        2 SUP2    0.0000
    126 H68       10.5418    6.6137    4.2298 Du        2 SUP2    0.0000
@<TRIPOS>BOND
     1    1   19 1
     2    2   23 1
     3    3   29 1
     4    4   35 1
     5    5   15 2
     6    6   15 2
     7    7   16 2
     8    8   16 2
     9    9   17 2
    10   10   17 2
    11   11   18 2
    12   12   18 2
    13   13   24 1
    14   14   36 1
    15   15   40 1
    16   16   26 1
    17   17   28 1
    18   18   38 1
    19   19   20 ar
    20   20   21 ar
    21   21   22 ar
    22   22   23 ar
    23   23   24 ar
    24   24   19 ar
    25   25    2 1
    26   26   25 ar
    27   27   26 ar
    28   28   27 ar
    29   29   28 ar
    30   30   25 ar
    31   31    3 1
    32   32   31 ar
    33   33   32 ar
    34   34   33 ar
    35   35   34 ar
    36   36   31 ar
    37   37    4 1
    38   38   37 ar
    39   39   38 ar
    40   40   39 ar
    41   41    1 1
    42   42   37 ar
    43   43   20 1
    44   44   43 1
    45   45   43 1
    46   46   43 1
    47   47   22 1
    48   48   47 1
    49   49   47 1
    50   50   47 1
    51   51   32 1
    52   52   51 1
    53   53   51 1
    54   54   51 1
    55   55   34 1
    56   56   55 1
    57   57   55 1
    58   58   55 1
    59   59   21 1
    60   60   27 1
    61   61   30 1
    62   62   33 1
    63   63   39 1
    64   64   42 1
    65   65   44 1
    66   66   44 1
    67   67   44 1
    68   68   45 1
    69   69   45 1
    70   70   45 1
    71   71   49 1
    72   72   49 1
    73   73   49 1
    74   74   50 1
    75   75   50 1
    76   76   50 1
    77   77   52 1
    78   78   52 1
    79   79   52 1
    80   80   53 1
    81   81   53 1
    82   82   53 1
    83   83   57 1
    84   84   57 1
    85   85   57 1
    86   86   58 1
    87   87   58 1
    88   88   58 1
    89   89   13 1
    90   90   14 1
    91   91   46 1
    92   92   46 1
    93   93   46 1
    94   94   48 1
    95   95   48 1
    96   96   48 1
    97   97   54 1
    98   98   54 1
    99   99   54 1
   100  100   56 1
   101  101   56 1
   102  102   56 1
   103   29   30 ar
   104   35   36 ar
   105   40   41 ar
   106   41   42 ar
@<TRIPOS>SUBSTRUCTURE
     1 RES1 1
     2 SUP2 103

@<TRIPOS>CRYSIN
  11.4320   13.6550   13.8830  74.6910  79.5550  87.4900   2 1

