# MOL2 file generated by ConQuest
# Please check atom types

@<TRIPOS>MOLECULE
QUMKIT
   106   110     1
SMALL
NO_CHARGES
****
Generated from CSD

@<TRIPOS>ATOM
      1 O1         6.8350    6.2122    2.4429 O.3       1 RES1    0.0000
      2 O2         7.9498    1.9425    0.5680 O.3       1 RES1    0.0000
      3 O3        10.5684    1.0067    4.5014 O.3       1 RES1    0.0000
      4 O4         9.3970    5.2186    6.3971 O.3       1 RES1    0.0000
      5 O5         4.5501    8.5958    4.5449 O.2       1 RES1    0.0000
      6 O6         4.4030    7.0764    3.0192 O.2       1 RES1    0.0000
      7 O7         7.0935   -0.2273   -0.6179 O.2       1 RES1    0.0000
      8 O8         6.6901   -1.9086    0.6409 O.2       1 RES1    0.0000
      9 O9         9.7238   -2.7224    4.3496 O.2       1 RES1    0.0000
     10 O10        9.5033   -1.1213    5.7761 O.2       1 RES1    0.0000
     11 O11        7.8765    5.4632    8.5753 O.2       1 RES1    0.0000
     12 O12        7.0189    7.4401    8.5422 O.2       1 RES1    0.0000
     13 N1         4.9382    7.5738    3.9920 N.pl3     1 RES1    0.0000
     14 N2         7.2084   -0.8287    0.4266 N.pl3     1 RES1    0.0000
     15 N3         9.5116   -1.5590    4.6339 N.pl3     1 RES1    0.0000
     16 N4         7.4396    6.4357    7.9880 N.pl3     1 RES1    0.0000
     17 C1         7.6628    5.4489    1.5971 C.ar      1 RES1    0.0000
     18 C2         8.5141    6.1166    0.7168 C.ar      1 RES1    0.0000
     19 C3         9.1775    5.3062   -0.1967 C.ar      1 RES1    0.0000
     20 C4         9.0569    3.9168   -0.2806 C.ar      1 RES1    0.0000
     21 C5         8.2016    3.3316    0.6549 C.ar      1 RES1    0.0000
     22 C6         7.4534    4.0665    1.5731 C.ar      1 RES1    0.0000
     23 C7         8.3917    1.1185    1.5418 C.ar      1 RES1    0.0000
     24 C8         8.0056   -0.2376    1.5068 C.ar      1 RES1    0.0000
     25 C9         8.3910   -1.0946    2.5231 C.ar      1 RES1    0.0000
     26 C10        9.1850   -0.6386    3.5449 C.ar      1 RES1    0.0000
     27 C11        9.6554    0.6833    3.5573 C.ar      1 RES1    0.0000
     28 C12        9.2364    1.5536    2.5637 C.ar      1 RES1    0.0000
     29 C13       10.8995    2.3576    4.7135 C.ar      1 RES1    0.0000
     30 C14       12.1801    2.8097    4.3806 C.ar      1 RES1    0.0000
     31 C15       12.4547    4.1345    4.7246 C.ar      1 RES1    0.0000
     32 C16       11.5659    4.9968    5.3625 C.ar      1 RES1    0.0000
     33 C17       10.3154    4.4551    5.6603 C.ar      1 RES1    0.0000
     34 C18        9.9632    3.1341    5.3857 C.ar      1 RES1    0.0000
     35 C19        8.2972    5.7003    5.7626 C.ar      1 RES1    0.0000
     36 C20        7.3459    6.3759    6.5327 C.ar      1 RES1    0.0000
     37 C21        6.2735    7.0049    5.9331 C.ar      1 RES1    0.0000
     38 C22        6.1026    6.8978    4.5748 C.ar      1 RES1    0.0000
     39 C23        7.0232    6.2055    3.7783 C.ar      1 RES1    0.0000
     40 C24        8.1272    5.6263    4.3887 C.ar      1 RES1    0.0000
     41 C25        8.6514    7.6519    0.6688 C.3       1 RES1    0.0000
     42 C26        9.1182    8.2106    2.0194 C.3       1 RES1    0.0000
     43 C27        7.3012    8.2699    0.2681 C.3       1 RES1    0.0000
     44 C28        9.6874    8.0917   -0.3767 C.3       1 RES1    0.0000
     45 C29        9.7553    3.1228   -1.3962 C.3       1 RES1    0.0000
     46 C30       10.7209    2.0859   -0.8008 C.3       1 RES1    0.0000
     47 C31        8.6905    2.4394   -2.2730 C.3       1 RES1    0.0000
     48 C32       10.5727    4.0430   -2.3053 C.3       1 RES1    0.0000
     49 C33       13.2624    1.9120    3.7600 C.3       1 RES1    0.0000
     50 C34       12.8358    1.4211    2.3728 C.3       1 RES1    0.0000
     51 C35       13.5368    0.7221    4.6822 C.3       1 RES1    0.0000
     52 C36       14.5910    2.6641    3.5716 C.3       1 RES1    0.0000
     53 C37       12.0081    6.4058    5.8011 C.3       1 RES1    0.0000
     54 C38       12.0615    6.4385    7.3340 C.3       1 RES1    0.0000
     55 C39       11.0564    7.4948    5.2851 C.3       1 RES1    0.0000
     56 C40       13.4104    6.7326    5.2817 C.3       1 RES1    0.0000
     57 C41        6.3945    3.4098    2.4198 C.3       1 RES1    0.0000
     58 C42        8.6585    2.5468    5.8860 C.3       1 RES1    0.0000
     59 H1         9.7321    5.7380   -0.8374 H         1 RES1    0.0000
     60 H2         9.5290    2.4349    2.5477 H         1 RES1    0.0000
     61 H3         8.1153   -1.9568    2.5319 H         1 RES1    0.0000
     62 H4        13.3181    4.4774    4.5358 H         1 RES1    0.0000
     63 H5         8.8168    5.2575    3.8274 H         1 RES1    0.0000
     64 H6         5.6450    7.4547    6.4515 H         1 RES1    0.0000
     65 H7         8.4255    8.0630    2.6938 H         1 RES1    0.0000
     66 H8         9.2918    9.1719    1.9328 H         1 RES1    0.0000
     67 H9         9.9439    7.7566    2.2936 H         1 RES1    0.0000
     68 H10        7.0178    7.9087   -0.5964 H         1 RES1    0.0000
     69 H11        7.3890    9.2419    0.2080 H         1 RES1    0.0000
     70 H12        6.6267    8.0455    0.9493 H         1 RES1    0.0000
     71 H13       10.5608    7.7045   -0.1527 H         1 RES1    0.0000
     72 H14        9.7554    9.0690   -0.3792 H         1 RES1    0.0000
     73 H15        9.4106    7.7808   -1.2640 H         1 RES1    0.0000
     74 H16       11.3378    2.5307   -0.1830 H         1 RES1    0.0000
     75 H17       11.2312    1.6636   -1.5233 H         1 RES1    0.0000
     76 H18       10.2097    1.4036   -0.3186 H         1 RES1    0.0000
     77 H19        9.1275    1.9436   -2.9953 H         1 RES1    0.0000
     78 H20        8.0964    3.1203   -2.6583 H         1 RES1    0.0000
     79 H21        8.1621    1.8219   -1.7248 H         1 RES1    0.0000
     80 H22       11.2418    4.5172   -1.7709 H         1 RES1    0.0000
     81 H23        9.9742    4.6903   -2.7333 H         1 RES1    0.0000
     82 H24       11.0202    3.5065   -2.9914 H         1 RES1    0.0000
     83 H25       12.0327    0.8703    2.4476 H         1 RES1    0.0000
     84 H26       13.5618    0.8891    1.9763 H         1 RES1    0.0000
     85 H27       12.6529    2.1930    1.7932 H         1 RES1    0.0000
     86 H28       13.7471    1.0467    5.5838 H         1 RES1    0.0000
     87 H29       14.2934    0.2063    4.3357 H         1 RES1    0.0000
     88 H30       12.7418    0.1490    4.7214 H         1 RES1    0.0000
     89 H31       14.4477    3.4335    2.9887 H         1 RES1    0.0000
     90 H32       15.2492    2.0605    3.1691 H         1 RES1    0.0000
     91 H33       14.9168    2.9677    4.4463 H         1 RES1    0.0000
     92 H34       12.3602    7.3232    7.6312 H         1 RES1    0.0000
     93 H35       12.6906    5.7562    7.6523 H         1 RES1    0.0000
     94 H36       11.1701    6.2546    7.6944 H         1 RES1    0.0000
     95 H37       10.1714    7.3727    5.6865 H         1 RES1    0.0000
     96 H38       10.9833    7.4280    4.3080 H         1 RES1    0.0000
     97 H39       11.4067    8.3774    5.5246 H         1 RES1    0.0000
     98 H40       13.4197    6.6747    4.3041 H         1 RES1    0.0000
     99 H41       14.0534    6.0898    5.6510 H         1 RES1    0.0000
    100 H42       13.6593    7.6387    5.5588 H         1 RES1    0.0000
    101 H43        5.9781    2.6792    1.9157 H         1 RES1    0.0000
    102 H44        5.7113    4.0711    2.6596 H         1 RES1    0.0000
    103 H45        6.8034    3.0526    3.2363 H         1 RES1    0.0000
    104 H46        7.9600    2.6804    5.2112 H         1 RES1    0.0000
    105 H47        8.3981    2.9914    6.7188 H         1 RES1    0.0000
    106 H48        8.7741    1.5876    6.0512 H         1 RES1    0.0000
@<TRIPOS>BOND
     1    1   17 1
     2    2   21 1
     3    3   27 1
     4    4   33 1
     5    5   13 2
     6    6   13 2
     7    7   14 2
     8    8   14 2
     9    9   15 2
    10   10   15 2
    11   11   16 2
    12   12   16 2
    13   13   38 1
    14   14   24 1
    15   15   26 1
    16   16   36 1
    17   17   18 ar
    18   18   19 ar
    19   19   20 ar
    20   20   21 ar
    21   21   22 ar
    22   22   17 ar
    23   23    2 1
    24   24   23 ar
    25   25   24 ar
    26   26   25 ar
    27   27   26 ar
    28   28   23 ar
    29   29    3 1
    30   30   29 ar
    31   31   30 ar
    32   32   31 ar
    33   33   32 ar
    34   34   29 ar
    35   35    4 1
    36   36   35 ar
    37   37   36 ar
    38   38   37 ar
    39   39    1 1
    40   40   35 ar
    41   41   18 1
    42   42   41 1
    43   43   41 1
    44   44   41 1
    45   45   20 1
    46   46   45 1
    47   47   45 1
    48   48   45 1
    49   49   30 1
    50   50   49 1
    51   51   49 1
    52   52   49 1
    53   53   32 1
    54   54   53 1
    55   55   53 1
    56   56   53 1
    57   57   22 1
    58   58   34 1
    59   59   19 1
    60   60   28 1
    61   61   25 1
    62   62   31 1
    63   63   40 1
    64   64   37 1
    65   65   42 1
    66   66   42 1
    67   67   42 1
    68   68   43 1
    69   69   43 1
    70   70   43 1
    71   71   44 1
    72   72   44 1
    73   73   44 1
    74   74   46 1
    75   75   46 1
    76   76   46 1
    77   77   47 1
    78   78   47 1
    79   79   47 1
    80   80   48 1
    81   81   48 1
    82   82   48 1
    83   83   50 1
    84   84   50 1
    85   85   50 1
    86   86   51 1
    87   87   51 1
    88   88   51 1
    89   89   52 1
    90   90   52 1
    91   91   52 1
    92   92   54 1
    93   93   54 1
    94   94   54 1
    95   95   55 1
    96   96   55 1
    97   97   55 1
    98   98   56 1
    99   99   56 1
   100  100   56 1
   101  101   57 1
   102  102   57 1
   103  103   57 1
   104  104   58 1
   105  105   58 1
   106  106   58 1
   107   27   28 ar
   108   33   34 ar
   109   38   39 ar
   110   39   40 ar
@<TRIPOS>SUBSTRUCTURE
     1 RES1 1

@<TRIPOS>CRYSIN
  11.4489   13.6872   13.8733  74.5480  79.6970  87.7110   2 1

