# MOL2 file generated by ConQuest
# Please check atom types

@<TRIPOS>MOLECULE
QUMMAN
    47    50     1
SMALL
NO_CHARGES
****
Generated from CSD

@<TRIPOS>ATOM
      1 O1         2.9778    3.9143    8.3715 O.3       1 RES1    0.0000
      2 O2         4.8119    4.3682    7.1285 O.3       1 RES1    0.0000
      3 O3         5.3945    6.9581    6.6631 O.3       1 RES1    0.0000
      4 O4         2.1898    6.0511    8.0445 O.3       1 RES1    0.0000
      5 O5         2.4710    8.9937    7.2638 O.3       1 RES1    0.0000
      6 O6         4.5233    9.4792    6.2557 O.3       1 RES1    0.0000
      7 O7         3.8506   15.8806    6.2730 O.2       1 RES1    0.0000
      8 O8         1.8126   15.8618    6.9166 O.2       1 RES1    0.0000
      9 N1         2.8090   15.3055    6.4645 N.pl3     1 RES1    0.0000
     10 C1         2.5411    4.8376    7.4185 C.3       1 RES1    0.0000
     11 C2         3.7594    5.1065    6.5235 C.3       1 RES1    0.0000
     12 C3         4.0250    6.6082    6.7196 C.3       1 RES1    0.0000
     13 C4         3.3796    6.8598    8.0902 C.3       1 RES1    0.0000
     14 C5         3.0601    8.3136    8.3625 C.3       1 RES1    0.0000
     15 C6         3.3344    7.4493    5.6513 C.3       1 RES1    0.0000
     16 C7         3.2517    8.9185    6.0724 C.3       1 RES1    0.0000
     17 C8         2.5057    9.7736    5.0404 C.3       1 RES1    0.0000
     18 C9         2.5466   11.2381    5.3762 C.ar      1 RES1    0.0000
     19 C10        3.5754   12.0420    4.9088 C.ar      1 RES1    0.0000
     20 C11        3.6647   13.3675    5.2609 C.ar      1 RES1    0.0000
     21 C12        2.6975   13.9001    6.0770 C.ar      1 RES1    0.0000
     22 C13        1.6448   13.1519    6.5362 C.ar      1 RES1    0.0000
     23 C14        1.5713   11.8204    6.1804 C.ar      1 RES1    0.0000
     24 C15        4.2428    3.3771    7.9940 C.3       1 RES1    0.0000
     25 C16        4.0602    2.0808    7.2479 C.3       1 RES1    0.0000
     26 H1         3.5700    1.4626    7.7943 H         1 RES1    0.0000
     27 H2         4.9201    1.7092    7.0364 H         1 RES1    0.0000
     28 H3         3.5747    2.2452    6.4355 H         1 RES1    0.0000
     29 C17        5.1063    3.2534    9.2067 C.3       1 RES1    0.0000
     30 H4         5.1914    4.1120    9.6278 H         1 RES1    0.0000
     31 H5         5.9752    2.9354    8.9507 H         1 RES1    0.0000
     32 H6         4.7076    2.6340    9.8221 H         1 RES1    0.0000
     33 H7         1.7626    4.5675    7.0527 H         1 RES1    0.0000
     34 H8         3.6313    4.8090    5.6458 H         1 RES1    0.0000
     35 H9         5.7760    6.5661    7.2252 H         1 RES1    0.0000
     36 H10        3.9375    6.5250    8.7682 H         1 RES1    0.0000
     37 H11        5.0290    8.8764    6.5081 H         1 RES1    0.0000
     38 H12        4.2637   11.6868    4.3387 H         1 RES1    0.0000
     39 H13        4.3031   13.8721    4.8743 H         1 RES1    0.0000
     40 H14        0.9899   13.5518    7.0799 H         1 RES1    0.0000
     41 H15        0.8644   11.3100    6.4718 H         1 RES1    0.0000
     42 H16        3.9677    8.7856    8.5776 H         1 RES1    0.0000
     43 H17        2.4224    7.1330    5.5278 H         1 RES1    0.0000
     44 H18        1.6379    9.4484    4.9650 H         1 RES1    0.0000
     45 H19        2.4573    8.4328    9.0496 H         1 RES1    0.0000
     46 H20        3.8054    7.3539    4.8470 H         1 RES1    0.0000
     47 H21        2.9641    9.6419    4.1935 H         1 RES1    0.0000
@<TRIPOS>BOND
     1    1   10 1
     2    2   11 1
     3    3   12 1
     4    4   10 1
     5    5   14 1
     6    6   16 1
     7    7    9 2
     8    8    9 2
     9    9   21 1
    10   10   11 1
    11   11   12 1
    12   12   13 1
    13   13    4 1
    14   14   13 1
    15   15   12 1
    16   16    5 1
    17   17   16 1
    18   18   17 1
    19   19   18 ar
    20   20   19 ar
    21   21   20 ar
    22   22   21 ar
    23   23   18 ar
    24   24    1 1
    25   25   24 1
    26   26   25 1
    27   27   25 1
    28   28   25 1
    29   29   24 1
    30   30   29 1
    31   31   29 1
    32   32   29 1
    33   33   10 1
    34   34   11 1
    35   35    3 1
    36   36   13 1
    37   37    6 1
    38   38   19 1
    39   39   20 1
    40   40   22 1
    41   41   23 1
    42   42   14 1
    43   43   15 1
    44   44   17 1
    45   45   14 1
    46   46   15 1
    47   47   17 1
    48    2   24 1
    49   15   16 1
    50   22   23 ar
@<TRIPOS>SUBSTRUCTURE
     1 RES1 1

@<TRIPOS>CRYSIN
   5.4991   17.1260    9.1230  90.0000  95.7650  90.0000   4 1

