# MOL2 file generated by ConQuest
# Please check atom types

@<TRIPOS>MOLECULE
QUMSIC
    60    65     1
SMALL
NO_CHARGES
****
Generated from CSD

@<TRIPOS>ATOM
      1 O1         8.1057    3.4635    4.0179 O.3       1 RES1    0.0000
      2 O2         5.1389   -1.4824   -0.4449 O.3       1 RES1    0.0000
      3 N1         6.8317    7.3671    2.6075 N.ar      1 RES1    0.0000
      4 N2         8.4929    6.0426    1.7815 N.pl3     1 RES1    0.0000
      5 N3         9.2795    4.9275    1.7447 N.2       1 RES1    0.0000
      6 N4        10.1671    6.5696    0.4789 N.2       1 RES1    0.0000
      7 N5         6.1455    2.5642    3.2738 N.3       1 RES1    0.0000
      8 N6         7.4354    2.8160    5.1089 N.2       1 RES1    0.0000
      9 C1         3.5849    6.8164    4.3023 C.ar      1 RES1    0.0000
     10 H1         3.0451    6.1144    4.5864 H         1 RES1    0.0000
     11 C2         3.1605    8.1051    4.4868 C.ar      1 RES1    0.0000
     12 C3         3.9838    9.1508    4.0215 C.ar      1 RES1    0.0000
     13 H2         3.7052   10.0303    4.1400 H         1 RES1    0.0000
     14 C4         5.1747    8.9142    3.4034 C.ar      1 RES1    0.0000
     15 H3         5.6898    9.6269    3.1006 H         1 RES1    0.0000
     16 C5         7.2588    6.1355    2.4972 C.ar      1 RES1    0.0000
     17 C6         6.5612    4.9832    2.9767 C.ar      1 RES1    0.0000
     18 C7         5.3376    5.2217    3.5391 C.ar      1 RES1    0.0000
     19 H4         4.8277    4.5016    3.8327 H         1 RES1    0.0000
     20 C8         4.8252    6.5282    3.6886 C.ar      1 RES1    0.0000
     21 C9         5.6299    7.5879    3.2208 C.ar      1 RES1    0.0000
     22 C10        1.8619    8.4226    5.1793 C.3       1 RES1    0.0000
     23 H5         1.3865    7.6075    5.3576 H         1 RES1    0.0000
     24 H6         1.3284    8.9873    4.6154 H         1 RES1    0.0000
     25 H7         2.0421    8.8752    6.0070 H         1 RES1    0.0000
     26 C11        9.0486    6.9939    1.0154 C.2       1 RES1    0.0000
     27 H8         8.6883    7.8415    0.8828 H         1 RES1    0.0000
     28 C12       10.2554    5.3048    0.9554 C.2       1 RES1    0.0000
     29 H9        10.9615    4.7411    0.7364 H         1 RES1    0.0000
     30 C13        7.1370    3.5802    2.9449 C.3       1 RES1    0.0000
     31 H10        7.5530    3.3932    2.0772 H         1 RES1    0.0000
     32 C14        6.3690    2.2936    4.6286 C.2       1 RES1    0.0000
     33 C15        5.4162    1.5079    5.4344 C.ar      1 RES1    0.0000
     34 C16        4.0625    1.5139    5.1335 C.ar      1 RES1    0.0000
     35 H11        3.7415    2.0693    4.4603 H         1 RES1    0.0000
     36 C17        3.1882    0.7023    5.8268 C.ar      1 RES1    0.0000
     37 H12        2.2818    0.7258    5.6214 H         1 RES1    0.0000
     38 C18        3.6373   -0.1472    6.8237 C.ar      1 RES1    0.0000
     39 C19        4.9770   -0.1117    7.1454 C.ar      1 RES1    0.0000
     40 H13        5.2923   -0.6562    7.8306 H         1 RES1    0.0000
     41 C20        5.8703    0.7146    6.4754 C.ar      1 RES1    0.0000
     42 H14        6.7662    0.7352    6.7231 H         1 RES1    0.0000
     43 C21        2.6860   -1.0808    7.5320 C.3       1 RES1    0.0000
     44 H15        3.1815   -1.7974    7.9349 H         1 RES1    0.0000
     45 H16        2.0604   -1.4417    6.8985 H         1 RES1    0.0000
     46 H17        2.2110   -0.5985    8.2118 H         1 RES1    0.0000
     47 C22        5.8821    1.5272    2.3237 C.ar      1 RES1    0.0000
     48 C23        5.9188    0.1774    2.6627 C.ar      1 RES1    0.0000
     49 H18        6.1225   -0.0745    3.5340 H         1 RES1    0.0000
     50 C24        5.6572   -0.7881    1.7161 C.ar      1 RES1    0.0000
     51 H19        5.6692   -1.6854    1.9598 H         1 RES1    0.0000
     52 C25        5.3754   -0.4388    0.4083 C.ar      1 RES1    0.0000
     53 C26        5.3592    0.9013    0.0539 C.ar      1 RES1    0.0000
     54 H20        5.1876    1.1488   -0.8263 H         1 RES1    0.0000
     55 C27        5.5981    1.8711    1.0172 C.ar      1 RES1    0.0000
     56 H21        5.5670    2.7693    0.7784 H         1 RES1    0.0000
     57 C28        4.7738   -1.1724   -1.7792 C.3       1 RES1    0.0000
     58 H22        3.9931   -0.6139   -1.7757 H         1 RES1    0.0000
     59 H23        4.5850   -1.9834   -2.2555 H         1 RES1    0.0000
     60 H24        5.4964   -0.7098   -2.2091 H         1 RES1    0.0000
@<TRIPOS>BOND
     1    1    8 1
     2    2   52 1
     3    3   16 ar
     4    4    5 1
     5    5   28 2
     6    6   26 2
     7    7   30 1
     8    8   32 2
     9    9   10 1
    10   11    9 ar
    11   12   11 ar
    12   13   12 1
    13   14   12 ar
    14   15   14 1
    15   16    4 1
    16   17   16 ar
    17   18   17 ar
    18   19   18 1
    19   20    9 ar
    20   21    3 ar
    21   22   11 1
    22   23   22 1
    23   24   22 1
    24   25   22 1
    25   26    4 1
    26   27   26 1
    27   28    6 1
    28   29   28 1
    29   30    1 1
    30   31   30 1
    31   32    7 1
    32   33   32 1
    33   34   33 ar
    34   35   34 1
    35   36   34 ar
    36   37   36 1
    37   38   36 ar
    38   39   38 ar
    39   40   39 1
    40   41   33 ar
    41   42   41 1
    42   43   38 1
    43   44   43 1
    44   45   43 1
    45   46   43 1
    46   47    7 1
    47   48   47 ar
    48   49   48 1
    49   50   48 ar
    50   51   50 1
    51   52   50 ar
    52   53   52 ar
    53   54   53 1
    54   55   47 ar
    55   56   55 1
    56   57    2 1
    57   58   57 1
    58   59   57 1
    59   60   57 1
    60   14   21 ar
    61   17   30 1
    62   18   20 ar
    63   20   21 ar
    64   39   41 ar
    65   53   55 ar
@<TRIPOS>SUBSTRUCTURE
     1 RES1 1

@<TRIPOS>CRYSIN
   7.0789   11.7228   15.4030  71.1930  80.5430  78.4910   2 1

