# MOL2 file generated by ConQuest
# Please check atom types

@<TRIPOS>MOLECULE
QUMYUU
    82    82     2
SMALL
NO_CHARGES
****
Generated from CSD

@<TRIPOS>ATOM
      1 O1        11.1292    9.9900   10.0491 O.2       1 RES1    0.0000
      2 N1         7.2875   12.2622    4.5121 N.am      1 RES1    0.0000
      3 H1         7.5687   11.5724    4.0824 H         1 RES1    0.0000
      4 O2         7.6711   15.3674    0.3917 O.3       1 RES1    0.0000
      5 O3         9.0936   10.6548   10.3417 O.2       1 RES1    0.0000
      6 O4        12.0138    8.1753    5.5606 O.2       1 RES1    0.0000
      7 O5        10.9093    8.9094    3.8955 O.2       1 RES1    0.0000
      8 O6         5.0610   11.0869    3.4591 O.2       1 RES1    0.0000
      9 O7         9.5377   14.1906    0.4483 O.2       1 RES1    0.0000
     10 O8         7.3873   13.4231    6.4689 O.2       1 RES1    0.0000
     11 N2        10.0439   10.3686    9.6369 N.pl3     1 RES1    0.0000
     12 N3        11.1625    8.8824    5.0773 N.pl3     1 RES1    0.0000
     13 O9         4.2875   13.0236    2.6784 O.3       1 RES1    0.0000
     14 C1         9.8583   10.4867    8.1603 C.ar      1 RES1    0.0000
     15 C2         8.9464   11.4094    7.6645 C.ar      1 RES1    0.0000
     16 H2         8.4621   11.9549    8.2414 H         1 RES1    0.0000
     17 C3         8.7721   11.5005    6.2764 C.ar      1 RES1    0.0000
     18 C4         7.7675   12.4965    5.7604 C.2       1 RES1    0.0000
     19 C5         6.3117   13.1369    3.8746 C.3       1 RES1    0.0000
     20 H3         5.9237   13.6862    4.5874 H         1 RES1    0.0000
     21 C6         6.9634   14.1097    2.8800 C.3       1 RES1    0.0000
     22 H4         6.2828   14.7065    2.5309 H         1 RES1    0.0000
     23 H5         7.6177   14.6500    3.3510 H         1 RES1    0.0000
     24 C7         7.6308   13.4256    1.7453 C.3       1 RES1    0.0000
     25 H6         6.9573   12.9662    1.2211 H         1 RES1    0.0000
     26 H7         8.2352   12.7544    2.0994 H         1 RES1    0.0000
     27 C8         8.4174   14.3587    0.8260 C.2       1 RES1    0.0000
     28 C9         8.2641   16.3056   -0.5600 C.3       1 RES1    0.0000
     29 H8         8.8860   16.8754   -0.1010 H         1 RES1    0.0000
     30 H9         7.5722   16.8408   -0.9548 H         1 RES1    0.0000
     31 H10        8.7231   15.8179   -1.2486 H         1 RES1    0.0000
     32 C10       10.5993    9.6358    7.3591 C.ar      1 RES1    0.0000
     33 H11       11.1923    9.0146    7.7150 H         1 RES1    0.0000
     34 C11       10.4066    9.7654    5.9939 C.ar      1 RES1    0.0000
     35 C12        9.5254   10.6792    5.4333 C.ar      1 RES1    0.0000
     36 H12        9.4361   10.7433    4.5109 H         1 RES1    0.0000
     37 C13        5.1704   12.2834    3.3146 C.2       1 RES1    0.0000
     38 C14        3.1077   12.3463    2.1612 C.3       1 RES1    0.0000
     39 H13        3.3573   11.7855    1.4230 H         1 RES1    0.0000
     40 H14        2.4683   12.9983    1.8637 H         1 RES1    0.0000
     41 H15        2.7170   11.8086    2.8553 H         1 RES1    0.0000
     42 O10        4.0983   12.3360    6.5478 O.2       2 RES2    0.0000
     43 O11        2.8808    5.5751    2.8840 O.3       2 RES2    0.0000
     44 O12        3.2531    7.1357    1.3214 O.2       2 RES2    0.0000
     45 O13        7.8919    7.3855    5.6931 O.2       2 RES2    0.0000
     46 O14        6.1041    9.0505   11.4550 O.2       2 RES2    0.0000
     47 O15        7.3059    7.5618   10.5268 O.2       2 RES2    0.0000
     48 O16        3.8820   12.4220    8.6928 O.2       2 RES2    0.0000
     49 O17        8.5742    8.3648    1.2908 O.3       2 RES2    0.0000
     50 O18        8.1415   10.1527    2.5584 O.2       2 RES2    0.0000
     51 N4         4.3392   11.9318    7.6719 N.pl3     2 RES2    0.0000
     52 N5         6.6384    8.6601    4.3282 N.am      2 RES2    0.0000
     53 H16        6.0796    9.3124    4.2814 H         2 RES2    0.0000
     54 N6         6.5850    8.5282   10.4788 N.pl3     2 RES2    0.0000
     55 C15        5.1941   10.7215    7.8099 C.ar      2 RES2    0.0000
     56 C16        5.6478   10.1042    6.6467 C.ar      2 RES2    0.0000
     57 H17        5.4069   10.4366    5.8115 H         2 RES2    0.0000
     58 C17        6.4650    8.9848    6.7458 C.ar      2 RES2    0.0000
     59 C18        7.0624    8.2625    5.5416 C.2       2 RES2    0.0000
     60 C19        7.0869    8.0315    3.0881 C.3       2 RES2    0.0000
     61 H18        7.5897    7.2191    3.3051 H         2 RES2    0.0000
     62 C20        5.8554    7.6465    2.2303 C.3       2 RES2    0.0000
     63 H19        5.3193    8.4384    2.0718 H         2 RES2    0.0000
     64 H20        6.1585    7.3141    1.3710 H         2 RES2    0.0000
     65 C21        4.9918    6.5864    2.8981 C.3       2 RES2    0.0000
     66 H21        5.4367    5.7265    2.8400 H         2 RES2    0.0000
     67 H22        4.8866    6.8046    3.8376 H         2 RES2    0.0000
     68 C22        3.6394    6.4889    2.2597 C.2       2 RES2    0.0000
     69 C23        1.5319    5.4134    2.3993 C.3       2 RES2    0.0000
     70 H23        1.2026    6.2579    2.0810 H         2 RES2    0.0000
     71 H24        0.9705    5.1002    3.1123 H         2 RES2    0.0000
     72 H25        1.5241    4.7755    1.6801 H         2 RES2    0.0000
     73 C24        6.7909    8.4743    8.0088 C.ar      2 RES2    0.0000
     74 H26        7.3400    7.7286    8.0914 H         2 RES2    0.0000
     75 C25        6.2741    9.1057    9.1368 C.ar      2 RES2    0.0000
     76 C26        5.4814   10.2467    9.0814 C.ar      2 RES2    0.0000
     77 H27        5.1634   10.6663    9.8480 H         2 RES2    0.0000
     78 C27        7.9908    8.9799    2.3142 C.2       2 RES2    0.0000
     79 C28        9.4650    9.1930    0.4783 C.3       2 RES2    0.0000
     80 H28        8.9771    9.9438    0.1316 H         2 RES2    0.0000
     81 H29        9.8092    8.6719   -0.2509 H         2 RES2    0.0000
     82 H30       10.1928    9.5049    1.0191 H         2 RES2    0.0000
@<TRIPOS>BOND
     1    1   11 2
     2    2    3 1
     3    4   27 1
     4    5   11 2
     5    6   12 2
     6    7   12 2
     7    8   37 2
     8    9   27 2
     9   10   18 2
    10   11   14 1
    11   12   34 1
    12   13   37 1
    13   14   15 ar
    14   15   16 1
    15   17   15 ar
    16   18    2 1
    17   19    2 1
    18   20   19 1
    19   21   19 1
    20   22   21 1
    21   23   21 1
    22   24   21 1
    23   25   24 1
    24   26   24 1
    25   27   24 1
    26   28    4 1
    27   29   28 1
    28   30   28 1
    29   31   28 1
    30   32   14 ar
    31   33   32 1
    32   34   32 ar
    33   35   17 ar
    34   36   35 1
    35   37   19 1
    36   38   13 1
    37   39   38 1
    38   40   38 1
    39   41   38 1
    40   42   51 2
    41   43   68 1
    42   44   68 2
    43   45   59 2
    44   46   54 2
    45   47   54 2
    46   48   51 2
    47   49   78 1
    48   50   78 2
    49   51   55 1
    50   52   53 1
    51   54   75 1
    52   55   56 ar
    53   56   57 1
    54   58   56 ar
    55   59   52 1
    56   60   52 1
    57   61   60 1
    58   62   60 1
    59   63   62 1
    60   64   62 1
    61   65   62 1
    62   66   65 1
    63   67   65 1
    64   68   65 1
    65   69   43 1
    66   70   69 1
    67   71   69 1
    68   72   69 1
    69   73   58 ar
    70   74   73 1
    71   75   73 ar
    72   76   55 ar
    73   77   76 1
    74   78   60 1
    75   79   49 1
    76   80   79 1
    77   81   79 1
    78   82   79 1
    79   17   18 1
    80   34   35 ar
    81   58   59 1
    82   75   76 ar
@<TRIPOS>SUBSTRUCTURE
     1 RES1 1
     2 RES2 42

@<TRIPOS>CRYSIN
   8.7590   12.8340   30.6030  90.0000  90.0000  90.0000  19 1

