# MOL2 file generated by ConQuest
# Please check atom types

@<TRIPOS>MOLECULE
QUNDIO02
    28    29     1
SMALL
NO_CHARGES
****
Generated from CSD

@<TRIPOS>ATOM
      1 N1        -2.1864   -1.7241    4.5332 N.pl3     1 RES1    0.0000
      2 C1        -1.4679    0.6015    4.7380 C.ar      1 RES1    0.0000
      3 H1        -2.0268    0.6936    5.4750 H         1 RES1    0.0000
      4 C2        -0.7023    1.6601    4.2918 C.ar      1 RES1    0.0000
      5 H2        -0.7389    2.4762    4.7356 H         1 RES1    0.0000
      6 C3         0.1136    1.5143    3.1942 C.ar      1 RES1    0.0000
      7 H3         0.6108    2.2396    2.8909 H         1 RES1    0.0000
      8 C4         0.2042    0.2877    2.5293 C.ar      1 RES1    0.0000
      9 C5        -0.5486   -0.7920    2.9739 C.ar      1 RES1    0.0000
     10 H4        -0.4944   -1.6201    2.5540 H         1 RES1    0.0000
     11 C6        -1.3790   -0.5975    4.0586 C.ar      1 RES1    0.0000
     12 C7         1.0861    0.2019    1.3216 C.2       1 RES1    0.0000
     13 O1         1.0846    1.1088    0.5106 O.2       1 RES1    0.0000
     14 C8         1.9988   -0.9714    1.1480 C.ar      1 RES1    0.0000
     15 C9         2.3546   -1.8037    2.1996 C.ar      1 RES1    0.0000
     16 H5         1.9798   -1.6700    3.0406 H         1 RES1    0.0000
     17 C10        3.2624   -2.8301    2.0091 C.ar      1 RES1    0.0000
     18 H6         3.4909   -3.3801    2.7235 H         1 RES1    0.0000
     19 C11        3.8337   -3.0458    0.7708 C.ar      1 RES1    0.0000
     20 H7         4.4435   -3.7356    0.6374 H         1 RES1    0.0000
     21 C12        3.4731   -2.2087   -0.2612 C.ar      1 RES1    0.0000
     22 C13        2.5765   -1.1719   -0.1049 C.ar      1 RES1    0.0000
     23 H8         2.3617   -0.6178   -0.8205 H         1 RES1    0.0000
     24 O2        -3.1053   -1.4944    5.3032 O.2       1 RES1    0.0000
     25 O3        -1.9028   -2.8439    4.1443 O.2       1 RES1    0.0000
     26 N2         4.0704   -2.4154   -1.5900 N.pl3     1 RES1    0.0000
     27 O4         3.8576   -1.5719   -2.4485 O.2       1 RES1    0.0000
     28 O5         4.7710   -3.4008   -1.7598 O.2       1 RES1    0.0000
@<TRIPOS>BOND
     1    1   11 1
     2    2    3 1
     3    4    2 ar
     4    5    4 1
     5    6    4 ar
     6    7    6 1
     7    8    6 ar
     8    9    8 ar
     9   10    9 1
    10   11    2 ar
    11   12    8 1
    12   13   12 2
    13   14   12 1
    14   15   14 ar
    15   16   15 1
    16   17   15 ar
    17   18   17 1
    18   19   17 ar
    19   20   19 1
    20   21   19 ar
    21   22   14 ar
    22   23   22 1
    23   24    1 2
    24   25    1 2
    25   26   21 1
    26   27   26 2
    27   28   26 2
    28    9   11 ar
    29   21   22 ar
@<TRIPOS>SUBSTRUCTURE
     1 RES1 1

@<TRIPOS>CRYSIN
   7.6180    8.0341   10.8056  74.3580  82.5160  68.6070   2 1

