# MOL2 file generated by ConQuest
# Please check atom types

@<TRIPOS>MOLECULE
QUNFAH
    50    54     1
SMALL
NO_CHARGES
****
Generated from CSD

@<TRIPOS>ATOM
      1 N1        15.2106    0.0130   15.1918 N.3       1 RES1    0.0000
      2 O1        14.0021   -0.2111   15.9754 O.3       1 RES1    0.0000
      3 O2        17.6715   -0.5347   17.8735 O.3       1 RES1    0.0000
      4 O3        17.8294    0.9576   19.6479 O.3       1 RES1    0.0000
      5 O4        19.9761    1.3850   16.9367 O.3       1 RES1    0.0000
      6 O5        18.4556    0.7872   15.3765 O.3       1 RES1    0.0000
      7 C1        17.4312   -0.0073   20.6056 C.3       1 RES1    0.0000
      8 H1        16.9862    0.4302   21.3355 H         1 RES1    0.0000
      9 H2        18.2057   -0.4696   20.9346 H         1 RES1    0.0000
     10 H3        16.8322   -0.6365   20.1967 H         1 RES1    0.0000
     11 C2        18.4789    0.3988   18.5431 C.3       1 RES1    0.0000
     12 H4        19.3251   -0.0124   18.8161 H         1 RES1    0.0000
     13 C3        18.7278    1.5188   17.5648 C.3       1 RES1    0.0000
     14 H5        18.6261    2.3979   17.9866 H         1 RES1    0.0000
     15 C4        17.6935    1.2980   16.4558 C.3       1 RES1    0.0000
     16 H6        17.2036    2.1139   16.2241 H         1 RES1    0.0000
     17 C5        16.8002    0.2144   17.0124 C.3       1 RES1    0.0000
     18 H7        16.0862    0.6220   17.5460 H         1 RES1    0.0000
     19 C6        19.8045    1.1207   15.5633 C.3       1 RES1    0.0000
     20 C7        20.1496    2.3305   14.7669 C.3       1 RES1    0.0000
     21 H8        21.0731    2.5513   14.9039 H         1 RES1    0.0000
     22 H9        19.5996    3.0666   15.0473 H         1 RES1    0.0000
     23 H10       19.9965    2.1553   13.8360 H         1 RES1    0.0000
     24 C8        20.6680   -0.0570   15.1707 C.3       1 RES1    0.0000
     25 H11       21.5935    0.1742   15.2823 H         1 RES1    0.0000
     26 H12       20.5027   -0.2830   14.2525 H         1 RES1    0.0000
     27 H13       20.4578   -0.8086   15.7282 H         1 RES1    0.0000
     28 C9        16.2030   -0.7299   16.0166 C.3       1 RES1    0.0000
     29 H14       16.9077   -1.0937   15.4413 H         1 RES1    0.0000
     30 C10       15.4046   -1.8793   16.6538 C.3       1 RES1    0.0000
     31 H15       15.7740   -2.7452   16.4211 H         1 RES1    0.0000
     32 H16       15.3617   -1.7945   17.6186 H         1 RES1    0.0000
     33 C11       14.0650   -1.6581   16.0162 C.3       1 RES1    0.0000
     34 H17       13.3218   -2.0745   16.5006 H         1 RES1    0.0000
     35 C12       14.1096   -2.0042   14.5507 C.3       1 RES1    0.0000
     36 H18       13.2188   -2.0516   14.1678 H         1 RES1    0.0000
     37 H19       14.5709   -2.8437   14.3959 H         1 RES1    0.0000
     38 C13       14.9061   -0.8058   13.9874 C.3       1 RES1    0.0000
     39 H20       15.7454   -1.1311   13.5993 H         1 RES1    0.0000
     40 C14       14.1457   -0.0469   12.9454 C.ar      1 RES1    0.0000
     41 C15       13.5382    1.1646   13.1863 C.ar      1 RES1    0.0000
     42 H21       13.6392    1.5748   14.0140 H         1 RES1    0.0000
     43 C16       12.7810    1.7748   12.2095 C.ar      1 RES1    0.0000
     44 H22       12.3626    2.5866   12.3880 H         1 RES1    0.0000
     45 C17       12.6412    1.1995   10.9885 C.ar      1 RES1    0.0000
     46 H23       12.1218    1.6100   10.3368 H         1 RES1    0.0000
     47 C18       13.2657    0.0156   10.7180 C.ar      1 RES1    0.0000
     48 H24       13.1922   -0.3701    9.8755 H         1 RES1    0.0000
     49 C19       14.0025   -0.6023   11.6957 C.ar      1 RES1    0.0000
     50 H25       14.4147   -1.4151   11.5101 H         1 RES1    0.0000
@<TRIPOS>BOND
     1    1    2 1
     2    2   33 1
     3    3   11 1
     4    4    7 1
     5    5   13 1
     6    6   15 1
     7    7    8 1
     8    9    7 1
     9   10    7 1
    10   11    4 1
    11   12   11 1
    12   13   11 1
    13   14   13 1
    14   15   13 1
    15   16   15 1
    16   17    3 1
    17   18   17 1
    18   19    5 1
    19   20   19 1
    20   21   20 1
    21   22   20 1
    22   23   20 1
    23   24   19 1
    24   25   24 1
    25   26   24 1
    26   27   24 1
    27   28    1 1
    28   29   28 1
    29   30   28 1
    30   31   30 1
    31   32   30 1
    32   33   30 1
    33   34   33 1
    34   35   33 1
    35   36   35 1
    36   37   35 1
    37   38    1 1
    38   39   38 1
    39   40   38 1
    40   41   40 ar
    41   42   41 1
    42   43   41 ar
    43   44   43 1
    44   45   43 ar
    45   46   45 1
    46   47   45 ar
    47   48   47 1
    48   49   40 ar
    49   50   49 1
    50    6   19 1
    51   15   17 1
    52   17   28 1
    53   35   38 1
    54   47   49 ar
@<TRIPOS>SUBSTRUCTURE
     1 RES1 1

@<TRIPOS>CRYSIN
  10.2044   10.3671   17.2799  90.0000  90.0000  90.0000  19 1

