# MOL2 file generated by ConQuest
# Please check atom types

@<TRIPOS>MOLECULE
QUNFEL
    50    54     1
SMALL
NO_CHARGES
****
Generated from CSD

@<TRIPOS>ATOM
      1 O1         6.0466    4.3857   10.0450 O.3       1 RES1    0.0000
      2 O2         0.6479    5.8759    7.5171 O.3       1 RES1    0.0000
      3 O3         4.8097    5.7515    7.7242 O.3       1 RES1    0.0000
      4 O4         5.5639    3.8634    6.5678 O.3       1 RES1    0.0000
      5 O5         3.8297    4.5796   10.4512 O.3       1 RES1    0.0000
      6 N1         1.2773    5.6022    8.8095 N.3       1 RES1    0.0000
      7 C1         3.9216    4.0803    9.1285 C.3       1 RES1    0.0000
      8 H1         3.3964    3.2612    9.0093 H         1 RES1    0.0000
      9 C2         0.9594    6.5931   11.0901 C.ar      1 RES1    0.0000
     10 C3         5.4187    3.8393    8.8960 C.3       1 RES1    0.0000
     11 H2         5.6322    2.8926    8.7627 H         1 RES1    0.0000
     12 C4         5.0828    4.4454   11.0971 C.3       1 RES1    0.0000
     13 C5         2.3777    7.3715    7.5868 C.3       1 RES1    0.0000
     14 H3         2.6875    8.2266    7.9240 H         1 RES1    0.0000
     15 H4         2.7956    7.1896    6.7304 H         1 RES1    0.0000
     16 C6         5.7470    4.6840    7.6904 C.3       1 RES1    0.0000
     17 H5         6.6663    5.0208    7.7342 H         1 RES1    0.0000
     18 C7         1.3307    7.7740   11.7055 C.ar      1 RES1    0.0000
     19 H6         1.2495    8.5782   11.2465 H         1 RES1    0.0000
     20 C8         0.4304    6.5006    9.6735 C.3       1 RES1    0.0000
     21 H7        -0.4525    6.0803    9.7323 H         1 RES1    0.0000
     22 C9         1.8260    7.7715   13.0070 C.ar      1 RES1    0.0000
     23 H8         2.0690    8.5749   13.4077 H         1 RES1    0.0000
     24 C10        2.6250    6.2312    8.6006 C.3       1 RES1    0.0000
     25 H9         2.9607    6.5971    9.4458 H         1 RES1    0.0000
     26 C11        0.8672    7.3131    7.5004 C.3       1 RES1    0.0000
     27 H10        0.4961    7.7629    6.7134 H         1 RES1    0.0000
     28 C12        0.2561    7.7686    8.8198 C.3       1 RES1    0.0000
     29 H11       -0.6796    8.0049    8.7171 H         1 RES1    0.0000
     30 H12        0.7383    8.5217    9.1953 H         1 RES1    0.0000
     31 C13        5.9045    4.5019    5.3447 C.3       1 RES1    0.0000
     32 H13        5.7629    3.8933    4.6147 H         1 RES1    0.0000
     33 H14        6.8280    4.7641    5.3661 H         1 RES1    0.0000
     34 H15        5.3540    5.2786    5.2257 H         1 RES1    0.0000
     35 C14        3.5495    5.1532    8.0989 C.3       1 RES1    0.0000
     36 H16        3.1492    4.7234    7.3149 H         1 RES1    0.0000
     37 C15        1.0633    5.4226   11.8247 C.ar      1 RES1    0.0000
     38 H17        0.7902    4.6204   11.4419 H         1 RES1    0.0000
     39 C16        1.9601    6.5983   13.7079 C.ar      1 RES1    0.0000
     40 H18        2.3120    6.5971   14.5690 H         1 RES1    0.0000
     41 C17        5.3481    5.6834   11.9053 C.3       1 RES1    0.0000
     42 H19        6.1970    5.6020   12.3451 H         1 RES1    0.0000
     43 H20        4.6559    5.7920   12.5615 H         1 RES1    0.0000
     44 H21        5.3607    6.4478   11.3243 H         1 RES1    0.0000
     45 C18        1.5595    5.4187   13.1057 C.ar      1 RES1    0.0000
     46 H22        1.6274    4.6171   13.5709 H         1 RES1    0.0000
     47 C19        5.1101    3.1874   11.9201 C.3       1 RES1    0.0000
     48 H23        5.9640    3.1063   12.3508 H         1 RES1    0.0000
     49 H24        4.9668    2.4290   11.3489 H         1 RES1    0.0000
     50 H25        4.4179    3.2239   12.5842 H         1 RES1    0.0000
@<TRIPOS>BOND
     1    1   10 1
     2    2    6 1
     3    3   16 1
     4    4   16 1
     5    5    7 1
     6    6   20 1
     7    7    8 1
     8    9   18 ar
     9   10    7 1
    10   11   10 1
    11   12    1 1
    12   13   14 1
    13   15   13 1
    14   16   10 1
    15   17   16 1
    16   18   19 1
    17   20    9 1
    18   21   20 1
    19   22   18 ar
    20   23   22 1
    21   24    6 1
    22   25   24 1
    23   26    2 1
    24   27   26 1
    25   28   20 1
    26   29   28 1
    27   30   28 1
    28   31    4 1
    29   32   31 1
    30   33   31 1
    31   34   31 1
    32   35    3 1
    33   36   35 1
    34   37    9 ar
    35   38   37 1
    36   39   22 ar
    37   40   39 1
    38   41   12 1
    39   42   41 1
    40   43   41 1
    41   44   41 1
    42   45   37 ar
    43   46   45 1
    44   47   12 1
    45   48   47 1
    46   49   47 1
    47   50   47 1
    48    5   12 1
    49    7   35 1
    50   13   24 1
    51   13   26 1
    52   24   35 1
    53   26   28 1
    54   39   45 ar
@<TRIPOS>SUBSTRUCTURE
     1 RES1 1

@<TRIPOS>CRYSIN
   8.3800   11.3080   18.9750  90.0000  90.0000  90.0000  19 1

