# MOL2 file generated by ConQuest
# Please check atom types

@<TRIPOS>MOLECULE
QUNRIC01
    39    34     2
SMALL
NO_CHARGES
****
Generated from CSD

@<TRIPOS>ATOM
      1 C1         0.6410    0.0715    6.8501 C.ar      1 RES1    0.0000
      2 C2         0.1161    0.4072    5.6182 C.ar      1 RES1    0.0000
      3 H1         0.3641   -0.0473    4.8456 H         1 RES1    0.0000
      4 C3        -0.7949    1.4474    5.5806 C.ar      1 RES1    0.0000
      5 C4        -1.1896    2.1615    6.7162 C.ar      1 RES1    0.0000
      6 C5        -0.6134    1.7794    7.9254 C.ar      1 RES1    0.0000
      7 H2        -0.8456    2.2369    8.7011 H         1 RES1    0.0000
      8 C6         0.2950    0.7365    8.0041 C.ar      1 RES1    0.0000
      9 H3         0.6637    0.4911    8.8214 H         1 RES1    0.0000
     10 C7        -1.8180    4.4319    5.7495 C.2       1 RES1    0.0000
     11 C8        -2.1570    3.3188    6.7216 C.3       1 RES1    0.0000
     12 H4        -2.0667    3.7217    7.6105 H         1 RES1    0.0000
     13 C9        -3.6019    2.8646    6.6401 C.2       1 RES1    0.0000
     14 C10       -4.1580    5.1439    5.9357 C.2       1 RES1    0.0000
     15 C11       -2.5105    6.6915    5.0499 C.3       1 RES1    0.0000
     16 H5        -3.3145    7.2133    4.9935 H         1 RES1    0.0000
     17 H6        -2.1230    6.6047    4.1760 H         1 RES1    0.0000
     18 H7        -1.8861    7.1268    5.6344 H         1 RES1    0.0000
     19 C12       -5.9346    3.6173    6.6027 C.3       1 RES1    0.0000
     20 H8        -6.4386    4.4086    6.3996 H         1 RES1    0.0000
     21 H9        -6.0853    3.3676    7.5178 H         1 RES1    0.0000
     22 H10       -6.2149    2.9026    6.0269 H         1 RES1    0.0000
     23 N1         1.6133   -1.0338    6.9287 N.pl3     1 RES1    0.0000
     24 N2        -1.3302    1.7850    4.2513 N.pl3     1 RES1    0.0000
     25 N3        -2.8285    5.3565    5.5791 N.am      1 RES1    0.0000
     26 N4        -4.5034    3.8813    6.3966 N.am      1 RES1    0.0000
     27 O1         2.2238   -1.1819    7.9765 O.2       1 RES1    0.0000
     28 O2         1.7538   -1.7421    5.9355 O.2       1 RES1    0.0000
     29 O3        -0.6814    1.4494    3.2819 O.2       1 RES1    0.0000
     30 O4        -2.4037    2.3834    4.1785 O.2       1 RES1    0.0000
     31 O5        -0.7335    4.5432    5.2260 O.2       1 RES1    0.0000
     32 O6        -3.9398    1.7264    6.8711 O.2       1 RES1    0.0000
     33 O7        -4.9860    6.0120    5.7817 O.2       1 RES1    0.0000
     34 H11       -1.5685    6.7499    4.8761 Du        2 SUP2    0.0000
     35 H12       -2.7593    7.3585    5.6936 Du        2 SUP2    0.0000
     36 H13       -2.9958    6.8364    4.2342 Du        2 SUP2    0.0000
     37 H14       -6.0537    2.7117    6.8966 Du        2 SUP2    0.0000
     38 H15       -6.4069    3.7510    5.7784 Du        2 SUP2    0.0000
     39 H16       -6.2782    4.2177    7.2693 Du        2 SUP2    0.0000
@<TRIPOS>BOND
     1    1    2 ar
     2    2    3 1
     3    4    2 ar
     4    5    4 ar
     5    6    5 ar
     6    7    6 1
     7    8    1 ar
     8    9    8 1
     9   10   11 1
    10   11    5 1
    11   12   11 1
    12   13   11 1
    13   14   25 1
    14   15   16 1
    15   17   15 1
    16   18   15 1
    17   19   20 1
    18   21   19 1
    19   22   19 1
    20   23    1 1
    21   24    4 1
    22   25   10 1
    23   26   13 1
    24   27   23 2
    25   28   23 2
    26   29   24 2
    27   30   24 2
    28   31   10 2
    29   32   13 2
    30   33   14 2
    31    6    8 ar
    32   14   26 1
    33   15   25 1
    34   19   26 1
@<TRIPOS>SUBSTRUCTURE
     1 RES1 1
     2 SUP2 34

@<TRIPOS>CRYSIN
   8.0585   16.3160   10.5320  90.0000 110.5670  90.0000  14 1

