# MOL2 file generated by ConQuest
# Please check atom types

@<TRIPOS>MOLECULE
QUQWUV
   150   153     3
SMALL
NO_CHARGES
****
Generated from CSD

@<TRIPOS>ATOM
      1 C1         1.3811    9.7032   18.2442 C.3       1 RES1    0.0000
      2 H1         2.1471    9.8540   18.8519 H         1 RES1    0.0000
      3 H2         0.6818    9.2101   18.7428 H         1 RES1    0.0000
      4 C2         0.8300   11.0415   17.7666 C.3       1 RES1    0.0000
      5 H3         0.0232   10.8543   17.2067 H         1 RES1    0.0000
      6 C3         1.8624   11.7442   16.8776 C.ar      1 RES1    0.0000
      7 C4         3.1457   12.0012   17.3402 C.ar      1 RES1    0.0000
      8 H4         3.3703   11.8006   18.2416 H         1 RES1    0.0000
      9 C5         4.1112   12.5551   16.4896 C.ar      1 RES1    0.0000
     10 H5         4.9877   12.7337   16.8087 H         1 RES1    0.0000
     11 C6         3.7742   12.8363   15.1841 C.ar      1 RES1    0.0000
     12 H6         4.4279   13.1909   14.5944 H         1 RES1    0.0000
     13 C7         2.5055   12.6105   14.7351 C.ar      1 RES1    0.0000
     14 H7         2.2711   12.8419   13.8455 H         1 RES1    0.0000
     15 C8         1.5680   12.0495   15.5618 C.ar      1 RES1    0.0000
     16 H8         0.6992   11.8677   15.2254 H         1 RES1    0.0000
     17 C9         0.3835   11.9359   18.9515 C.3       1 RES1    0.0000
     18 H9         1.2184   12.3119   19.3531 H         1 RES1    0.0000
     19 C10       -0.4571   13.1445   18.4801 C.3       1 RES1    0.0000
     20 H10        0.1482   13.7322   17.9408 H         1 RES1    0.0000
     21 C11       -1.6668   12.8195   17.6006 C.3       1 RES1    0.0000
     22 H11       -2.1220   13.6500   17.3512 H         1 RES1    0.0000
     23 H12       -2.2856   12.2429   18.0971 H         1 RES1    0.0000
     24 H13       -1.3665   12.3567   16.7910 H         1 RES1    0.0000
     25 C12       -0.9094   13.9617   19.7045 C.3       1 RES1    0.0000
     26 H14       -0.1143   14.3555   20.1433 H         1 RES1    0.0000
     27 H15       -1.4866   14.7064   19.4003 H         1 RES1    0.0000
     28 C13       -1.6726   13.1266   20.7194 C.3       1 RES1    0.0000
     29 H16       -2.4822   12.7449   20.2966 H         1 RES1    0.0000
     30 H17       -1.9583   13.6986   21.4759 H         1 RES1    0.0000
     31 C14       -0.7825   12.0019   21.2324 C.3       1 RES1    0.0000
     32 H18        0.0387   12.4463   21.5909 H         1 RES1    0.0000
     33 C15       -0.3060   11.1229   20.0648 C.3       1 RES1    0.0000
     34 H19        0.3719   10.4848   20.4293 H         1 RES1    0.0000
     35 C16       -1.3617   11.1757   22.4094 C.3       1 RES1    0.0000
     36 C17       -1.7578   12.0725   23.5684 C.3       1 RES1    0.0000
     37 H20       -2.1113   11.5243   24.3005 H         1 RES1    0.0000
     38 H21       -2.4454   12.7038   23.2715 H         1 RES1    0.0000
     39 H22       -0.9724   12.5676   23.8818 H         1 RES1    0.0000
     40 C18       -0.3574   10.1302   22.8967 C.3       1 RES1    0.0000
     41 H23       -0.1036    9.5479   22.1511 H         1 RES1    0.0000
     42 H24       -0.7661    9.5909   23.6076 H         1 RES1    0.0000
     43 H25        0.4397   10.5800   23.2449 H         1 RES1    0.0000
     44 N1         1.8198    8.9039   17.0690 N.pl3     1 RES1    0.0000
     45 O1         0.9850    8.5127   16.2721 O.2       1 RES1    0.0000
     46 O2         3.0091    8.7154   16.9024 O.2       1 RES1    0.0000
     47 O3        -1.3665   10.3383   19.4893 O.3       1 RES1    0.0000
     48 H26       -2.0871   10.5072   19.8868 H         1 RES1    0.0000
     49 O4        -2.5258   10.4940   21.9082 O.3       1 RES1    0.0000
     50 H27       -2.8522   10.0145   22.5167 H         1 RES1    0.0000
     51 C19        3.8933    9.5323   22.7375 C.3       2 RES2    0.0000
     52 H28        3.1040    9.4341   23.3275 H         2 RES2    0.0000
     53 H29        4.6255    9.9324   23.2715 H         2 RES2    0.0000
     54 C20        4.3262    8.1482   22.2340 C.3       2 RES2    0.0000
     55 H30        5.1098    8.2789   21.6263 H         2 RES2    0.0000
     56 C21        3.2076    7.5019   21.4143 C.ar      2 RES2    0.0000
     57 C22        3.4246    7.0747   20.1135 C.ar      2 RES2    0.0000
     58 H31        4.2807    7.1927   19.7216 H         2 RES2    0.0000
     59 C23        2.4086    6.4770   19.3743 C.ar      2 RES2    0.0000
     60 H32        2.5810    6.1644   18.4951 H         2 RES2    0.0000
     61 C24        1.1670    6.3405   19.9156 C.ar      2 RES2    0.0000
     62 H33        0.4687    5.9516   19.4032 H         2 RES2    0.0000
     63 C25        0.9181    6.7634   21.2000 C.ar      2 RES2    0.0000
     64 H34        0.0504    6.6664   21.5732 H         2 RES2    0.0000
     65 C26        1.9457    7.3373   21.9527 C.ar      2 RES2    0.0000
     66 H35        1.7752    7.6163   22.8440 H         2 RES2    0.0000
     67 C27        4.7805    7.2166   23.3959 C.3       2 RES2    0.0000
     68 H36        3.9398    6.8698   23.8110 H         2 RES2    0.0000
     69 C28        5.5223    5.9688   22.8395 C.3       2 RES2    0.0000
     70 H37        4.8589    5.4496   22.3015 H         2 RES2    0.0000
     71 C29        6.7087    6.2707   21.9146 C.3       2 RES2    0.0000
     72 H38        7.1116    5.4309   21.6145 H         2 RES2    0.0000
     73 H39        7.3770    6.7970   22.4017 H         2 RES2    0.0000
     74 H40        6.3959    6.7802   21.1369 H         2 RES2    0.0000
     75 C30        5.9601    5.0741   23.9959 C.3       2 RES2    0.0000
     76 H41        6.4705    4.3055   23.6400 H         2 RES2    0.0000
     77 H42        5.1582    4.7198   24.4567 H         2 RES2    0.0000
     78 C31        6.8279    5.8323   25.0054 C.3       2 RES2    0.0000
     79 H43        7.1261    5.2144   25.7186 H         2 RES2    0.0000
     80 H44        7.6307    6.1924   24.5511 H         2 RES2    0.0000
     81 C32        6.0240    6.9784   25.6166 C.3       2 RES2    0.0000
     82 H45        5.1930    6.5525   25.9751 H         2 RES2    0.0000
     83 C33        5.5407    7.9317   24.5219 C.3       2 RES2    0.0000
     84 H46        4.9267    8.6017   24.9373 H         2 RES2    0.0000
     85 C34        6.6690    7.6923   26.8334 C.3       2 RES2    0.0000
     86 C35        5.6269    8.4532   27.6056 C.3       2 RES2    0.0000
     87 H47        5.1659    9.0758   27.0071 H         2 RES2    0.0000
     88 H48        6.0579    8.9545   28.3279 H         2 RES2    0.0000
     89 H49        4.9780    7.8254   27.9859 H         2 RES2    0.0000
     90 C36        7.3944    6.7336   27.7677 C.3       2 RES2    0.0000
     91 H50        8.0704    6.2353   27.2636 H         2 RES2    0.0000
     92 H51        6.7494    6.1065   28.1569 H         2 RES2    0.0000
     93 H52        7.8293    7.2412   28.4842 H         2 RES2    0.0000
     94 N2         3.5515   10.4505   21.5915 N.pl3     2 RES2    0.0000
     95 O5         2.7147   11.3220   21.8144 O.2       2 RES2    0.0000
     96 O6         4.1035   10.3036   20.5192 O.2       2 RES2    0.0000
     97 O7         6.6642    8.6363   23.9593 O.3       2 RES2    0.0000
     98 H53        6.3940    9.1672   23.3658 H         2 RES2    0.0000
     99 O8         7.6559    8.6210   26.3310 O.3       2 RES2    0.0000
    100 H54        8.0036    9.0347   26.9746 H         2 RES2    0.0000
    101 C37        1.4266    9.2253   27.5145 C.3       3 RES3    0.0000
    102 H55        2.1220    9.1187   28.2100 H         3 RES3    0.0000
    103 H56        0.5830    8.8425   27.8650 H         3 RES3    0.0000
    104 C38        1.2251   10.7123   27.2226 C.3       3 RES3    0.0000
    105 H57        0.5046   10.8021   26.5353 H         3 RES3    0.0000
    106 C39        2.4900   11.3497   26.6715 C.ar      3 RES3    0.0000
    107 C40        2.5016   11.9248   25.4026 C.ar      3 RES3    0.0000
    108 H58        1.7210   11.8864   24.8607 H         3 RES3    0.0000
    109 C41        3.6502   12.5573   24.9187 C.ar      3 RES3    0.0000
    110 H59        3.6347   12.9800   24.0675 H         3 RES3    0.0000
    111 C42        4.8037   12.5683   25.6726 C.ar      3 RES3    0.0000
    112 H60        5.5921   12.9763   25.3324 H         3 RES3    0.0000
    113 C43        4.8124   11.9915   26.9130 C.ar      3 RES3    0.0000
    114 H61        5.6056   12.0058   27.4346 H         3 RES3    0.0000
    115 C44        3.6667   11.3853   27.4145 C.ar      3 RES3    0.0000
    116 H62        3.6870   10.9887   28.2778 H         3 RES3    0.0000
    117 C45        0.7622   11.4544   28.5163 C.3       3 RES3    0.0000
    118 H63        1.5360   11.4124   29.1476 H         3 RES3    0.0000
    119 C46        0.5123   12.9644   28.2510 C.3       3 RES3    0.0000
    120 H64        1.3849   13.3589   27.9623 H         3 RES3    0.0000
    121 C47       -0.5026   13.2701   27.1501 C.3       3 RES3    0.0000
    122 H65       -0.2266   12.8289   26.3201 H         3 RES3    0.0000
    123 H66       -0.5482   14.2379   27.0071 H         3 RES3    0.0000
    124 H67       -1.3849   12.9390   27.4169 H         3 RES3    0.0000
    125 C48        0.1375   13.6316   29.5604 C.3       3 RES3    0.0000
    126 H68       -0.0358   14.5925   29.3952 H         3 RES3    0.0000
    127 H69        0.9007   13.5642   30.1884 H         3 RES3    0.0000
    128 C49       -1.0973   13.0041   30.2075 C.3       3 RES3    0.0000
    129 H70       -1.8740   13.0958   29.6016 H         3 RES3    0.0000
    130 H71       -1.3075   13.4765   31.0522 H         3 RES3    0.0000
    131 C50       -0.8426   11.5206   30.4962 C.3       3 RES3    0.0000
    132 H72       -0.0630   11.4907   31.1200 H         3 RES3    0.0000
    133 C51       -0.4029   10.7720   29.2384 C.3       3 RES3    0.0000
    134 H73       -0.0891    9.8652   29.5220 H         3 RES3    0.0000
    135 C52       -2.0154   10.8336   31.2448 C.3       3 RES3    0.0000
    136 C53       -2.3651   11.5368   32.5479 C.3       3 RES3    0.0000
    137 H74       -2.5355   12.4855   32.3702 H         3 RES3    0.0000
    138 H75       -1.6174   11.4516   33.1751 H         3 RES3    0.0000
    139 H76       -3.1660   11.1268   32.9362 H         3 RES3    0.0000
    140 C54       -1.7413    9.3755   31.5269 C.3       3 RES3    0.0000
    141 H77       -1.5002    8.9209   30.6925 H         3 RES3    0.0000
    142 H78       -2.5442    8.9601   31.9043 H         3 RES3    0.0000
    143 H79       -1.0034    9.2997   32.1667 H         3 RES3    0.0000
    144 N3         1.8401    8.4705   26.2785 N.pl3     3 RES3    0.0000
    145 O9         1.4043    8.8072   25.1982 O.2       3 RES3    0.0000
    146 O10        2.5781    7.5077   26.4248 O.2       3 RES3    0.0000
    147 O11       -1.4886   10.5798   28.2985 O.3       3 RES3    0.0000
    148 H80       -2.1316   10.2030   28.6876 H         3 RES3    0.0000
    149 O12       -3.1563   10.9497   30.3458 O.3       3 RES3    0.0000
    150 H81       -3.8226   10.5725   30.6896 H         3 RES3    0.0000
@<TRIPOS>BOND
     1    1    2 1
     2    3    1 1
     3    4    1 1
     4    5    4 1
     5    6    4 1
     6    7    6 ar
     7    8    7 1
     8    9    7 ar
     9   10    9 1
    10   11    9 ar
    11   12   11 1
    12   13   11 ar
    13   14   13 1
    14   15    6 ar
    15   16   15 1
    16   17    4 1
    17   18   17 1
    18   19   17 1
    19   20   19 1
    20   21   19 1
    21   22   21 1
    22   23   21 1
    23   24   21 1
    24   25   19 1
    25   26   25 1
    26   27   25 1
    27   28   25 1
    28   29   28 1
    29   30   28 1
    30   31   28 1
    31   32   31 1
    32   33   17 1
    33   34   33 1
    34   35   31 1
    35   36   35 1
    36   37   36 1
    37   38   36 1
    38   39   36 1
    39   40   35 1
    40   41   40 1
    41   42   40 1
    42   43   40 1
    43   44    1 1
    44   45   44 2
    45   46   44 2
    46   47   33 1
    47   48   47 1
    48   49   35 1
    49   50   49 1
    50   51   52 1
    51   53   51 1
    52   54   51 1
    53   55   54 1
    54   56   54 1
    55   57   56 ar
    56   58   57 1
    57   59   57 ar
    58   60   59 1
    59   61   59 ar
    60   62   61 1
    61   63   61 ar
    62   64   63 1
    63   65   56 ar
    64   66   65 1
    65   67   54 1
    66   68   67 1
    67   69   67 1
    68   70   69 1
    69   71   69 1
    70   72   71 1
    71   73   71 1
    72   74   71 1
    73   75   69 1
    74   76   75 1
    75   77   75 1
    76   78   75 1
    77   79   78 1
    78   80   78 1
    79   81   78 1
    80   82   81 1
    81   83   67 1
    82   84   83 1
    83   85   81 1
    84   86   85 1
    85   87   86 1
    86   88   86 1
    87   89   86 1
    88   90   85 1
    89   91   90 1
    90   92   90 1
    91   93   90 1
    92   94   51 1
    93   95   94 2
    94   96   94 2
    95   97   83 1
    96   98   97 1
    97   99   85 1
    98  100   99 1
    99  101  102 1
   100  103  101 1
   101  104  101 1
   102  105  104 1
   103  106  104 1
   104  107  106 ar
   105  108  107 1
   106  109  107 ar
   107  110  109 1
   108  111  109 ar
   109  112  111 1
   110  113  111 ar
   111  114  113 1
   112  115  106 ar
   113  116  115 1
   114  117  104 1
   115  118  117 1
   116  119  117 1
   117  120  119 1
   118  121  119 1
   119  122  121 1
   120  123  121 1
   121  124  121 1
   122  125  119 1
   123  126  125 1
   124  127  125 1
   125  128  125 1
   126  129  128 1
   127  130  128 1
   128  131  128 1
   129  132  131 1
   130  133  117 1
   131  134  133 1
   132  135  131 1
   133  136  135 1
   134  137  136 1
   135  138  136 1
   136  139  136 1
   137  140  135 1
   138  141  140 1
   139  142  140 1
   140  143  140 1
   141  144  101 1
   142  145  144 2
   143  146  144 2
   144  147  133 1
   145  148  147 1
   146  149  135 1
   147  150  149 1
   148   13   15 ar
   149   31   33 1
   150   63   65 ar
   151   81   83 1
   152  113  115 ar
   153  131  133 1
@<TRIPOS>SUBSTRUCTURE
     1 RES1 1
     2 RES2 51
     3 RES3 101

@<TRIPOS>CRYSIN
   9.6849   18.6629   29.4837  90.0000  90.0000  90.0000  19 1

