# MOL2 file generated by ConQuest
# Please check atom types

@<TRIPOS>MOLECULE
QURVOO
    55    57     1
SMALL
NO_CHARGES
****
Generated from CSD

@<TRIPOS>ATOM
      1 O1         5.5297    7.7339    2.1102 O.2       1 RES1    0.0000
      2 O2         6.3502    8.7302    3.8432 O.2       1 RES1    0.0000
      3 O3         7.4782    3.9880    0.0003 O.2       1 RES1    0.0000
      4 O4         5.9452    3.0000    1.2827 O.3       1 RES1    0.0000
      5 O5         5.1273    5.7780    4.9682 O.3       1 RES1    0.0000
      6 N1         8.6916    5.2240    2.1717 N.3       1 RES1    0.0000
      7 H1         9.1966    4.9692    1.4570 H         1 RES1    0.0000
      8 N2         6.2844    7.7793    3.0751 N.pl3     1 RES1    0.0000
      9 C1         7.5307    4.3689    2.3915 C.3       1 RES1    0.0000
     10 H2         7.7896    3.6147    2.9963 H         1 RES1    0.0000
     11 C2         6.4901    5.2753    3.1237 C.3       1 RES1    0.0000
     12 H3         5.7154    5.4182    2.5080 H         1 RES1    0.0000
     13 C3         7.2405    6.6223    3.2713 C.3       1 RES1    0.0000
     14 C4         8.1980    6.5912    2.0528 C.3       1 RES1    0.0000
     15 H4         7.6544    6.6643    1.2155 H         1 RES1    0.0000
     16 C5         6.9862    3.7946    1.0812 C.2       1 RES1    0.0000
     17 C6         5.3851    2.3383    0.1221 C.3       1 RES1    0.0000
     18 H5         5.1219    3.0093   -0.5414 H         1 RES1    0.0000
     19 H6         4.5999    1.8179    0.3901 H         1 RES1    0.0000
     20 H7         6.0567    1.7397   -0.2680 H         1 RES1    0.0000
     21 C7         5.9475    4.7195    4.4438 C.3       1 RES1    0.0000
     22 H8         6.7085    4.5472    5.0690 H         1 RES1    0.0000
     23 C8         4.9080    5.6881    6.3737 C.3       1 RES1    0.0000
     24 H9         5.7701    5.7748    6.8525 H         1 RES1    0.0000
     25 H10        4.5187    4.8044    6.5951 H         1 RES1    0.0000
     26 C9         3.9707    6.7812    6.8127 C.ar      1 RES1    0.0000
     27 C10        3.6139    7.8205    5.9751 C.ar      1 RES1    0.0000
     28 H11        3.9973    7.8785    5.1089 H         1 RES1    0.0000
     29 C11        2.7009    8.7798    6.3883 C.ar      1 RES1    0.0000
     30 H12        2.4609    9.4878    5.8015 H         1 RES1    0.0000
     31 C12        2.1392    8.7109    7.6498 C.ar      1 RES1    0.0000
     32 H13        1.5013    9.3575    7.9247 H         1 RES1    0.0000
     33 C13        2.5130    7.6943    8.5038 C.ar      1 RES1    0.0000
     34 H14        2.1483    7.6523    9.3791 H         1 RES1    0.0000
     35 C14        3.4172    6.7383    8.0855 C.ar      1 RES1    0.0000
     36 H15        3.6651    6.0396    8.6784 H         1 RES1    0.0000
     37 C15        5.1343    3.4499    4.2747 C.3       1 RES1    0.0000
     38 H16        4.7747    3.1749    5.1434 H         1 RES1    0.0000
     39 H17        5.7070    2.7394    3.9172 H         1 RES1    0.0000
     40 H18        4.3952    3.6164    3.6518 H         1 RES1    0.0000
     41 C16        8.0001    6.8056    4.5839 C.3       1 RES1    0.0000
     42 H19        8.5277    7.6304    4.5436 H         1 RES1    0.0000
     43 H20        8.5976    6.0413    4.7240 H         1 RES1    0.0000
     44 H21        7.3618    6.8611    5.3265 H         1 RES1    0.0000
     45 C17        9.2639    7.6573    2.0311 C.ar      1 RES1    0.0000
     46 C18       10.5501    7.4244    2.5013 C.ar      1 RES1    0.0000
     47 H22       10.7873    6.5718    2.8477 H         1 RES1    0.0000
     48 C19       11.5039    8.4696    2.4615 C.ar      1 RES1    0.0000
     49 H23       12.3848    8.3166    2.7813 H         1 RES1    0.0000
     50 C20       11.1657    9.7014    1.9634 C.ar      1 RES1    0.0000
     51 H24       11.8160   10.3934    1.9374 H         1 RES1    0.0000
     52 C21        9.8927    9.9444    1.5008 C.ar      1 RES1    0.0000
     53 H25        9.6591   10.8029    1.1677 H         1 RES1    0.0000
     54 C22        8.9540    8.9236    1.5268 C.ar      1 RES1    0.0000
     55 H26        8.0796    9.0884    1.1943 H         1 RES1    0.0000
@<TRIPOS>BOND
     1    1    8 2
     2    2    8 2
     3    3   16 2
     4    4   16 1
     5    5   21 1
     6    6    7 1
     7    8   13 1
     8    9    6 1
     9   10    9 1
    10   11    9 1
    11   12   11 1
    12   13   11 1
    13   14    6 1
    14   15   14 1
    15   16    9 1
    16   17    4 1
    17   18   17 1
    18   19   17 1
    19   20   17 1
    20   21   11 1
    21   22   21 1
    22   23    5 1
    23   24   23 1
    24   25   23 1
    25   26   23 1
    26   27   26 ar
    27   28   27 1
    28   29   27 ar
    29   30   29 1
    30   31   29 ar
    31   32   31 1
    32   33   31 ar
    33   34   33 1
    34   35   26 ar
    35   36   35 1
    36   37   21 1
    37   38   37 1
    38   39   37 1
    39   40   37 1
    40   41   13 1
    41   42   41 1
    42   43   41 1
    43   44   41 1
    44   45   14 1
    45   46   45 ar
    46   47   46 1
    47   48   46 ar
    48   49   48 1
    49   50   48 ar
    50   51   50 1
    51   52   50 ar
    52   53   52 1
    53   54   45 ar
    54   55   54 1
    55   13   14 1
    56   33   35 ar
    57   52   54 ar
@<TRIPOS>SUBSTRUCTURE
     1 RES1 1

@<TRIPOS>CRYSIN
   9.2450    8.4082   26.6330  90.0000  94.8020  90.0000 231 1

