# MOL2 file generated by ConQuest
# Please check atom types

@<TRIPOS>MOLECULE
QURWAB
   104   104     3
SMALL
NO_CHARGES
****
Generated from CSD

@<TRIPOS>ATOM
      1 C1         9.2404    5.8765    4.2655 C.3       1 RES1    0.0000
      2 N1        10.5344    5.5445    4.9996 N.pl3     1 RES1    0.0000
      3 O1        10.5182    4.6461    5.8030 O.2       1 RES1    0.0000
      4 O2        11.5244    6.1776    4.7559 O.2       1 RES1    0.0000
      5 C2         8.8218    4.6024    3.5164 C.3       1 RES1    0.0000
      6 H1         9.4867    4.3728    2.8477 H         1 RES1    0.0000
      7 H2         8.7410    3.8610    4.1366 H         1 RES1    0.0000
      8 N2         7.5424    4.8646    2.8810 N.3       1 RES1    0.0000
      9 C3         7.6684    5.9371    1.9068 C.3       1 RES1    0.0000
     10 H3         6.8189    6.0871    1.4628 H         1 RES1    0.0000
     11 H4         8.3262    5.7006    1.2350 H         1 RES1    0.0000
     12 C4         8.1068    7.2082    2.6519 C.3       1 RES1    0.0000
     13 N3         8.2041    8.3113    1.6172 N.pl3     1 RES1    0.0000
     14 O3         7.2727    8.4733    0.8807 O.2       1 RES1    0.0000
     15 O4         9.1993    8.9682    1.5366 O.2       1 RES1    0.0000
     16 C5         7.0562    7.6325    3.7065 C.3       1 RES1    0.0000
     17 H5         6.7526    8.5349    3.5161 H         1 RES1    0.0000
     18 H6         6.2903    7.0402    3.6600 H         1 RES1    0.0000
     19 N4         7.6343    7.5817    5.0488 N.3       1 RES1    0.0000
     20 C6         8.1921    6.2644    5.3333 C.3       1 RES1    0.0000
     21 H7         7.4808    5.6061    5.3417 H         1 RES1    0.0000
     22 H8         8.6090    6.2710    6.2080 H         1 RES1    0.0000
     23 C7         9.4631    6.9995    3.2880 C.3       1 RES1    0.0000
     24 H9        10.1238    6.7530    2.6229 H         1 RES1    0.0000
     25 H10        9.7587    7.8025    3.7440 H         1 RES1    0.0000
     26 C8         6.7878    3.6563    2.4187 C.3       1 RES1    0.0000
     27 C9         5.4067    4.0926    1.9520 C.3       1 RES1    0.0000
     28 H11        5.4871    4.5924    1.1361 H         1 RES1    0.0000
     29 H12        5.0001    4.6421    2.6259 H         1 RES1    0.0000
     30 H13        4.8610    3.3174    1.7985 H         1 RES1    0.0000
     31 C10        7.5169    2.9268    1.2952 C.3       1 RES1    0.0000
     32 H14        7.6789    3.5360    0.5725 H         1 RES1    0.0000
     33 H15        6.9764    2.1973    0.9832 H         1 RES1    0.0000
     34 H16        8.3541    2.5889    1.6217 H         1 RES1    0.0000
     35 C11        6.5828    2.7330    3.6211 C.3       1 RES1    0.0000
     36 H17        7.4198    2.3295    3.8609 H         1 RES1    0.0000
     37 H18        5.9508    2.0473    3.3932 H         1 RES1    0.0000
     38 H19        6.2498    3.2428    4.3615 H         1 RES1    0.0000
     39 C12        6.7450    8.0947    6.1273 C.3       1 RES1    0.0000
     40 C13        6.3097    9.5099    5.7727 C.3       1 RES1    0.0000
     41 H20        5.6969    9.4810    5.0359 H         1 RES1    0.0000
     42 H21        7.0794   10.0296    5.5305 H         1 RES1    0.0000
     43 H22        5.8784    9.9114    6.5317 H         1 RES1    0.0000
     44 C14        7.5612    8.1871    7.4232 C.3       1 RES1    0.0000
     45 H23        8.3727    8.6731    7.2571 H         1 RES1    0.0000
     46 H24        7.7756    7.3026    7.7307 H         1 RES1    0.0000
     47 H25        7.0475    8.6433    8.0934 H         1 RES1    0.0000
     48 C15        5.5261    7.2122    6.3695 C.3       1 RES1    0.0000
     49 H26        5.0462    7.0969    5.5455 H         1 RES1    0.0000
     50 H27        4.9538    7.6276    7.0203 H         1 RES1    0.0000
     51 H28        5.8122    6.3555    6.6966 H         1 RES1    0.0000
     52 C16        1.1826    2.2947    2.6451 C.3       2 RES2    0.0000
     53 N5         1.1437    3.4476    1.6508 N.pl3     2 RES2    0.0000
     54 O5         2.1548    3.7119    1.0539 O.2       2 RES2    0.0000
     55 O6         0.0658    4.0598    1.5120 O.2       2 RES2    0.0000
     56 O7         0.6388    4.4364    1.9424 Du        3 SUP3    0.0000
     57 O8         1.7385    3.3661    0.5995 Du        3 SUP3    0.0000
     58 C17        1.5831   -1.9032    1.0746 C.3       2 RES2    0.0000
     59 H29        0.6735   -2.0830    1.3219 H         2 RES2    0.0000
     60 H30        2.0105   -2.7201    0.8063 H         2 RES2    0.0000
     61 H31        1.5979   -1.2800    0.3447 H         2 RES2    0.0000
     62 C18        1.5736    1.0405    1.8585 C.3       2 RES2    0.0000
     63 H32        0.9147    0.8616    1.1691 H         2 RES2    0.0000
     64 H33        2.4346    1.1717    1.4328 H         2 RES2    0.0000
     65 N6         1.6425   -0.0789    2.7835 N.3       2 RES2    0.0000
     66 C19        0.3452   -0.3101    3.4064 C.3       2 RES2    0.0000
     67 H34        0.3935   -1.0713    4.0047 H         2 RES2    0.0000
     68 H35       -0.3233   -0.4949    2.7278 H         2 RES2    0.0000
     69 C20       -0.0277    0.9561    4.1876 C.3       2 RES2    0.0000
     70 N7        -1.3527    0.6440    4.8779 N.pl3     2 RES2    0.0000
     71 O9        -1.3711   -0.2355    5.7125 O.2       2 RES2    0.0000
     72 O10       -2.3301    1.2443    4.5425 O.2       2 RES2    0.0000
     73 C21        1.0028    1.2800    5.2853 C.3       2 RES2    0.0000
     74 H36        0.5699    1.2641    6.1540 H         2 RES2    0.0000
     75 H37        1.7014    0.6082    5.2847 H         2 RES2    0.0000
     76 N8         1.5912    2.5996    5.0548 N.3       2 RES2    0.0000
     77 C22        2.2181    2.6436    3.7359 C.3       2 RES2    0.0000
     78 H38        2.9523    2.0105    3.7020 H         2 RES2    0.0000
     79 H39        2.5769    3.5300    3.5731 H         2 RES2    0.0000
     80 C23       -0.1957    2.1178    3.2446 C.3       2 RES2    0.0000
     81 H40       -0.4733    2.9159    3.7200 H         2 RES2    0.0000
     82 H41       -0.8501    1.9171    2.5569 H         2 RES2    0.0000
     83 C24        2.3205   -1.3128    2.2563 C.3       2 RES2    0.0000
     84 C25        2.4230   -2.3265    3.3878 C.3       2 RES2    0.0000
     85 H42        2.7105   -1.8843    4.1906 H         2 RES2    0.0000
     86 H43        3.0595   -3.0063    3.1534 H         2 RES2    0.0000
     87 H44        1.5650   -2.7300    3.5341 H         2 RES2    0.0000
     88 C26        3.7455   -0.9322    1.8507 C.3       2 RES2    0.0000
     89 H45        4.1441   -0.3985    2.5419 H         2 RES2    0.0000
     90 H46        3.7218   -0.4303    1.0342 H         2 RES2    0.0000
     91 H47        4.2657   -1.7292    1.7236 H         2 RES2    0.0000
     92 C27        2.4357    3.0908    6.1786 C.3       2 RES2    0.0000
     93 C28        1.5708    3.1832    7.4361 C.3       2 RES2    0.0000
     94 H48        0.7627    3.6612    7.2331 H         2 RES2    0.0000
     95 H49        2.0541    3.6463    8.1234 H         2 RES2    0.0000
     96 H50        1.3511    2.2987    7.7397 H         2 RES2    0.0000
     97 C29        2.9071    4.5070    5.8518 C.3       2 RES2    0.0000
     98 H51        2.1613    5.0297    5.5485 H         2 RES2    0.0000
     99 H52        3.5749    4.4712    5.1648 H         2 RES2    0.0000
    100 H53        3.2789    4.9105    6.6396 H         2 RES2    0.0000
    101 C30        3.6362    2.1874    6.4684 C.3       2 RES2    0.0000
    102 H54        4.1513    2.0711    5.6654 H         2 RES2    0.0000
    103 H55        3.3262    1.3317    6.7745 H         2 RES2    0.0000
    104 H56        4.1847    2.5909    7.1462 H         2 RES2    0.0000
@<TRIPOS>BOND
     1    1    2 1
     2    2    3 2
     3    4    2 2
     4    5    1 1
     5    6    5 1
     6    7    5 1
     7    8    5 1
     8    9    8 1
     9   10    9 1
    10   11    9 1
    11   12    9 1
    12   13   12 1
    13   14   13 2
    14   15   13 2
    15   16   12 1
    16   17   16 1
    17   18   16 1
    18   19   16 1
    19   20    1 1
    20   21   20 1
    21   22   20 1
    22   23    1 1
    23   24   23 1
    24   25   23 1
    25   26    8 1
    26   27   26 1
    27   28   27 1
    28   29   27 1
    29   30   27 1
    30   31   26 1
    31   32   31 1
    32   33   31 1
    33   34   31 1
    34   35   26 1
    35   36   35 1
    36   37   35 1
    37   38   35 1
    38   39   19 1
    39   40   39 1
    40   41   40 1
    41   42   40 1
    42   43   40 1
    43   44   39 1
    44   45   44 1
    45   46   44 1
    46   47   44 1
    47   48   39 1
    48   49   48 1
    49   50   48 1
    50   51   48 1
    51   52   53 1
    52   53   54 2
    53   55   53 2
    54   58   59 1
    55   60   58 1
    56   61   58 1
    57   62   52 1
    58   63   62 1
    59   64   62 1
    60   65   62 1
    61   66   65 1
    62   67   66 1
    63   68   66 1
    64   69   66 1
    65   70   69 1
    66   71   70 2
    67   72   70 2
    68   73   69 1
    69   74   73 1
    70   75   73 1
    71   76   73 1
    72   77   52 1
    73   78   77 1
    74   79   77 1
    75   80   52 1
    76   81   80 1
    77   82   80 1
    78   83   58 1
    79   84   83 1
    80   85   84 1
    81   86   84 1
    82   87   84 1
    83   88   83 1
    84   89   88 1
    85   90   88 1
    86   91   88 1
    87   92   76 1
    88   93   92 1
    89   94   93 1
    90   95   93 1
    91   96   93 1
    92   97   92 1
    93   98   97 1
    94   99   97 1
    95  100   97 1
    96  101   92 1
    97  102  101 1
    98  103  101 1
    99  104  101 1
   100   12   23 1
   101   19   20 1
   102   65   83 1
   103   69   80 1
   104   76   77 1
@<TRIPOS>SUBSTRUCTURE
     1 RES1 1
     2 RES2 52
     3 SUP3 56

@<TRIPOS>CRYSIN
  11.9782    9.9382   30.5174  90.0000 100.8120  90.0000 231 1

