# MOL2 file generated by ConQuest
# Please check atom types

@<TRIPOS>MOLECULE
QUSWAE
    50    51     1
SMALL
NO_CHARGES
****
Generated from CSD

@<TRIPOS>ATOM
      1 O1         2.5685    8.8466    5.6457 O.3       1 RES1    0.0000
      2 O2         0.4376    9.2450    7.6183 O.3       1 RES1    0.0000
      3 O3         0.6458    7.4586    9.8988 O.3       1 RES1    0.0000
      4 O4         2.3522    5.4267   10.7031 O.3       1 RES1    0.0000
      5 O5         4.6957    6.0711    8.9644 O.3       1 RES1    0.0000
      6 O6         4.6826    7.6370    6.4732 O.3       1 RES1    0.0000
      7 O7         1.9775    7.1023    0.8841 O.2       1 RES1    0.0000
      8 O8         4.0444    7.3457    0.2779 O.2       1 RES1    0.0000
      9 O9         4.8210    4.9212    1.3753 O.2       1 RES1    0.0000
     10 O10        6.6774    5.6784    2.1802 O.2       1 RES1    0.0000
     11 N1         3.1699    7.2109    1.1203 N.pl3     1 RES1    0.0000
     12 N2         5.4625    5.6670    2.0978 N.pl3     1 RES1    0.0000
     13 C1         3.2251    8.1260    4.7125 C.ar      1 RES1    0.0000
     14 C2         4.4034    7.4777    5.1633 C.ar      1 RES1    0.0000
     15 C3         5.1470    6.7161    4.2737 C.ar      1 RES1    0.0000
     16 H1         5.9244    6.2909    4.5574 H         1 RES1    0.0000
     17 C4         4.7233    6.5939    2.9610 C.ar      1 RES1    0.0000
     18 C5         3.5816    7.2316    2.5248 C.ar      1 RES1    0.0000
     19 C6         2.8179    7.9938    3.3977 C.ar      1 RES1    0.0000
     20 H2         2.0407    8.4111    3.1026 H         1 RES1    0.0000
     21 C7         1.2397    9.3012    5.2919 C.3       1 RES1    0.0000
     22 H3         0.6779    8.5422    5.0684 H         1 RES1    0.0000
     23 H4         1.2840    9.8862    4.5183 H         1 RES1    0.0000
     24 C8         0.6610   10.0398    6.4622 C.3       1 RES1    0.0000
     25 H5         1.2610   10.7645    6.6979 H         1 RES1    0.0000
     26 H6        -0.1827   10.4353    6.1921 H         1 RES1    0.0000
     27 C9         1.5567    9.1639    8.4920 C.3       1 RES1    0.0000
     28 H7         2.0133   10.0190    8.5178 H         1 RES1    0.0000
     29 H8         2.1796    8.4974    8.1632 H         1 RES1    0.0000
     30 C10        1.1065    8.7935    9.8706 C.3       1 RES1    0.0000
     31 H9         1.8447    8.8952   10.4914 H         1 RES1    0.0000
     32 H10        0.3940    9.3889   10.1499 H         1 RES1    0.0000
     33 C11        0.6076    6.9237   11.2165 C.3       1 RES1    0.0000
     34 H11       -0.0363    6.1985   11.2501 H         1 RES1    0.0000
     35 H12        0.3133    7.6120   11.8341 H         1 RES1    0.0000
     36 C12        1.9597    6.4099   11.6511 C.3       1 RES1    0.0000
     37 H13        2.6046    7.1341   11.6725 H         1 RES1    0.0000
     38 H14        1.9036    6.0199   12.5381 H         1 RES1    0.0000
     39 C13        3.6851    4.9609   10.8470 C.3       1 RES1    0.0000
     40 H15        3.7807    4.1365   10.3454 H         1 RES1    0.0000
     41 H16        3.8423    4.7552   11.7820 H         1 RES1    0.0000
     42 C14        4.7424    5.9329   10.3827 C.3       1 RES1    0.0000
     43 H17        4.5960    6.7970   10.7991 H         1 RES1    0.0000
     44 H18        5.6180    5.6133   10.6505 H         1 RES1    0.0000
     45 C15        5.7131    6.9532    8.5141 C.3       1 RES1    0.0000
     46 H19        6.5646    6.6958    8.9010 H         1 RES1    0.0000
     47 H20        5.5123    7.8584    8.7993 H         1 RES1    0.0000
     48 C16        5.8003    6.9023    7.0163 C.3       1 RES1    0.0000
     49 H21        6.6346    7.2978    6.7188 H         1 RES1    0.0000
     50 H22        5.7717    5.9812    6.7136 H         1 RES1    0.0000
@<TRIPOS>BOND
     1    1   13 1
     2    2   24 1
     3    3   30 1
     4    4   36 1
     5    5   42 1
     6    6   14 1
     7    7   11 2
     8    8   11 2
     9    9   12 2
    10   10   12 2
    11   11   18 1
    12   12   17 1
    13   13   14 ar
    14   14   15 ar
    15   15   16 1
    16   17   15 ar
    17   18   17 ar
    18   19   13 ar
    19   20   19 1
    20   21    1 1
    21   22   21 1
    22   23   21 1
    23   24   21 1
    24   25   24 1
    25   26   24 1
    26   27    2 1
    27   28   27 1
    28   29   27 1
    29   30   27 1
    30   31   30 1
    31   32   30 1
    32   33    3 1
    33   34   33 1
    34   35   33 1
    35   36   33 1
    36   37   36 1
    37   38   36 1
    38   39    4 1
    39   40   39 1
    40   41   39 1
    41   42   39 1
    42   43   42 1
    43   44   42 1
    44   45    5 1
    45   46   45 1
    46   47   45 1
    47   48    6 1
    48   49   48 1
    49   50   48 1
    50   18   19 ar
    51   45   48 1
@<TRIPOS>SUBSTRUCTURE
     1 RES1 1

@<TRIPOS>CRYSIN
   8.0696    8.8010   26.2340  90.0000  96.3681  90.0000 231 1

