# MOL2 file generated by ConQuest
# Please check atom types

@<TRIPOS>MOLECULE
QUSZOT
    49    52     1
SMALL
NO_CHARGES
****
Generated from CSD

@<TRIPOS>ATOM
      1 N1         3.2320   14.1099   10.5646 N.3       1 RES1    0.0000
      2 O1         3.1173   12.6746   10.4967 O.3       1 RES1    0.0000
      3 C1         1.7162   12.3735   10.6360 C.3       1 RES1    0.0000
      4 H1         1.2478   12.4889    9.7441 H         1 RES1    0.0000
      5 H2         1.7236   11.5058   10.8893 H         1 RES1    0.0000
      6 C2         1.2224   13.3161   11.6956 C.3       1 RES1    0.0000
      7 H3         0.3331   13.6187   11.4529 H         1 RES1    0.0000
      8 C3         1.2821   12.7750   13.1288 C.3       1 RES1    0.0000
      9 H4         1.5861   11.8543   13.1595 H         1 RES1    0.0000
     10 H5         0.3860   13.0152   13.5708 H         1 RES1    0.0000
     11 N2         2.3073   13.5914   13.7546 N.pl3     1 RES1    0.0000
     12 C4         2.8571   13.6483   15.0010 C.2       1 RES1    0.0000
     13 C5         3.7919   14.6388   14.9553 C.2       1 RES1    0.0000
     14 H6         4.4042   14.9309   15.6614 H         1 RES1    0.0000
     15 C6         3.7760   15.2117   13.6649 C.2       1 RES1    0.0000
     16 H7         4.2773   15.8887   13.2526 H         1 RES1    0.0000
     17 C7         2.8434   14.5307   12.9447 C.2       1 RES1    0.0000
     18 C8         2.2507   14.4751   11.5938 C.3       1 RES1    0.0000
     19 H8         1.8135   15.3520   11.3711 H         1 RES1    0.0000
     20 C9         2.9354   14.6888    9.2439 C.3       1 RES1    0.0000
     21 H9         2.0937   14.5291    9.0964 H         1 RES1    0.0000
     22 C10        3.8342   14.0668    8.2020 C.3       1 RES1    0.0000
     23 H10        3.6856   13.1190    8.1761 H         1 RES1    0.0000
     24 H11        4.7515   14.2414    8.4261 H         1 RES1    0.0000
     25 H12        3.6370   14.4446    7.3421 H         1 RES1    0.0000
     26 C11        3.1564   16.1882    9.3141 C.ar      1 RES1    0.0000
     27 C12        2.3300   17.0320    8.6126 C.ar      1 RES1    0.0000
     28 H13        1.6041   16.6835    8.1466 H         1 RES1    0.0000
     29 C13        2.5685   18.4009    8.5933 C.ar      1 RES1    0.0000
     30 H14        2.0001   18.9639    8.1193 H         1 RES1    0.0000
     31 C14        3.6317   18.9229    9.2675 C.ar      1 RES1    0.0000
     32 H15        3.8014   19.8372    9.2373 H         1 RES1    0.0000
     33 C15        4.4465   18.0950    9.9865 C.ar      1 RES1    0.0000
     34 H16        5.1581   18.4479   10.4689 H         1 RES1    0.0000
     35 C16        4.2128   16.7374    9.9954 C.ar      1 RES1    0.0000
     36 H17        4.7843   16.1808   10.4735 H         1 RES1    0.0000
     37 C17        2.4992   12.7053   16.1000 C.3       1 RES1    0.0000
     38 H18        1.5608   12.4726   16.0227 H         1 RES1    0.0000
     39 H19        2.6261   13.1516   16.9521 H         1 RES1    0.0000
     40 C18        3.3483   11.4006   16.0795 C.3       1 RES1    0.0000
     41 H20        3.2373   10.9750   15.2137 H         1 RES1    0.0000
     42 H21        4.2836   11.6408   16.1681 H         1 RES1    0.0000
     43 C19        3.0210   10.4249   17.1187 C.3       1 RES1    0.0000
     44 H22        2.1006   10.1417   17.0066 H         1 RES1    0.0000
     45 H23        3.0945   10.8534   17.9860 H         1 RES1    0.0000
     46 C20        3.9008    9.2299   17.0941 C.3       1 RES1    0.0000
     47 H24        3.6338    8.6220   17.7861 H         1 RES1    0.0000
     48 H25        4.8107    9.4997   17.2384 H         1 RES1    0.0000
     49 H26        3.8273    8.7954   16.2408 H         1 RES1    0.0000
@<TRIPOS>BOND
     1    1    2 1
     2    2    3 1
     3    3    4 1
     4    5    3 1
     5    6    3 1
     6    7    6 1
     7    8    6 1
     8    9    8 1
     9   10    8 1
    10   11    8 1
    11   12   11 1
    12   13   12 2
    13   14   13 1
    14   15   13 1
    15   16   15 1
    16   17   11 1
    17   18    1 1
    18   19   18 1
    19   20    1 1
    20   21   20 1
    21   22   20 1
    22   23   22 1
    23   24   22 1
    24   25   22 1
    25   26   20 1
    26   27   26 ar
    27   28   27 1
    28   29   27 ar
    29   30   29 1
    30   31   29 ar
    31   32   31 1
    32   33   31 ar
    33   34   33 1
    34   35   26 ar
    35   36   35 1
    36   37   12 1
    37   38   37 1
    38   39   37 1
    39   40   37 1
    40   41   40 1
    41   42   40 1
    42   43   40 1
    43   44   43 1
    44   45   43 1
    45   46   43 1
    46   47   46 1
    47   48   46 1
    48   49   46 1
    49    6   18 1
    50   15   17 2
    51   17   18 1
    52   33   35 ar
@<TRIPOS>SUBSTRUCTURE
     1 RES1 1

@<TRIPOS>CRYSIN
   5.2871   14.8271   22.7240  90.0000  90.0000  90.0000  19 1

