# MOL2 file generated by ConQuest
# Please check atom types

@<TRIPOS>MOLECULE
QUWLOL
    90    92     2
SMALL
NO_CHARGES
****
Generated from CSD

@<TRIPOS>ATOM
      1 N1         0.7694    7.6904    6.6065 N.3       1 RES1    0.0000
      2 N2         3.5093    7.3621    7.3287 N.3       1 RES1    0.0000
      3 H1         2.6840    6.9277    7.6566 H         1 RES1    0.0000
      4 O1         0.3284    8.3798    7.8074 O.3       1 RES1    0.0000
      5 H2         0.6382    7.9779    8.4980 H         1 RES1    0.0000
      6 C1         1.7544    8.5740    5.9392 C.3       1 RES1    0.0000
      7 H3         1.9950    8.1497    5.0670 H         1 RES1    0.0000
      8 C2         3.0282    8.6359    6.7882 C.3       1 RES1    0.0000
      9 H4         3.7492    9.0298    6.2369 H         1 RES1    0.0000
     10 H5         2.8657    9.2519    7.5460 H         1 RES1    0.0000
     11 C3         4.1028    6.4559    6.3331 C.3       1 RES1    0.0000
     12 H6         4.9284    6.8601    5.9637 H         1 RES1    0.0000
     13 H7         3.4665    6.3163    5.5882 H         1 RES1    0.0000
     14 C4         4.4288    5.1348    6.9759 C.ar      1 RES1    0.0000
     15 C5         5.7264    4.6873    7.0983 C.ar      1 RES1    0.0000
     16 H8         6.4378    5.2095    6.7448 H         1 RES1    0.0000
     17 C6         6.0072    3.4864    7.7288 C.ar      1 RES1    0.0000
     18 H9         6.9089    3.1924    7.7991 H         1 RES1    0.0000
     19 C7         4.9985    2.7164    8.2526 C.ar      1 RES1    0.0000
     20 H10        5.1974    1.8928    8.6824 H         1 RES1    0.0000
     21 C8         3.7014    3.1507    8.1475 C.ar      1 RES1    0.0000
     22 H11        2.9969    2.6313    8.5148 H         1 RES1    0.0000
     23 C9         3.4193    4.3437    7.5066 C.ar      1 RES1    0.0000
     24 H12        2.5167    4.6273    7.4286 H         1 RES1    0.0000
     25 C10       -0.4385    7.4778    5.7649 C.3       1 RES1    0.0000
     26 H13       -0.8056    8.3681    5.4944 H         1 RES1    0.0000
     27 C11       -0.0193    6.7194    4.5207 C.ar      1 RES1    0.0000
     28 C12       -0.2668    7.2260    3.2545 C.ar      1 RES1    0.0000
     29 H14       -0.6876    8.0729    3.1595 H         1 RES1    0.0000
     30 C13        0.0934    6.5064    2.1218 C.ar      1 RES1    0.0000
     31 H15       -0.0817    6.8665    1.2605 H         1 RES1    0.0000
     32 C14        0.6979    5.2854    2.2355 C.ar      1 RES1    0.0000
     33 H16        0.9460    4.8001    1.4566 H         1 RES1    0.0000
     34 C15        0.9454    4.7653    3.4812 C.ar      1 RES1    0.0000
     35 H17        1.3621    3.9163    3.5635 H         1 RES1    0.0000
     36 C16        0.5895    5.4725    4.6201 C.ar      1 RES1    0.0000
     37 H18        0.7621    5.1017    5.4776 H         1 RES1    0.0000
     38 C17        1.2703    9.9942    5.6402 C.3       1 RES1    0.0000
     39 H19        0.4546    9.9538    5.0988 H         1 RES1    0.0000
     40 H20        1.9650   10.4794    5.1491 H         1 RES1    0.0000
     41 H21        1.0805   10.4583    6.4816 H         1 RES1    0.0000
     42 C18       -1.5106    6.7129    6.5156 C.3       1 RES1    0.0000
     43 H22       -1.7742    7.2175    7.3130 H         1 RES1    0.0000
     44 H23       -1.1605    5.8383    6.7833 H         1 RES1    0.0000
     45 H24       -2.2909    6.5887    5.9352 H         1 RES1    0.0000
     46 N3         4.4797    7.4911   10.5927 N.3       2 RES2    0.0000
     47 N4         1.7354    7.1415   10.0395 N.3       2 RES2    0.0000
     48 H25        2.5521    6.6536    9.7501 H         2 RES2    0.0000
     49 O2         4.9162    8.3596    9.5219 O.3       2 RES2    0.0000
     50 H26        4.6393    8.0482    8.7695 H         2 RES2    0.0000
     51 C19        3.5370    8.2647   11.4146 C.3       2 RES2    0.0000
     52 H27        3.3419    7.7274   12.2358 H         2 RES2    0.0000
     53 C20        2.2276    8.3939   10.6255 C.3       2 RES2    0.0000
     54 H28        1.5303    8.7547   11.2284 H         2 RES2    0.0000
     55 H29        2.3631    9.0508    9.8976 H         2 RES2    0.0000
     56 C21        1.0663    6.2889   11.0332 C.3       2 RES2    0.0000
     57 H30        0.2385    6.7340   11.3441 H         2 RES2    0.0000
     58 H31        1.6619    6.1692   11.8151 H         2 RES2    0.0000
     59 C22        0.7230    4.9454   10.4582 C.ar      2 RES2    0.0000
     60 C23        0.9885    3.7934   11.1642 C.ar      2 RES2    0.0000
     61 H32        1.3948    3.8468   12.0212 H         2 RES2    0.0000
     62 C24        0.6654    2.5558   10.6295 C.ar      2 RES2    0.0000
     63 H33        0.8371    1.7694   11.1346 H         2 RES2    0.0000
     64 C25        0.1044    2.4487    9.3877 C.ar      2 RES2    0.0000
     65 H34       -0.1065    1.5967    9.0243 H         2 RES2    0.0000
     66 C26       -0.1480    3.5845    8.6819 C.ar      2 RES2    0.0000
     67 H35       -0.5308    3.5233    7.8141 H         2 RES2    0.0000
     68 C27        0.1454    4.8261    9.2134 C.ar      2 RES2    0.0000
     69 H36       -0.0536    5.6089    8.7125 H         2 RES2    0.0000
     70 C28        5.6996    7.0593   11.3124 C.3       2 RES2    0.0000
     71 H37        6.1918    7.8664   11.6374 H         2 RES2    0.0000
     72 C29        5.3018    6.2089   12.5004 C.ar      2 RES2    0.0000
     73 C30        5.7088    6.5546   13.7822 C.ar      2 RES2    0.0000
     74 H38        6.2478    7.3253   13.9136 H         2 RES2    0.0000
     75 C31        5.3314    5.7807   14.8755 C.ar      2 RES2    0.0000
     76 H39        5.6155    6.0284   15.7473 H         2 RES2    0.0000
     77 C32        4.5574    4.6659   14.7076 C.ar      2 RES2    0.0000
     78 H40        4.2879    4.1521   15.4607 H         2 RES2    0.0000
     79 C33        4.1715    4.2929   13.4367 C.ar      2 RES2    0.0000
     80 H41        3.6505    3.5087   13.3119 H         2 RES2    0.0000
     81 C34        4.5408    5.0565   12.3400 C.ar      2 RES2    0.0000
     82 H42        4.2705    4.7891   11.4698 H         2 RES2    0.0000
     83 C35        4.0189    9.6413   11.8705 C.3       2 RES2    0.0000
     84 H43        4.8548    9.5453   12.3732 H         2 RES2    0.0000
     85 H44        3.3385   10.0525   12.4436 H         2 RES2    0.0000
     86 H45        4.1728   10.2097   11.0876 H         2 RES2    0.0000
     87 C36        6.5858    6.2852   10.3612 C.3       2 RES2    0.0000
     88 H46        6.8333    6.8583    9.6042 H         2 RES2    0.0000
     89 H47        6.1025    5.4992   10.0317 H         2 RES2    0.0000
     90 H48        7.3973    5.9983   10.8312 H         2 RES2    0.0000
@<TRIPOS>BOND
     1    1    4 1
     2    2    3 1
     3    4    5 1
     4    6    1 1
     5    7    6 1
     6    8    2 1
     7    9    8 1
     8   10    8 1
     9   11    2 1
    10   12   11 1
    11   13   11 1
    12   14   11 1
    13   15   14 ar
    14   16   15 1
    15   17   15 ar
    16   18   17 1
    17   19   17 ar
    18   20   19 1
    19   21   19 ar
    20   22   21 1
    21   23   14 ar
    22   24   23 1
    23   25    1 1
    24   26   25 1
    25   27   25 1
    26   28   27 ar
    27   29   28 1
    28   30   28 ar
    29   31   30 1
    30   32   30 ar
    31   33   32 1
    32   34   32 ar
    33   35   34 1
    34   36   27 ar
    35   37   36 1
    36   38    6 1
    37   39   38 1
    38   40   38 1
    39   41   38 1
    40   42   25 1
    41   43   42 1
    42   44   42 1
    43   45   42 1
    44   46   49 1
    45   47   48 1
    46   49   50 1
    47   51   46 1
    48   52   51 1
    49   53   47 1
    50   54   53 1
    51   55   53 1
    52   56   47 1
    53   57   56 1
    54   58   56 1
    55   59   56 1
    56   60   59 ar
    57   61   60 1
    58   62   60 ar
    59   63   62 1
    60   64   62 ar
    61   65   64 1
    62   66   64 ar
    63   67   66 1
    64   68   59 ar
    65   69   68 1
    66   70   46 1
    67   71   70 1
    68   72   70 1
    69   73   72 ar
    70   74   73 1
    71   75   73 ar
    72   76   75 1
    73   77   75 ar
    74   78   77 1
    75   79   77 ar
    76   80   79 1
    77   81   72 ar
    78   82   81 1
    79   83   51 1
    80   84   83 1
    81   85   83 1
    82   86   83 1
    83   87   70 1
    84   88   87 1
    85   89   87 1
    86   90   87 1
    87    6    8 1
    88   21   23 ar
    89   34   36 ar
    90   51   53 1
    91   66   68 ar
    92   79   81 ar
@<TRIPOS>SUBSTRUCTURE
     1 RES1 1
     2 RES2 46

@<TRIPOS>CRYSIN
  21.3158    9.1395   17.5654  90.0000 107.4030  90.0000  14 1

