# MOL2 file generated by ConQuest
# Please check atom types

@<TRIPOS>MOLECULE
QUWROQ
    65    66     1
SMALL
NO_CHARGES
****
Generated from CSD

@<TRIPOS>ATOM
      1 O1         7.5078    6.2010    6.8950 O.2       1 RES1    0.0000
      2 O2         9.0344    4.7306    7.6532 O.3       1 RES1    0.0000
      3 O3         4.9127    3.2095    4.3909 O.3       1 RES1    0.0000
      4 O4         3.4445    4.3586    6.5375 O.2       1 RES1    0.0000
      5 O5         3.9402    5.3998    9.1078 O.2       1 RES1    0.0000
      6 O6         6.1409    5.1614    9.6483 O.3       1 RES1    0.0000
      7 N1         5.4537    4.3909    7.6944 N.am      1 RES1    0.0000
      8 N2         5.2115    3.7636    3.0662 N.3       1 RES1    0.0000
      9 C1         6.8389    3.9475    7.4580 C.3       1 RES1    0.0000
     10 H1         7.1406    3.3234    8.1790 H         1 RES1    0.0000
     11 C2         6.7346    3.2154    6.1070 C.3       1 RES1    0.0000
     12 H2         7.5760    3.2965    5.5913 H         1 RES1    0.0000
     13 H3         6.5256    2.2559    6.2353 H         1 RES1    0.0000
     14 C3         5.5830    3.9414    5.4043 C.3       1 RES1    0.0000
     15 H4         5.9224    4.8005    5.0200 H         1 RES1    0.0000
     16 C4         4.6391    4.2506    6.5681 C.2       1 RES1    0.0000
     17 C5         7.7957    5.1150    7.3199 C.2       1 RES1    0.0000
     18 C6        10.1155    5.6521    7.2949 C.3       1 RES1    0.0000
     19 H5        10.8980    5.4960    7.8815 H         1 RES1    0.0000
     20 H6         9.8150    6.5877    7.4201 H         1 RES1    0.0000
     21 C7        10.4982    5.4292    5.8717 C.3       1 RES1    0.0000
     22 H7        10.8467    4.5198    5.7654 H         1 RES1    0.0000
     23 H8        11.1883    6.0761    5.6133 H         1 RES1    0.0000
     24 H9         9.7114    5.5457    5.2989 H         1 RES1    0.0000
     25 C8         5.0587    5.0326    8.8717 C.2       1 RES1    0.0000
     26 C9         6.0834    5.9615   10.8915 C.3       1 RES1    0.0000
     27 C10        5.6549    7.3821   10.5565 C.3       1 RES1    0.0000
     28 H10        6.2136    7.7291    9.8304 H         1 RES1    0.0000
     29 H11        5.7595    7.9507   11.3482 H         1 RES1    0.0000
     30 H12        4.7160    7.3827   10.2749 H         1 RES1    0.0000
     31 C11        5.1715    5.2837   11.8923 C.3       1 RES1    0.0000
     32 H13        4.2382    5.4114   11.6220 H         1 RES1    0.0000
     33 H14        5.3113    5.6760   12.7798 H         1 RES1    0.0000
     34 H15        5.3745    4.3251   11.9229 H         1 RES1    0.0000
     35 C12        7.5327    5.9190   11.3563 C.3       1 RES1    0.0000
     36 H16        7.8149    4.9858   11.4614 H         1 RES1    0.0000
     37 H17        7.6145    6.3836   12.2153 H         1 RES1    0.0000
     38 H18        8.1022    6.3595   10.6907 H         1 RES1    0.0000
     39 C13        5.8033    2.6473    2.2563 C.3       1 RES1    0.0000
     40 C14        4.9938    1.3405    2.2051 C.3       1 RES1    0.0000
     41 H19        4.6795    1.1159    3.1050 H         1 RES1    0.0000
     42 H20        5.5621    0.6177    1.8677 H         1 RES1    0.0000
     43 H21        4.2244    1.4556    1.6091 H         1 RES1    0.0000
     44 C15        7.1708    2.3299    2.8715 C.3       1 RES1    0.0000
     45 H22        7.6609    3.1636    3.0255 H         1 RES1    0.0000
     46 H23        7.6806    1.7604    2.2581 H         1 RES1    0.0000
     47 H24        7.0449    1.8624    3.7236 H         1 RES1    0.0000
     48 C16        6.0331    3.2005    0.8433 C.3       1 RES1    0.0000
     49 H25        6.7369    3.8954    0.8823 H         1 RES1    0.0000
     50 H26        6.3637    2.4694    0.2637 H         1 RES1    0.0000
     51 C17        4.7839    3.7994    0.2158 C.3       1 RES1    0.0000
     52 H27        4.0960    3.0978    0.0963 H         1 RES1    0.0000
     53 H28        5.0003    4.1788   -0.6727 H         1 RES1    0.0000
     54 C18        4.2574    4.8921    1.1331 C.3       1 RES1    0.0000
     55 H29        3.4296    5.2678    0.7403 H         1 RES1    0.0000
     56 H30        4.9263    5.6209    1.1781 H         1 RES1    0.0000
     57 C19        3.9533    4.4139    2.5580 C.3       1 RES1    0.0000
     58 C20        3.7054    5.6566    3.4139 C.3       1 RES1    0.0000
     59 H31        3.4899    5.3846    4.3304 H         1 RES1    0.0000
     60 H32        2.9568    6.1674    3.0407 H         1 RES1    0.0000
     61 H33        4.5107    6.2158    3.4193 H         1 RES1    0.0000
     62 C21        2.6919    3.5362    2.6082 C.3       1 RES1    0.0000
     63 H34        2.7504    2.8413    1.9201 H         1 RES1    0.0000
     64 H35        1.9004    4.0915    2.4458 H         1 RES1    0.0000
     65 H36        2.6211    3.1166    3.4903 H         1 RES1    0.0000
@<TRIPOS>BOND
     1    1   17 2
     2    2   17 1
     3    3    8 1
     4    4   16 2
     5    5   25 2
     6    6   25 1
     7    7    9 1
     8    8   39 1
     9    9   10 1
    10   11    9 1
    11   12   11 1
    12   13   11 1
    13   14    3 1
    14   15   14 1
    15   16    7 1
    16   17    9 1
    17   18    2 1
    18   19   18 1
    19   20   18 1
    20   21   18 1
    21   22   21 1
    22   23   21 1
    23   24   21 1
    24   25    7 1
    25   26    6 1
    26   27   26 1
    27   28   27 1
    28   29   27 1
    29   30   27 1
    30   31   26 1
    31   32   31 1
    32   33   31 1
    33   34   31 1
    34   35   26 1
    35   36   35 1
    36   37   35 1
    37   38   35 1
    38   39   40 1
    39   40   41 1
    40   42   40 1
    41   43   40 1
    42   44   39 1
    43   45   44 1
    44   46   44 1
    45   47   44 1
    46   48   39 1
    47   49   48 1
    48   50   48 1
    49   51   48 1
    50   52   51 1
    51   53   51 1
    52   54   51 1
    53   55   54 1
    54   56   54 1
    55   57    8 1
    56   58   57 1
    57   59   58 1
    58   60   58 1
    59   61   58 1
    60   62   57 1
    61   63   62 1
    62   64   62 1
    63   65   62 1
    64   11   14 1
    65   14   16 1
    66   54   57 1
@<TRIPOS>SUBSTRUCTURE
     1 RES1 1

@<TRIPOS>CRYSIN
   9.8723   13.4279   16.9023  90.0000  90.0000  90.0000  19 1

