# MOL2 file generated by ConQuest
# Please check atom types

@<TRIPOS>MOLECULE
QUWWOW
   164   174     2
SMALL
NO_CHARGES
****
Generated from CSD

@<TRIPOS>ATOM
      1 O1        -2.5566    0.2665    1.3506 O.2       1 RES1    0.0000
      2 O2         0.3809   -4.0040   -2.2991 O.3       1 RES1    0.0000
      3 O3         2.2520    1.9289    3.6727 O.2       1 RES1    0.0000
      4 O4         2.3845    3.7208    2.3203 O.3       1 RES1    0.0000
      5 O5        -0.5301    4.4618    3.0394 O.2       1 RES1    0.0000
      6 O6        -0.5079    4.1349    0.8299 O.3       1 RES1    0.0000
      7 O7         5.8965    2.4413   -2.4119 O.2       1 RES1    0.0000
      8 O8         4.5296    3.3538   -3.8036 O.2       1 RES1    0.0000
      9 N1        -0.4142    1.5401    3.0066 N.3       1 RES1    0.0000
     10 H1        -0.8749    1.8004    3.7091 H         1 RES1    0.0000
     11 N2         0.5215    0.2520    1.3277 N.3       1 RES1    0.0000
     12 N3        -2.0917   -1.4192    2.8482 N.am      1 RES1    0.0000
     13 N4         4.7725    2.7709   -2.7553 N.pl3     1 RES1    0.0000
     14 C1        -1.8054   -0.2849    2.1448 C.2       1 RES1    0.0000
     15 C2        -0.3697    0.1788    2.5114 C.3       1 RES1    0.0000
     16 C3         0.0510   -0.9022    3.4851 C.ar      1 RES1    0.0000
     17 C4         1.2561   -1.1139    4.1155 C.ar      1 RES1    0.0000
     18 H2         1.9707   -0.4937    4.0276 H         1 RES1    0.0000
     19 C5         1.3986   -2.2671    4.8885 C.ar      1 RES1    0.0000
     20 H3         2.2268   -2.4415    5.3198 H         1 RES1    0.0000
     21 C6         0.3536   -3.1627    5.0361 C.ar      1 RES1    0.0000
     22 H4         0.4723   -3.9300    5.5835 H         1 RES1    0.0000
     23 C7        -0.8673   -2.9603    4.4008 C.ar      1 RES1    0.0000
     24 H5        -1.5868   -3.5739    4.4987 H         1 RES1    0.0000
     25 C8        -0.9857   -1.8218    3.6129 C.ar      1 RES1    0.0000
     26 C9        -3.3507   -2.1428    2.7586 C.3       1 RES1    0.0000
     27 H6        -3.9927   -1.6064    2.2294 H         1 RES1    0.0000
     28 H7        -3.7252   -2.2524    3.6676 H         1 RES1    0.0000
     29 C10       -3.2006   -3.4997    2.1216 C.ar      1 RES1    0.0000
     30 C11       -3.7496   -4.6325    2.7072 C.ar      1 RES1    0.0000
     31 H8        -4.2429   -4.5515    3.5150 H         1 RES1    0.0000
     32 C12       -3.5869   -5.8705    2.1316 C.ar      1 RES1    0.0000
     33 H9        -3.9504   -6.6393    2.5529 H         1 RES1    0.0000
     34 C13       -2.8897   -6.0007    0.9289 C.ar      1 RES1    0.0000
     35 H10       -2.7884   -6.8554    0.5258 H         1 RES1    0.0000
     36 C14       -2.3509   -4.8880    0.3318 C.ar      1 RES1    0.0000
     37 H11       -1.8790   -4.9690   -0.4893 H         1 RES1    0.0000
     38 C15       -2.4981   -3.6402    0.9322 C.ar      1 RES1    0.0000
     39 H12       -2.1132   -2.8738    0.5209 H         1 RES1    0.0000
     40 C16        0.4104   -0.8125    0.3633 C.ar      1 RES1    0.0000
     41 C17        1.0689   -2.0028    0.6287 C.ar      1 RES1    0.0000
     42 H13        1.5589   -2.0977    1.4365 H         1 RES1    0.0000
     43 C18        1.0205   -3.0512   -0.2671 C.ar      1 RES1    0.0000
     44 H14        1.4602   -3.8686   -0.0630 H         1 RES1    0.0000
     45 C19        0.3268   -2.9149   -1.4714 C.ar      1 RES1    0.0000
     46 C20       -0.3179   -1.7309   -1.7583 C.ar      1 RES1    0.0000
     47 H15       -0.7829   -1.6261   -2.5794 H         1 RES1    0.0000
     48 C21       -0.2857   -0.6868   -0.8360 C.ar      1 RES1    0.0000
     49 H16       -0.7447    0.1228   -1.0285 H         1 RES1    0.0000
     50 C22       -0.2935   -3.9227   -3.5631 C.3       1 RES1    0.0000
     51 H17        0.1187   -3.2202   -4.1088 H         1 RES1    0.0000
     52 H18       -1.2390   -3.7090   -3.4171 H         1 RES1    0.0000
     53 H19       -0.2216   -4.7824   -4.0276 H         1 RES1    0.0000
     54 C23        0.4355    1.6383    0.8277 C.3       1 RES1    0.0000
     55 H20       -0.4325    1.7685    0.3483 H         1 RES1    0.0000
     56 C24        0.4089    2.4207    2.1813 C.3       1 RES1    0.0000
     57 C25        1.8010    2.6319    2.8117 C.2       1 RES1    0.0000
     58 C26        3.7128    4.0553    2.8448 C.3       1 RES1    0.0000
     59 H21        4.4121    3.7384    2.2195 H         1 RES1    0.0000
     60 H22        3.8515    3.6107    3.7190 H         1 RES1    0.0000
     61 C27        3.8061    5.5143    3.0041 C.3       1 RES1    0.0000
     62 H23        3.7176    5.9442    2.1282 H         1 RES1    0.0000
     63 H24        4.6746    5.7452    3.3956 H         1 RES1    0.0000
     64 H25        3.0891    5.8238    3.5946 H         1 RES1    0.0000
     65 C28       -0.2593    3.7760    2.0884 C.2       1 RES1    0.0000
     66 C29       -1.0865    5.4456    0.5955 C.3       1 RES1    0.0000
     67 H26       -0.5573    6.1456    1.0533 H         1 RES1    0.0000
     68 H27       -2.0165    5.4775    0.9339 H         1 RES1    0.0000
     69 C30       -1.0586    5.6543   -0.9007 C.3       1 RES1    0.0000
     70 H28       -1.5148    4.9101   -1.3436 H         1 RES1    0.0000
     71 H29       -0.1291    5.6985   -1.2076 H         1 RES1    0.0000
     72 H30       -1.5148    6.4944   -1.1213 H         1 RES1    0.0000
     73 C31        1.5859    1.9390   -0.1145 C.ar      1 RES1    0.0000
     74 C32        1.3341    2.5860   -1.3171 C.ar      1 RES1    0.0000
     75 H31        0.4456    2.8419   -1.5360 H         1 RES1    0.0000
     76 C33        2.3674    2.8603   -2.2012 C.ar      1 RES1    0.0000
     77 H32        2.2002    3.2914   -3.0306 H         1 RES1    0.0000
     78 C34        3.6416    2.4880   -1.8396 C.ar      1 RES1    0.0000
     79 C35        3.9359    1.8552   -0.6536 C.ar      1 RES1    0.0000
     80 H33        4.8298    1.6285   -0.4263 H         1 RES1    0.0000
     81 C36        2.8798    1.5580    0.2040 C.ar      1 RES1    0.0000
     82 H34        3.0473    1.0906    1.0135 H         1 RES1    0.0000
     83 O9        -1.3115    8.5311   -8.6231 O.2       2 RES2    0.0000
     84 O10       -4.1874   11.3310  -13.8682 O.3       2 RES2    0.0000
     85 O11       -5.7110    6.5528   -6.0647 O.2       2 RES2    0.0000
     86 O12       -4.5962    4.7883   -6.9154 O.3       2 RES2    0.0000
     87 O13       -1.9391    5.4210   -8.1109 O.2       2 RES2    0.0000
     88 O14       -1.9885    6.2038   -6.0022 O.3       2 RES2    0.0000
     89 O15       -9.5292    4.3587  -10.8900 O.2       2 RES2    0.0000
     90 O16       -8.2186    2.6417  -10.6793 O.2       2 RES2    0.0000
     91 N5        -3.6950    8.2204   -6.8019 N.3       2 RES2    0.0000
     92 H35       -3.1182    8.2973   -6.1691 H         2 RES2    0.0000
     93 N6        -4.3244    8.5871   -8.9862 N.3       2 RES2    0.0000
     94 N7        -1.7750   10.7182   -8.0618 N.am      2 RES2    0.0000
     95 N8        -8.4474    3.8613  -10.6561 N.pl3     2 RES2    0.0000
     96 C37       -2.0790    9.4028   -8.2326 C.2       2 RES2    0.0000
     97 C38       -3.5715    9.1864   -7.8610 C.3       2 RES2    0.0000
     98 C39       -3.9720   10.5661   -7.4148 C.ar      2 RES2    0.0000
     99 C40       -5.1388   11.0107   -6.8293 C.ar      2 RES2    0.0000
    100 H36       -5.8883   10.4318   -6.7463 H         2 RES2    0.0000
    101 C41       -5.2005   12.3207   -6.3582 C.ar      2 RES2    0.0000
    102 H37       -6.0007   12.6400   -5.9584 H         2 RES2    0.0000
    103 C42       -4.1035   13.1592   -6.4660 C.ar      2 RES2    0.0000
    104 H38       -4.1599   14.0499   -6.1409 H         2 RES2    0.0000
    105 C43       -2.9128   12.7134   -7.0499 C.ar      2 RES2    0.0000
    106 H39       -2.1571   13.2835   -7.1229 H         2 RES2    0.0000
    107 C44       -2.8743   11.4143   -7.5160 C.ar      2 RES2    0.0000
    108 C45       -0.4451   11.2573   -8.2525 C.3       2 RES2    0.0000
    109 H40        0.2045   10.5104   -8.2525 H         2 RES2    0.0000
    110 H41       -0.2268   11.8466   -7.4878 H         2 RES2    0.0000
    111 C46       -0.2818   12.0438   -9.5315 C.ar      2 RES2    0.0000
    112 C47        0.5883   13.1229   -9.5829 C.ar      2 RES2    0.0000
    113 H42        1.0427   13.4039   -8.7966 H         2 RES2    0.0000
    114 C48        0.7966   13.7969  -10.7855 C.ar      2 RES2    0.0000
    115 H43        1.4005   14.5313  -10.8187 H         2 RES2    0.0000
    116 C49        0.1346   13.4088  -11.9218 C.ar      2 RES2    0.0000
    117 H44        0.2809   13.8730  -12.7379 H         2 RES2    0.0000
    118 C50       -0.7464   12.3403  -11.8853 C.ar      2 RES2    0.0000
    119 H45       -1.2136   12.0799  -12.6699 H         2 RES2    0.0000
    120 C51       -0.9418   11.6565  -10.6976 C.ar      2 RES2    0.0000
    121 H46       -1.5328   10.9132  -10.6777 H         2 RES2    0.0000
    122 C52       -4.2312    9.2346  -10.2630 C.ar      2 RES2    0.0000
    123 C53       -4.9180   10.4286  -10.4488 C.ar      2 RES2    0.0000
    124 H47       -5.4409   10.7806   -9.7388 H         2 RES2    0.0000
    125 C54       -4.8555   11.1075  -11.6415 C.ar      2 RES2    0.0000
    126 H48       -5.3143   11.9350  -11.7360 H         2 RES2    0.0000
    127 C55       -4.1244   10.5956  -12.7147 C.ar      2 RES2    0.0000
    128 C56       -3.4515    9.4083  -12.5554 C.ar      2 RES2    0.0000
    129 H49       -2.9571    9.0415  -13.2803 H         2 RES2    0.0000
    130 C57       -3.4906    8.7360  -11.3296 C.ar      2 RES2    0.0000
    131 H50       -3.0049    7.9264  -11.2234 H         2 RES2    0.0000
    132 C58       -3.5310   10.7879  -15.0038 C.3       2 RES2    0.0000
    133 H51       -3.7505   11.3234  -15.7951 H         2 RES2    0.0000
    134 H52       -3.8268    9.8644  -15.1415 H         2 RES2    0.0000
    135 H53       -2.5618   10.8027  -14.8579 H         2 RES2    0.0000
    136 C59       -4.0584    7.1387   -8.9393 C.3       2 RES2    0.0000
    137 H54       -3.2402    6.9414   -9.4800 H         2 RES2    0.0000
    138 C60       -3.7362    6.8984   -7.4231 C.3       2 RES2    0.0000
    139 C61       -4.8125    6.0653   -6.7065 C.2       2 RES2    0.0000
    140 C62       -5.5365    3.8077   -6.4063 C.3       2 RES2    0.0000
    141 H55       -6.3900    3.8563   -6.9056 H         2 RES2    0.0000
    142 H56       -5.7207    3.9693   -5.4475 H         2 RES2    0.0000
    143 C63       -4.9017    2.4828   -6.5937 C.3       2 RES2    0.0000
    144 H57       -4.7026    2.3482   -7.5442 H         2 RES2    0.0000
    145 H58       -5.5128    1.7808   -6.2852 H         2 RES2    0.0000
    146 H59       -4.0709    2.4440   -6.0762 H         2 RES2    0.0000
    147 C64       -2.4322    6.1078   -7.2539 C.2       2 RES2    0.0000
    148 C65       -0.8033    5.4284   -5.7063 C.3       2 RES2    0.0000
    149 H60       -0.0226    5.8066   -6.1840 H         2 RES2    0.0000
    150 H61       -0.9272    4.4925   -6.0049 H         2 RES2    0.0000
    151 C66       -0.5720    5.4677   -4.2399 C.3       2 RES2    0.0000
    152 H62        0.2449    4.9715   -4.0259 H         2 RES2    0.0000
    153 H63       -1.3334    5.0599   -3.7787 H         2 RES2    0.0000
    154 H64       -0.4735    6.3986   -3.9496 H         2 RES2    0.0000
    155 C67       -5.2184    6.3320   -9.4900 C.ar      2 RES2    0.0000
    156 C68       -6.5152    6.8272   -9.4933 C.ar      2 RES2    0.0000
    157 H65       -6.6810    7.7176   -9.2047 H         2 RES2    0.0000
    158 C69       -7.5704    6.0333   -9.9146 C.ar      2 RES2    0.0000
    159 H66       -8.4570    6.3740   -9.9345 H         2 RES2    0.0000
    160 C70       -7.3052    4.7350  -10.3078 C.ar      2 RES2    0.0000
    161 C71       -6.0237    4.2248  -10.3492 C.ar      2 RES2    0.0000
    162 H67       -5.8642    3.3356  -10.6429 H         2 RES2    0.0000
    163 C72       -4.9737    5.0415   -9.9511 C.ar      2 RES2    0.0000
    164 H68       -4.0815    4.7160   -9.9926 H         2 RES2    0.0000
@<TRIPOS>BOND
     1    1   14 2
     2    2   45 1
     3    3   57 2
     4    4   57 1
     5    5   65 2
     6    6   65 1
     7    7   13 2
     8    8   13 2
     9    9   10 1
    10   11   15 1
    11   12   14 1
    12   13   78 1
    13   14   15 1
    14   15    9 1
    15   16   15 1
    16   17   16 ar
    17   18   17 1
    18   19   17 ar
    19   20   19 1
    20   21   19 ar
    21   22   21 1
    22   23   21 ar
    23   24   23 1
    24   25   12 1
    25   26   12 1
    26   27   26 1
    27   28   26 1
    28   29   26 1
    29   30   29 ar
    30   31   30 1
    31   32   30 ar
    32   33   32 1
    33   34   32 ar
    34   35   34 1
    35   36   34 ar
    36   37   36 1
    37   38   29 ar
    38   39   38 1
    39   40   11 1
    40   41   40 ar
    41   42   41 1
    42   43   41 ar
    43   44   43 1
    44   45   43 ar
    45   46   45 ar
    46   47   46 1
    47   48   40 ar
    48   49   48 1
    49   50    2 1
    50   51   50 1
    51   52   50 1
    52   53   50 1
    53   54   11 1
    54   55   54 1
    55   56    9 1
    56   57   56 1
    57   58    4 1
    58   59   58 1
    59   60   58 1
    60   61   58 1
    61   62   61 1
    62   63   61 1
    63   64   61 1
    64   65   56 1
    65   66    6 1
    66   67   66 1
    67   68   66 1
    68   69   66 1
    69   70   69 1
    70   71   69 1
    71   72   69 1
    72   73   54 1
    73   74   73 ar
    74   75   74 1
    75   76   74 ar
    76   77   76 1
    77   78   76 ar
    78   79   78 ar
    79   80   79 1
    80   81   73 ar
    81   82   81 1
    82   83   96 2
    83   84  127 1
    84   85  139 2
    85   86  139 1
    86   87  147 2
    87   88  147 1
    88   89   95 2
    89   90   95 2
    90   91   92 1
    91   93   97 1
    92   94   96 1
    93   95  160 1
    94   96   97 1
    95   97   91 1
    96   98   97 1
    97   99   98 ar
    98  100   99 1
    99  101   99 ar
   100  102  101 1
   101  103  101 ar
   102  104  103 1
   103  105  103 ar
   104  106  105 1
   105  107   94 1
   106  108   94 1
   107  109  108 1
   108  110  108 1
   109  111  108 1
   110  112  111 ar
   111  113  112 1
   112  114  112 ar
   113  115  114 1
   114  116  114 ar
   115  117  116 1
   116  118  116 ar
   117  119  118 1
   118  120  111 ar
   119  121  120 1
   120  122   93 1
   121  123  122 ar
   122  124  123 1
   123  125  123 ar
   124  126  125 1
   125  127  125 ar
   126  128  127 ar
   127  129  128 1
   128  130  122 ar
   129  131  130 1
   130  132   84 1
   131  133  132 1
   132  134  132 1
   133  135  132 1
   134  136   93 1
   135  137  136 1
   136  138   91 1
   137  139  138 1
   138  140   86 1
   139  141  140 1
   140  142  140 1
   141  143  140 1
   142  144  143 1
   143  145  143 1
   144  146  143 1
   145  147  138 1
   146  148   88 1
   147  149  148 1
   148  150  148 1
   149  151  148 1
   150  152  151 1
   151  153  151 1
   152  154  151 1
   153  155  136 1
   154  156  155 ar
   155  157  156 1
   156  158  156 ar
   157  159  158 1
   158  160  158 ar
   159  161  160 ar
   160  162  161 1
   161  163  155 ar
   162  164  163 1
   163   16   25 ar
   164   23   25 ar
   165   36   38 ar
   166   46   48 ar
   167   54   56 1
   168   79   81 ar
   169   98  107 ar
   170  105  107 ar
   171  118  120 ar
   172  128  130 ar
   173  136  138 1
   174  161  163 ar
@<TRIPOS>SUBSTRUCTURE
     1 RES1 1
     2 RES2 83

@<TRIPOS>CRYSIN
   7.9612   24.5627   16.5897  90.0000  90.8230  90.0000   4 1

