# MOL2 file generated by ConQuest
# Please check atom types

@<TRIPOS>MOLECULE
QUXBUH
    60    60     2
SMALL
NO_CHARGES
****
Generated from CSD

@<TRIPOS>ATOM
      1 O1         4.8252    7.4393    5.9613 O.2       1 RES1    0.0000
      2 O2         5.2459    5.4989    5.0777 O.2       1 RES1    0.0000
      3 O3         0.9852    7.8182   11.7371 O.2       2 RES2    0.0000
      4 O4         0.7585    5.7690   12.4128 O.2       2 RES2    0.0000
      5 N1         4.3553    3.3228    6.2085 N.3       1 RES1    0.0000
      6 H1         4.7519    3.6668    5.5252 H         1 RES1    0.0000
      7 N2         2.0847    4.0488   10.3675 N.3       1 RES1    0.0000
      8 H2         1.8005    4.6364   10.9550 H         1 RES1    0.0000
      9 N3         4.7319    6.1919    5.9974 N.pl3     1 RES1    0.0000
     10 N4        -0.5748    5.2124   14.6140 N.3       2 RES2    0.0000
     11 H3        -0.0688    4.9366   13.9851 H         2 RES2    0.0000
     12 N5        -2.2307    9.0198   16.9398 N.3       2 RES2    0.0000
     13 H4        -2.5199    8.4606   17.5555 H         2 RES2    0.0000
     14 N6         0.5782    6.9973   12.5858 N.pl3     2 RES2    0.0000
     15 C1         3.8929    4.1661    7.1558 C.ar      1 RES1    0.0000
     16 C2         3.2246    3.6695    8.2868 C.ar      1 RES1    0.0000
     17 H5         3.1448    2.7328    8.3566 H         1 RES1    0.0000
     18 C3         2.7194    4.5189    9.2774 C.ar      1 RES1    0.0000
     19 C4         2.8819    5.9287    9.1433 C.ar      1 RES1    0.0000
     20 H6         2.5812    6.5359    9.8783 H         1 RES1    0.0000
     21 C5         3.5360    6.4218    8.0684 C.ar      1 RES1    0.0000
     22 H7         3.6529    7.3335    7.9805 H         1 RES1    0.0000
     23 C6         4.0560    5.5809    7.0569 C.ar      1 RES1    0.0000
     24 C7         4.1801    1.8817    6.2198 C.3       1 RES1    0.0000
     25 H8         3.2283    1.6770    6.2522 H         1 RES1    0.0000
     26 H9         4.6030    1.5091    7.0270 H         1 RES1    0.0000
     27 C8         4.8234    1.2910    4.9880 C.3       1 RES1    0.0000
     28 H10        4.4283    1.6371    4.1995 H         1 RES1    0.0000
     29 H11        5.7640    1.5091    4.9676 H         1 RES1    0.0000
     30 H12        4.6784    0.2980    4.9358 H         1 RES1    0.0000
     31 C9         1.8734    2.6484   10.6483 C.3       1 RES1    0.0000
     32 H13        2.7737    2.1849   10.7537 H         1 RES1    0.0000
     33 H14        1.4011    2.2059    9.8823 H         1 RES1    0.0000
     34 C10        1.0395    2.4920   11.9069 C.3       1 RES1    0.0000
     35 H15        1.5690    2.8398   12.6621 H         1 RES1    0.0000
     36 H16        0.8783    1.5112   12.0648 H         1 RES1    0.0000
     37 H17        0.1184    2.9426   11.7853 H         1 RES1    0.0000
     38 C11       -0.6792    6.5504   14.7023 C.ar      2 RES2    0.0000
     39 C12       -1.3783    7.1415   15.7608 C.ar      2 RES2    0.0000
     40 H18       -1.8237    6.5695   16.4139 H         2 RES2    0.0000
     41 C13       -1.5003    8.5150   15.9117 C.ar      2 RES2    0.0000
     42 C14       -0.8533    9.3864   14.9811 C.ar      2 RES2    0.0000
     43 H19       -0.8345   10.3391   15.0896 H         2 RES2    0.0000
     44 C15       -0.1886    8.8344   13.9222 C.ar      2 RES2    0.0000
     45 H20        0.2424    9.4072   13.3110 H         2 RES2    0.0000
     46 C16       -0.0980    7.4479   13.7323 C.ar      2 RES2    0.0000
     47 C17       -1.0039    4.3065   15.6732 C.3       2 RES2    0.0000
     48 H21       -0.5206    4.5168   16.5093 H         2 RES2    0.0000
     49 H22       -1.9601    4.4329   15.8418 H         2 RES2    0.0000
     50 C18       -0.7522    2.8763   15.2610 C.3       2 RES2    0.0000
     51 H23        0.1977    2.7495   15.0591 H         2 RES2    0.0000
     52 H24       -1.0023    2.2794   16.0060 H         2 RES2    0.0000
     53 H25       -1.2517    2.6341   14.4950 H         2 RES2    0.0000
     54 C19       -2.2299   10.4147   17.3336 C.3       2 RES2    0.0000
     55 H26       -1.3243   10.6582   17.5595 H         2 RES2    0.0000
     56 H27       -2.4835   10.9898   16.5742 H         2 RES2    0.0000
     57 C20       -3.1885   10.6420   18.4644 C.3       2 RES2    0.0000
     58 H28       -3.1618   11.5418   18.7183 H         2 RES2    0.0000
     59 H29       -2.9217   10.1041   19.1898 H         2 RES2    0.0000
     60 H30       -4.0807   10.4084   18.1965 H         2 RES2    0.0000
@<TRIPOS>BOND
     1    1    9 2
     2    2    9 2
     3    3   14 2
     4    4   14 2
     5    5    6 1
     6    7    8 1
     7    9   23 1
     8   10   11 1
     9   12   13 1
    10   14   46 1
    11   15    5 1
    12   16   15 ar
    13   17   16 1
    14   18    7 1
    15   19   18 ar
    16   20   19 1
    17   21   19 ar
    18   22   21 1
    19   23   15 ar
    20   24    5 1
    21   25   24 1
    22   26   24 1
    23   27   24 1
    24   28   27 1
    25   29   27 1
    26   30   27 1
    27   31    7 1
    28   32   31 1
    29   33   31 1
    30   34   31 1
    31   35   34 1
    32   36   34 1
    33   37   34 1
    34   38   10 1
    35   39   38 ar
    36   40   39 1
    37   41   12 1
    38   42   41 ar
    39   43   42 1
    40   44   42 ar
    41   45   44 1
    42   46   38 ar
    43   47   10 1
    44   48   47 1
    45   49   47 1
    46   50   47 1
    47   51   50 1
    48   52   50 1
    49   53   50 1
    50   54   12 1
    51   55   54 1
    52   56   54 1
    53   57   54 1
    54   58   57 1
    55   59   57 1
    56   60   57 1
    57   16   18 ar
    58   21   23 ar
    59   39   41 ar
    60   44   46 ar
@<TRIPOS>SUBSTRUCTURE
     1 RES1 1
     2 RES2 3

@<TRIPOS>CRYSIN
   7.8148   20.9889   13.2464  90.0000  91.2100  90.0000  14 1

