# MOL2 file generated by ConQuest
# Please check atom types

@<TRIPOS>MOLECULE
QUXCAO
    38    31     2
SMALL
NO_CHARGES
****
Generated from CSD

@<TRIPOS>ATOM
      1 O1         1.7276   -0.2817    3.8866 O.2       1 RES1    0.0000
      2 O2         0.6374    1.3101    4.8492 O.2       1 RES1    0.0000
      3 N1         3.9891    2.9224    9.9094 N.1       1 RES1    0.0000
      4 N2         1.5402    2.3590    7.0615 N.3       1 RES1    0.0000
      5 H1         0.9054    2.2476    6.4504 H         1 RES1    0.0000
      6 N3         1.6169    0.5463    4.8004 N.pl3     1 RES1    0.0000
      7 N4         5.8322    0.5590    8.4755 N.3       1 RES1    0.0000
      8 H2         5.8017    1.0362    9.2058 H         1 RES1    0.0000
      9 C1         3.6789    1.4459    7.8256 C.ar      1 RES1    0.0000
     10 C2         2.5705    1.5140    6.9156 C.ar      1 RES1    0.0000
     11 C3         2.6416    0.6217    5.7965 C.ar      1 RES1    0.0000
     12 C4         3.7076   -0.2661    5.6465 C.ar      1 RES1    0.0000
     13 H3         3.6860   -0.8562    4.9126 H         1 RES1    0.0000
     14 C5         4.7542   -0.3162    6.5225 C.ar      1 RES1    0.0000
     15 H4         5.4694   -0.9341    6.3868 H         1 RES1    0.0000
     16 C6         4.7751    0.5590    7.6351 C.ar      1 RES1    0.0000
     17 C7         3.7864    2.2943    8.9667 C.1       1 RES1    0.0000
     18 C8         1.2714    3.3491    8.0782 C.3       1 RES1    0.0000
     19 H5         2.0711    3.8239    8.3573 H         1 RES1    0.0000
     20 H6         0.6739    4.0477    7.6404 H         1 RES1    0.0000
     21 C9         0.5882    2.6801    9.2363 C.3       1 RES1    0.0000
     22 H7         1.1448    1.9995    9.6406 H         1 RES1    0.0000
     23 H8        -0.2202    2.2622    8.9513 H         1 RES1    0.0000
     24 H9         0.4007    3.4006    9.9185 H         1 RES1    0.0000
     25 C10        6.9708   -0.3488    8.3018 C.3       1 RES1    0.0000
     26 H10        7.3786   -0.2238    7.3371 H         1 RES1    0.0000
     27 H11        6.6407   -1.2649    8.4082 H         1 RES1    0.0000
     28 C11        8.0675   -0.0438    9.2900 C.3       1 RES1    0.0000
     29 H12        8.8439   -0.6130    9.1040 H         1 RES1    0.0000
     30 H13        8.3795    0.9000    9.1655 H         1 RES1    0.0000
     31 H14        7.7551   -0.1216   10.1858 H         1 RES1    0.0000
     32 C12        0.8412    2.4836    8.5631 Du        2 SUP2    0.0000
     33 C13        0.8187    3.9810    8.8155 Du        2 SUP2    0.0000
     34 H15       -0.0751    2.1090    8.5610 Du        2 SUP2    0.0000
     35 H16        1.3811    2.0151    9.2482 Du        2 SUP2    0.0000
     36 H17        0.4192    4.1586    9.6937 Du        2 SUP2    0.0000
     37 H18        0.2879    4.4218    8.1198 Du        2 SUP2    0.0000
     38 H19        1.7345    4.3289    8.7985 Du        2 SUP2    0.0000
@<TRIPOS>BOND
     1    1    6 2
     2    2    6 2
     3    3   17 3
     4    4    5 1
     5    6   11 1
     6    7    8 1
     7    9   10 ar
     8   10    4 1
     9   11   10 ar
    10   12   11 ar
    11   13   12 1
    12   14   12 ar
    13   15   14 1
    14   16    7 1
    15   17    9 1
    16   18    4 1
    17   19   18 1
    18   20   18 1
    19   21   18 1
    20   22   21 1
    21   23   21 1
    22   24   21 1
    23   25    7 1
    24   26   25 1
    25   27   25 1
    26   28   25 1
    27   29   28 1
    28   30   28 1
    29   31   28 1
    30    9   16 ar
    31   14   16 ar
@<TRIPOS>SUBSTRUCTURE
     1 RES1 1
     2 SUP2 32

@<TRIPOS>CRYSIN
  10.9880    4.8650   21.2200  90.0000  91.6200  90.0000  14 1

