# MOL2 file generated by ConQuest
# Please check atom types

@<TRIPOS>MOLECULE
QUXGAT
   105   106     1
SMALL
NO_CHARGES
****
Generated from CSD

@<TRIPOS>ATOM
      1 O1         7.1683    5.5984    5.7858 O.2       1 RES1    0.0000
      2 O2         4.3795    3.9146    2.9957 O.2       1 RES1    0.0000
      3 O3         8.5614    6.3773    2.8116 O.2       1 RES1    0.0000
      4 O4         5.9449    1.0171    4.4297 O.2       1 RES1    0.0000
      5 O5         9.4505    8.3179    2.0242 O.3       1 RES1    0.0000
      6 O6         0.7071    2.8150    5.8250 O.2       1 RES1    0.0000
      7 N1         6.2661    7.4649    4.8589 N.am      1 RES1    0.0000
      8 H1         6.4169    8.2512    4.5458 H         1 RES1    0.0000
      9 N2         6.0722    3.0180    5.4660 N.am      1 RES1    0.0000
     10 H2         6.4164    3.8043    5.4232 H         1 RES1    0.0000
     11 N3         6.6250    4.2086    2.9809 N.am      1 RES1    0.0000
     12 H3         7.2553    4.7908    2.9286 H         1 RES1    0.0000
     13 N4         8.9389    8.1575    4.1678 N.am      1 RES1    0.0000
     14 H4         9.0843    9.0050    4.1902 H         1 RES1    0.0000
     15 N5         1.7887    3.9536    4.2124 N.am      1 RES1    0.0000
     16 H5         2.5221    4.0574    3.7754 H         1 RES1    0.0000
     17 O7         3.8579    8.7092    0.5892 O.2       1 RES1    0.0000
     18 O8         2.2116    7.7189    1.5904 O.2       1 RES1    0.0000
     19 N6         3.3232    8.2465    1.5769 N.pl3     1 RES1    0.0000
     20 C1         7.2949    6.7509    5.3517 C.2       1 RES1    0.0000
     21 C2         5.3637    4.6453    2.8431 C.2       1 RES1    0.0000
     22 C3         6.2765    2.2040    4.4359 C.2       1 RES1    0.0000
     23 C4         8.9580    7.5112    2.9767 C.2       1 RES1    0.0000
     24 C5         5.3091    2.6842    6.6652 C.3       1 RES1    0.0000
     25 H6         5.2966    1.7107    6.7728 H         1 RES1    0.0000
     26 C6         7.0114    2.8103    3.2134 C.3       1 RES1    0.0000
     27 C7         4.2870    7.3731    7.2591 C.ar      1 RES1    0.0000
     28 C8         4.9017    6.9466    4.8405 C.3       1 RES1    0.0000
     29 H7         4.9417    6.0222    5.1651 H         1 RES1    0.0000
     30 C9         4.3167    6.8984    3.4145 C.3       1 RES1    0.0000
     31 H8         3.4515    6.4413    3.4619 H         1 RES1    0.0000
     32 C10        5.2215    6.0982    2.4480 C.3       1 RES1    0.0000
     33 H9         4.8483    6.1464    1.5541 H         1 RES1    0.0000
     34 H10        6.1002    6.5071    2.4258 H         1 RES1    0.0000
     35 C11        8.6741    7.4426    5.4134 C.3       1 RES1    0.0000
     36 C12        7.3024    2.6676    8.2548 C.ar      1 RES1    0.0000
     37 C13        8.4865    3.0190    7.6102 C.ar      1 RES1    0.0000
     38 H11        8.4706    3.6699    6.9467 H         1 RES1    0.0000
     39 C14        1.7465    3.0431    5.1917 C.2       1 RES1    0.0000
     40 C15        9.6845    2.4116    7.9427 C.ar      1 RES1    0.0000
     41 H12       10.4672    2.6620    7.5068 H         1 RES1    0.0000
     42 C16        6.7382    1.9573    1.9787 C.3       1 RES1    0.0000
     43 H13        5.7941    1.9378    1.8065 H         1 RES1    0.0000
     44 H14        7.0547    1.0635    2.1295 H         1 RES1    0.0000
     45 H15        7.1949    2.3347    1.2234 H         1 RES1    0.0000
     46 C17        9.7537    6.4134    5.6965 C.3       1 RES1    0.0000
     47 H16        9.7527    5.7496    5.0026 H         1 RES1    0.0000
     48 H17        9.5815    5.9934    6.5434 H         1 RES1    0.0000
     49 H18       10.6103    6.8474    5.7233 H         1 RES1    0.0000
     50 C18        3.9990    7.7310    5.8218 C.3       1 RES1    0.0000
     51 H19        4.1406    8.6823    5.6946 H         1 RES1    0.0000
     52 H20        3.0698    7.5372    5.6239 H         1 RES1    0.0000
     53 C19        8.6412    8.4830    6.5344 C.3       1 RES1    0.0000
     54 H21        9.5002    8.9039    6.6065 H         1 RES1    0.0000
     55 H22        8.4259    8.0518    7.3654 H         1 RES1    0.0000
     56 H23        7.9753    9.1450    6.3369 H         1 RES1    0.0000
     57 C20        5.3444    7.9693    7.9427 C.ar      1 RES1    0.0000
     58 H24        5.8425    8.6406    7.5336 H         1 RES1    0.0000
     59 C21        3.0502    2.3597    5.4987 C.3       1 RES1    0.0000
     60 H25        3.5578    2.2475    4.6796 H         1 RES1    0.0000
     61 H26        2.8753    1.4798    5.8686 H         1 RES1    0.0000
     62 C22        9.5101    7.8627    0.6178 C.3       1 RES1    0.0000
     63 C23        3.8735    3.1868    6.5067 C.3       1 RES1    0.0000
     64 H27        3.8925    4.1112    6.2146 H         1 RES1    0.0000
     65 H28        3.4334    3.1590    7.3711 H         1 RES1    0.0000
     66 C24        5.9787    3.3129    7.8972 C.3       1 RES1    0.0000
     67 H29        5.3775    3.2378    8.6538 H         1 RES1    0.0000
     68 H30        6.1251    4.2568    7.7286 H         1 RES1    0.0000
     69 C25        8.5504    1.0774    9.5752 C.ar      1 RES1    0.0000
     70 H31        8.5671    0.4293   10.2404 H         1 RES1    0.0000
     71 C26        7.3597    1.6838    9.2376 C.ar      1 RES1    0.0000
     72 H32        6.5802    1.4307    9.6746 H         1 RES1    0.0000
     73 C27        4.0710    8.3114    2.8674 C.3       1 RES1    0.0000
     74 H33        3.5598    8.8251    3.5135 H         1 RES1    0.0000
     75 H34        4.9193    8.7593    2.7298 H         1 RES1    0.0000
     76 C28        8.5128    2.8233    3.5326 C.3       1 RES1    0.0000
     77 H35        8.9983    3.1571    2.7756 H         1 RES1    0.0000
     78 H36        8.8045    1.9314    3.7333 H         1 RES1    0.0000
     79 H37        8.6729    3.3898    4.2915 H         1 RES1    0.0000
     80 C29        3.5318    6.4125    7.9216 C.ar      1 RES1    0.0000
     81 H38        2.8033    6.0249    7.4915 H         1 RES1    0.0000
     82 C30        9.7236    1.4297    8.9271 C.ar      1 RES1    0.0000
     83 H39       10.5271    1.0144    9.1451 H         1 RES1    0.0000
     84 C31        5.6571    7.5613    9.2387 C.ar      1 RES1    0.0000
     85 H40        6.3655    7.9572    9.6918 H         1 RES1    0.0000
     86 C32        3.8487    6.0259    9.2062 C.ar      1 RES1    0.0000
     87 H41        3.3286    5.3861    9.6363 H         1 RES1    0.0000
     88 C33        8.1130    7.5409    0.1191 C.3       1 RES1    0.0000
     89 H42        7.8129    6.7203    0.5161 H         1 RES1    0.0000
     90 H43        8.1276    7.4482   -0.8354 H         1 RES1    0.0000
     91 H44        7.5152    8.2521    0.3613 H         1 RES1    0.0000
     92 C34        4.9177    6.5711    9.8543 C.ar      1 RES1    0.0000
     93 H45        5.1469    6.2781   10.7068 H         1 RES1    0.0000
     94 C35       10.4776    6.7055    0.4855 C.3       1 RES1    0.0000
     95 H46       11.3179    6.9438    0.8851 H         1 RES1    0.0000
     96 H47       10.6112    6.5062   -0.4454 H         1 RES1    0.0000
     97 H48       10.1181    5.9350    0.9290 H         1 RES1    0.0000
     98 C36        0.6337    4.7788    3.8557 C.3       1 RES1    0.0000
     99 H49       -0.0238    4.2354    3.4160 H         1 RES1    0.0000
    100 H50        0.9143    5.4816    3.2650 H         1 RES1    0.0000
    101 H51        0.2552    5.1608    4.6509 H         1 RES1    0.0000
    102 C37       10.0297    9.1190   -0.0746 C.3       1 RES1    0.0000
    103 H52        9.4097    9.8394    0.0612 H         1 RES1    0.0000
    104 H53       10.1233    8.9512   -1.0151 H         1 RES1    0.0000
    105 H54       10.8838    9.3573    0.2944 H         1 RES1    0.0000
@<TRIPOS>BOND
     1    1   20 2
     2    2   21 2
     3    3   23 2
     4    4   22 2
     5    5   23 1
     6    6   39 2
     7    7    8 1
     8    9   10 1
     9   11   12 1
    10   13   14 1
    11   15   16 1
    12   17   19 2
    13   18   19 2
    14   19   73 1
    15   20    7 1
    16   21   11 1
    17   22    9 1
    18   23   13 1
    19   24    9 1
    20   25   24 1
    21   26   11 1
    22   27   50 1
    23   28    7 1
    24   29   28 1
    25   30   28 1
    26   31   30 1
    27   32   21 1
    28   33   32 1
    29   34   32 1
    30   35   13 1
    31   36   37 ar
    32   37   38 1
    33   39   15 1
    34   40   37 ar
    35   41   40 1
    36   42   26 1
    37   43   42 1
    38   44   42 1
    39   45   42 1
    40   46   35 1
    41   47   46 1
    42   48   46 1
    43   49   46 1
    44   50   28 1
    45   51   50 1
    46   52   50 1
    47   53   35 1
    48   54   53 1
    49   55   53 1
    50   56   53 1
    51   57   27 ar
    52   58   57 1
    53   59   39 1
    54   60   59 1
    55   61   59 1
    56   62    5 1
    57   63   24 1
    58   64   63 1
    59   65   63 1
    60   66   24 1
    61   67   66 1
    62   68   66 1
    63   69   70 1
    64   71   36 ar
    65   72   71 1
    66   73   30 1
    67   74   73 1
    68   75   73 1
    69   76   26 1
    70   77   76 1
    71   78   76 1
    72   79   76 1
    73   80   27 ar
    74   81   80 1
    75   82   40 ar
    76   83   82 1
    77   84   57 ar
    78   85   84 1
    79   86   80 ar
    80   87   86 1
    81   88   62 1
    82   89   88 1
    83   90   88 1
    84   91   88 1
    85   92   84 ar
    86   93   92 1
    87   94   62 1
    88   95   94 1
    89   96   94 1
    90   97   94 1
    91   98   15 1
    92   99   98 1
    93  100   98 1
    94  101   98 1
    95  102   62 1
    96  103  102 1
    97  104  102 1
    98  105  102 1
    99   20   35 1
   100   22   26 1
   101   30   32 1
   102   36   66 1
   103   59   63 1
   104   69   71 ar
   105   69   82 ar
   106   86   92 ar
@<TRIPOS>SUBSTRUCTURE
     1 RES1 1

@<TRIPOS>CRYSIN
  11.8130    9.2720   19.7470  90.0000 104.5240  90.0000   4 1

