# MOL2 file generated by ConQuest
# Please check atom types

@<TRIPOS>MOLECULE
QUXPOQ
    78    77     1
SMALL
NO_CHARGES
****
Generated from CSD

@<TRIPOS>ATOM
      1 O1         0.2066    4.4771   -3.7946 O.3       1 RES1    0.0000
      2 O2        -3.2080    2.3594    4.2800 O.3       1 RES1    0.0000
      3 O3        -2.0034    4.1275    4.9193 O.2       1 RES1    0.0000
      4 O4        -0.9370   -0.8817    1.2316 O.2       1 RES1    0.0000
      5 O5         0.4024    0.2393    2.5006 O.2       1 RES1    0.0000
      6 O6        -2.4621    5.6423    1.9111 O.2       1 RES1    0.0000
      7 O7        -0.8276    3.4944   -2.0221 O.2       1 RES1    0.0000
      8 O8         0.1382    8.6151    1.4965 O.2       1 RES1    0.0000
      9 O9         0.9665    9.6641   -0.1803 O.2       1 RES1    0.0000
     10 N1         0.9323    4.9093   -1.7600 N.am      1 RES1    0.0000
     11 H1         1.5118    5.3879   -2.1788 H         1 RES1    0.0000
     12 N2        -2.1415    4.0276    0.3772 N.am      1 RES1    0.0000
     13 H2        -1.7693    3.8289   -0.3731 H         1 RES1    0.0000
     14 N3        -0.4299    0.1661    1.6130 N.pl3     1 RES1    0.0000
     15 N4         0.6633    8.6418    0.4008 N.pl3     1 RES1    0.0000
     16 C1        -0.0825    4.4016   -6.0843 C.3       1 RES1    0.0000
     17 H3        -0.2046    5.3542   -6.0705 H         1 RES1    0.0000
     18 H4        -0.5560    4.0299   -6.8333 H         1 RES1    0.0000
     19 H5         0.8518    4.2007   -6.1662 H         1 RES1    0.0000
     20 C2        -0.6157    3.8080   -4.8084 C.3       1 RES1    0.0000
     21 C3         0.0423    4.2320   -2.4853 C.2       1 RES1    0.0000
     22 C4         0.9886    4.8907   -0.3037 C.3       1 RES1    0.0000
     23 H6         0.4708    4.1147   -0.0042 H         1 RES1    0.0000
     24 C5         0.2991    6.1430    0.2594 C.3       1 RES1    0.0000
     25 H7         0.4105    6.1360    1.2330 H         1 RES1    0.0000
     26 C6        -1.1999    6.1999   -0.0402 C.3       1 RES1    0.0000
     27 H8        -1.5151    7.1084    0.0901 H         1 RES1    0.0000
     28 H9        -1.3454    5.9664   -0.9708 H         1 RES1    0.0000
     29 C7        -2.0041    5.2694    0.8335 C.2       1 RES1    0.0000
     30 C8        -2.8921    2.9716    1.0748 C.3       1 RES1    0.0000
     31 H10       -3.4957    3.4107    1.7114 H         1 RES1    0.0000
     32 C9        -1.9484    2.0713    1.8792 C.3       1 RES1    0.0000
     33 H11       -2.4863    1.3534    2.2731 H         1 RES1    0.0000
     34 C10       -1.2824    2.8392    3.0304 C.3       1 RES1    0.0000
     35 H12       -0.5567    2.3001    3.3799 H         1 RES1    0.0000
     36 H13       -0.8954    3.6535    2.6726 H         1 RES1    0.0000
     37 C11       -2.1878    3.2063    4.1635 C.2       1 RES1    0.0000
     38 C12       -4.0785    2.5662    5.4117 C.3       1 RES1    0.0000
     39 H14       -4.5527    3.4084    5.3243 H         1 RES1    0.0000
     40 H15       -3.5641    2.5859    6.2341 H         1 RES1    0.0000
     41 C13       -5.0484    1.4231    5.4311 C.3       1 RES1    0.0000
     42 H16       -5.5440    1.4103    4.6087 H         1 RES1    0.0000
     43 H17       -5.6533    1.5299    6.1689 H         1 RES1    0.0000
     44 H18       -4.5668    0.5983    5.5296 H         1 RES1    0.0000
     45 C14       -0.8927    1.4161    0.9639 C.3       1 RES1    0.0000
     46 H19       -1.2804    1.2163    0.0971 H         1 RES1    0.0000
     47 H20       -0.1449    2.0190    0.8335 H         1 RES1    0.0000
     48 C15       -2.0839    4.1484   -4.6170 C.3       1 RES1    0.0000
     49 H21       -2.4185    3.6965   -3.8389 H         1 RES1    0.0000
     50 H22       -2.5809    3.8684   -5.3895 H         1 RES1    0.0000
     51 H23       -2.1811    5.0975   -4.5019 H         1 RES1    0.0000
     52 C16       -0.3796    2.3071   -4.7529 C.3       1 RES1    0.0000
     53 H24        0.5607    2.1282   -4.8181 H         1 RES1    0.0000
     54 H25       -0.8370    1.8843   -5.4838 H         1 RES1    0.0000
     55 H26       -0.7156    1.9621   -3.9222 H         1 RES1    0.0000
     56 C17        2.4299    4.6688    0.1401 C.3       1 RES1    0.0000
     57 H27        3.0014    5.2845   -0.3648 H         1 RES1    0.0000
     58 C18        2.6466    4.9325    1.6171 C.3       1 RES1    0.0000
     59 H28        2.0248    4.4109    2.1303 H         1 RES1    0.0000
     60 H29        2.5091    5.8654    1.8002 H         1 RES1    0.0000
     61 H30        3.5440    4.6886    1.8584 H         1 RES1    0.0000
     62 C19        2.8552    3.2492   -0.1942 C.3       1 RES1    0.0000
     63 H31        3.8022    3.1586   -0.0624 H         1 RES1    0.0000
     64 H32        2.6419    3.0587   -1.1109 H         1 RES1    0.0000
     65 H33        2.3931    2.6324    0.3772 H         1 RES1    0.0000
     66 C20        1.0107    7.3709   -0.2843 C.3       1 RES1    0.0000
     67 H34        1.9685    7.2315   -0.2122 H         1 RES1    0.0000
     68 H35        0.7981    7.4604   -1.2274 H         1 RES1    0.0000
     69 C21       -3.7720    2.2211    0.0416 C.3       1 RES1    0.0000
     70 H36       -3.1878    1.8645   -0.6602 H         1 RES1    0.0000
     71 C22       -4.7559    3.1679   -0.5936 C.3       1 RES1    0.0000
     72 H37       -5.2918    2.6928   -1.2330 H         1 RES1    0.0000
     73 H38       -4.2811    3.8742   -1.0360 H         1 RES1    0.0000
     74 H39       -5.3247    3.5420    0.0846 H         1 RES1    0.0000
     75 C23       -4.5017    1.0548    0.7004 C.3       1 RES1    0.0000
     76 H40       -4.9773    1.3696    1.4715 H         1 RES1    0.0000
     77 H41       -3.8646    0.3880    0.9667 H         1 RES1    0.0000
     78 H42       -5.1221    0.6726    0.0749 H         1 RES1    0.0000
@<TRIPOS>BOND
     1    1   20 1
     2    2   37 1
     3    3   37 2
     4    4   14 2
     5    5   14 2
     6    6   29 2
     7    7   21 2
     8    8   15 2
     9    9   15 2
    10   10   11 1
    11   12   13 1
    12   14   45 1
    13   15   66 1
    14   16   17 1
    15   18   16 1
    16   19   16 1
    17   20   16 1
    18   21    1 1
    19   22   10 1
    20   23   22 1
    21   24   22 1
    22   25   24 1
    23   26   24 1
    24   27   26 1
    25   28   26 1
    26   29   12 1
    27   30   12 1
    28   31   30 1
    29   32   30 1
    30   33   32 1
    31   34   32 1
    32   35   34 1
    33   36   34 1
    34   37   34 1
    35   38    2 1
    36   39   38 1
    37   40   38 1
    38   41   38 1
    39   42   41 1
    40   43   41 1
    41   44   41 1
    42   45   32 1
    43   46   45 1
    44   47   45 1
    45   48   20 1
    46   49   48 1
    47   50   48 1
    48   51   48 1
    49   52   20 1
    50   53   52 1
    51   54   52 1
    52   55   52 1
    53   56   22 1
    54   57   56 1
    55   58   56 1
    56   59   58 1
    57   60   58 1
    58   61   58 1
    59   62   56 1
    60   63   62 1
    61   64   62 1
    62   65   62 1
    63   66   24 1
    64   67   66 1
    65   68   66 1
    66   69   30 1
    67   70   69 1
    68   71   69 1
    69   72   71 1
    70   73   71 1
    71   74   71 1
    72   75   69 1
    73   76   75 1
    74   77   75 1
    75   78   75 1
    76   10   21 1
    77   26   29 1
@<TRIPOS>SUBSTRUCTURE
     1 RES1 1

@<TRIPOS>CRYSIN
  13.4140   13.4140   13.8690  90.0000  90.0000 120.0000 145 1

