# MOL2 file generated by ConQuest
# Please check atom types

@<TRIPOS>MOLECULE
QUXPEG
   132   131     1
SMALL
NO_CHARGES
****
Generated from CSD

@<TRIPOS>ATOM
      1 O1         3.1427   13.9614    2.7611 O.3       1 RES1    0.0000
      2 N1         3.0425   14.3182    4.9262 N.am      1 RES1    0.0000
      3 H1         3.4674   13.5729    4.9805 H         1 RES1    0.0000
      4 O2         2.2897   17.9789    6.5096 O.2       1 RES1    0.0000
      5 O3         0.6678   20.6827    3.7034 O.2       1 RES1    0.0000
      6 O4        -2.4265   19.0039    5.5406 O.2       1 RES1    0.0000
      7 O5        -2.5710   22.5042    8.6108 O.2       1 RES1    0.0000
      8 O6         0.8503   23.4050    5.5043 O.2       1 RES1    0.0000
      9 O7         2.4537   15.9984    3.5106 O.2       1 RES1    0.0000
     10 C1         2.5615   14.9314    6.1576 C.3       1 RES1    0.0000
     11 H2         1.9575   15.6572    5.8951 H         1 RES1    0.0000
     12 N2         4.0879   19.0145    5.5995 N.am      1 RES1    0.0000
     13 H3         4.8759   18.8928    5.2756 H         1 RES1    0.0000
     14 N3         0.7920   18.5287    3.0207 N.am      1 RES1    0.0000
     15 H4         1.3149   17.8518    2.9232 H         1 RES1    0.0000
     16 N4        -0.4744   19.1240    6.6813 N.am      1 RES1    0.0000
     17 H5         0.3433   18.8576    6.7059 H         1 RES1    0.0000
     18 O8        -1.3035   23.7724    9.9634 O.3       1 RES1    0.0000
     19 O9        -0.9182   23.5710    4.2815 O.2       1 RES1    0.0000
     20 O10       -2.8057   15.0071    4.1804 O.2       1 RES1    0.0000
     21 N5         4.8927   21.7710    2.2329 N.pl3     1 RES1    0.0000
     22 O11        5.4384   21.1842    1.3224 O.2       1 RES1    0.0000
     23 C2         1.8668   14.9248    0.8713 C.3       1 RES1    0.0000
     24 H6         1.8049   15.8237    1.2022 H         1 RES1    0.0000
     25 H7         1.1307   14.4076    1.2065 H         1 RES1    0.0000
     26 H8         1.8402   14.9351   -0.0886 H         1 RES1    0.0000
     27 C3         3.1670   14.3072    1.3321 C.3       1 RES1    0.0000
     28 C4         2.8534   14.8627    3.7054 C.2       1 RES1    0.0000
     29 C5         3.7102   15.5745    6.9595 C.3       1 RES1    0.0000
     30 H9         3.3385   15.9269    7.7956 H         1 RES1    0.0000
     31 C6         4.3382   16.7257    6.2010 C.3       1 RES1    0.0000
     32 H10        4.5442   16.4310    5.3005 H         1 RES1    0.0000
     33 H11        5.1740   16.9632    6.6313 H         1 RES1    0.0000
     34 C7         3.4616   17.9603    6.1212 C.2       1 RES1    0.0000
     35 C8         3.5315   20.3483    5.5412 C.3       1 RES1    0.0000
     36 H12        2.6016   20.2878    5.8443 H         1 RES1    0.0000
     37 C9         3.5030   20.8475    4.0804 C.3       1 RES1    0.0000
     38 H13        2.9819   21.6758    4.0497 H         1 RES1    0.0000
     39 C10        2.8302   19.8217    3.1550 C.3       1 RES1    0.0000
     40 H14        3.0080   20.0651    2.2335 H         1 RES1    0.0000
     41 H15        3.2263   18.9514    3.3113 H         1 RES1    0.0000
     42 C11        1.3267   19.7214    3.3555 C.2       1 RES1    0.0000
     43 C12       -0.6451   18.3446    2.8174 C.3       1 RES1    0.0000
     44 H16       -1.0741   19.1624    3.1427 H         1 RES1    0.0000
     45 C13       -1.2226   17.1920    3.6625 C.3       1 RES1    0.0000
     46 H17       -2.1994   17.2703    3.6389 H         1 RES1    0.0000
     47 C14       -0.7893   17.3081    5.1229 C.3       1 RES1    0.0000
     48 H18       -1.1175   16.5365    5.6119 H         1 RES1    0.0000
     49 H19        0.1801   17.2961    5.1665 H         1 RES1    0.0000
     50 C15       -1.2967   18.5650    5.7876 C.2       1 RES1    0.0000
     51 C16       -0.8938   20.1650    7.6183 C.3       1 RES1    0.0000
     52 H20       -1.8611   20.2761    7.5037 H         1 RES1    0.0000
     53 C17       -0.2401   21.5098    7.2178 C.3       1 RES1    0.0000
     54 H21        0.6828   21.3171    6.9481 H         1 RES1    0.0000
     55 C18       -0.1798   22.5658    8.3205 C.3       1 RES1    0.0000
     56 H22        0.4185   22.2479    9.0151 H         1 RES1    0.0000
     57 H23        0.2083   23.3733    7.9491 H         1 RES1    0.0000
     58 C19       -1.4934   22.9192    8.9523 C.2       1 RES1    0.0000
     59 C20        1.7209   13.9182    6.9482 C.3       1 RES1    0.0000
     60 H24        2.2318   13.0852    7.0259 H         1 RES1    0.0000
     61 C21        0.4232   13.6226    6.1837 C.3       1 RES1    0.0000
     62 H25       -0.1553   14.3865    6.2281 H         1 RES1    0.0000
     63 H26       -0.0166   12.8672    6.5805 H         1 RES1    0.0000
     64 H27        0.6283   13.4299    5.2670 H         1 RES1    0.0000
     65 C22        4.7717   14.5349    7.3131 C.3       1 RES1    0.0000
     66 H28        4.3500   13.7534    7.7048 H         1 RES1    0.0000
     67 H29        5.2404   14.2575    6.5102 H         1 RES1    0.0000
     68 N6         5.7440   15.1325    8.2898 N.pl3     1 RES1    0.0000
     69 O12        5.3021   15.5372    9.3517 O.2       1 RES1    0.0000
     70 O13        6.9194   15.2022    7.9634 O.2       1 RES1    0.0000
     71 C23       -0.6711   19.6740    9.0656 C.3       1 RES1    0.0000
     72 H30       -0.9999   20.3722    9.6691 H         1 RES1    0.0000
     73 C24       -1.5005   18.4206    9.3176 C.3       1 RES1    0.0000
     74 H31       -1.4647   18.1964   10.2497 H         1 RES1    0.0000
     75 H32       -1.1477   17.6947    8.7989 H         1 RES1    0.0000
     76 H33       -2.4117   18.5833    9.0627 H         1 RES1    0.0000
     77 C25        0.7959   19.4114    9.4193 C.3       1 RES1    0.0000
     78 H34        1.1391   18.7099    8.8605 H         1 RES1    0.0000
     79 H35        0.8609   19.1483   10.3405 H         1 RES1    0.0000
     80 H36        1.3071   20.2128    9.2789 H         1 RES1    0.0000
     81 C26       -0.9788   21.9994    5.9820 C.3       1 RES1    0.0000
     82 H37       -1.1254   21.2421    5.3924 H         1 RES1    0.0000
     83 H38       -1.8492   22.3276    6.2551 H         1 RES1    0.0000
     84 N7        -0.2876   23.0779    5.2044 N.pl3     1 RES1    0.0000
     85 C27       -0.8626   15.8218    3.1160 C.3       1 RES1    0.0000
     86 H39       -0.9042   15.8472    2.1470 H         1 RES1    0.0000
     87 H40        0.0506   15.6127    3.3665 H         1 RES1    0.0000
     88 N8        -1.7665   14.7302    3.6133 N.pl3     1 RES1    0.0000
     89 O14       -1.4015   13.5863    3.4098 O.2       1 RES1    0.0000
     90 C28       -0.9534   18.2691    1.3053 C.3       1 RES1    0.0000
     91 H41       -0.4006   17.5611    0.9135 H         1 RES1    0.0000
     92 C29       -2.4202   17.9458    1.0205 C.3       1 RES1    0.0000
     93 H42       -2.9799   18.6021    1.4411 H         1 RES1    0.0000
     94 H43       -2.6300   17.0757    1.3697 H         1 RES1    0.0000
     95 H44       -2.5720   17.9549    0.0724 H         1 RES1    0.0000
     96 C30       -0.5872   19.5929    0.6320 C.3       1 RES1    0.0000
     97 H45        0.3441   19.7790    0.7762 H         1 RES1    0.0000
     98 H46       -1.1151   20.2995    1.0076 H         1 RES1    0.0000
     99 H47       -0.7585   19.5305   -0.3103 H         1 RES1    0.0000
    100 C31        4.9216   21.1563    3.6019 C.3       1 RES1    0.0000
    101 H48        5.3481   21.7673    4.2227 H         1 RES1    0.0000
    102 H49        5.4415   20.3371    3.5794 H         1 RES1    0.0000
    103 O15        4.3023   22.8235    2.1025 O.2       1 RES1    0.0000
    104 C32        4.2835   21.2444    6.5510 C.3       1 RES1    0.0000
    105 H50        5.2312   21.2491    6.3005 H         1 RES1    0.0000
    106 C33        3.7993   22.6753    6.5446 C.3       1 RES1    0.0000
    107 H51        4.3568   23.2045    7.1200 H         1 RES1    0.0000
    108 H52        2.8930   22.7075    6.8594 H         1 RES1    0.0000
    109 H53        3.8403   23.0240    5.6508 H         1 RES1    0.0000
    110 C34        4.1765   20.6686    7.9541 C.3       1 RES1    0.0000
    111 H54        3.2532   20.6348    8.2162 H         1 RES1    0.0000
    112 H55        4.6628   21.2257    8.5664 H         1 RES1    0.0000
    113 H56        4.5446   19.7814    7.9654 H         1 RES1    0.0000
    114 C35        3.3557   12.9628    0.6736 C.3       1 RES1    0.0000
    115 H57        2.7009   12.3467    1.0108 H         1 RES1    0.0000
    116 H58        4.2362   12.6327    0.8670 H         1 RES1    0.0000
    117 H59        3.2492   13.0547   -0.2757 H         1 RES1    0.0000
    118 C36        4.3338   15.2286    1.0940 C.3       1 RES1    0.0000
    119 H60        5.1449   14.7968    1.3697 H         1 RES1    0.0000
    120 H61        4.2135   16.0347    1.6000 H         1 RES1    0.0000
    121 H62        4.3875   15.4415    0.1589 H         1 RES1    0.0000
    122 C37       -2.4830   24.2005   10.6821 C.3       1 RES1    0.0000
    123 H63       -3.2414   24.2197   10.0778 H         1 RES1    0.0000
    124 H64       -2.3468   25.0989   11.0226 H         1 RES1    0.0000
    125 C38       -2.7770   23.2723   11.8237 C.3       1 RES1    0.0000
    126 H65       -2.0019   23.1998   12.3859 H         1 RES1    0.0000
    127 H66       -3.0044   22.4050   11.4799 H         1 RES1    0.0000
    128 H67       -3.5123   23.6172   12.3351 H         1 RES1    0.0000
    129 C39        1.3922   14.4101    8.3448 C.3       1 RES1    0.0000
    130 H68        1.0143   15.2915    8.2929 H         1 RES1    0.0000
    131 H69        2.1938   14.4357    8.8724 H         1 RES1    0.0000
    132 H70        0.7592   13.8144    8.7535 H         1 RES1    0.0000
@<TRIPOS>BOND
     1    1   27 1
     2    2    3 1
     3    4   34 2
     4    5   42 2
     5    6   50 2
     6    7   58 2
     7    8   84 2
     8    9   28 2
     9   10    2 1
    10   11   10 1
    11   12   13 1
    12   14   15 1
    13   16   17 1
    14   18   58 1
    15   19   84 2
    16   20   88 2
    17   21   22 2
    18   23   24 1
    19   25   23 1
    20   26   23 1
    21   27   23 1
    22   28    1 1
    23   29   10 1
    24   30   29 1
    25   31   29 1
    26   32   31 1
    27   33   31 1
    28   34   12 1
    29   35   12 1
    30   36   35 1
    31   37   35 1
    32   38   37 1
    33   39   37 1
    34   40   39 1
    35   41   39 1
    36   42   14 1
    37   43   14 1
    38   44   43 1
    39   45   43 1
    40   46   45 1
    41   47   45 1
    42   48   47 1
    43   49   47 1
    44   50   16 1
    45   51   16 1
    46   52   51 1
    47   53   51 1
    48   54   53 1
    49   55   53 1
    50   56   55 1
    51   57   55 1
    52   58   55 1
    53   59   10 1
    54   60   59 1
    55   61   59 1
    56   62   61 1
    57   63   61 1
    58   64   61 1
    59   65   29 1
    60   66   65 1
    61   67   65 1
    62   68   65 1
    63   69   68 2
    64   70   68 2
    65   71   51 1
    66   72   71 1
    67   73   71 1
    68   74   73 1
    69   75   73 1
    70   76   73 1
    71   77   71 1
    72   78   77 1
    73   79   77 1
    74   80   77 1
    75   81   53 1
    76   82   81 1
    77   83   81 1
    78   84   81 1
    79   85   45 1
    80   86   85 1
    81   87   85 1
    82   88   85 1
    83   89   88 2
    84   90   43 1
    85   91   90 1
    86   92   90 1
    87   93   92 1
    88   94   92 1
    89   95   92 1
    90   96   90 1
    91   97   96 1
    92   98   96 1
    93   99   96 1
    94  100   21 1
    95  101  100 1
    96  102  100 1
    97  103   21 2
    98  104   35 1
    99  105  104 1
   100  106  104 1
   101  107  106 1
   102  108  106 1
   103  109  106 1
   104  110  104 1
   105  111  110 1
   106  112  110 1
   107  113  110 1
   108  114   27 1
   109  115  114 1
   110  116  114 1
   111  117  114 1
   112  118   27 1
   113  119  118 1
   114  120  118 1
   115  121  118 1
   116  122   18 1
   117  123  122 1
   118  124  122 1
   119  125  122 1
   120  126  125 1
   121  127  125 1
   122  128  125 1
   123  129   59 1
   124  130  129 1
   125  131  129 1
   126  132  129 1
   127    2   28 1
   128   31   34 1
   129   37  100 1
   130   39   42 1
   131   47   50 1
@<TRIPOS>SUBSTRUCTURE
     1 RES1 1

@<TRIPOS>CRYSIN
   9.3190   23.4460   11.3960  90.0000 108.4420  90.0000   4 1

