# MOL2 file generated by ConQuest
# Please check atom types

@<TRIPOS>MOLECULE
QUXTIO
    40    43     1
SMALL
NO_CHARGES
****
Generated from CSD

@<TRIPOS>ATOM
      1 C1         0.4783    2.2470    3.8256 C.2       1 RES1    0.0000
      2 C2        -0.5010    2.9011    3.0641 C.2       1 RES1    0.0000
      3 H1        -1.2781    3.2157    3.4676 H         1 RES1    0.0000
      4 C3        -0.3005    3.0671    1.7341 C.2       1 RES1    0.0000
      5 H2        -0.9500    3.4890    1.2186 H         1 RES1    0.0000
      6 C4         0.8825    2.6063    1.1258 C.2       1 RES1    0.0000
      7 H3         1.0158    2.7433    0.2169 H         1 RES1    0.0000
      8 C5         1.8215    1.9720    1.8471 C.2       1 RES1    0.0000
      9 H4         2.5992    1.6607    1.4419 H         1 RES1    0.0000
     10 C6         2.3870    1.1363    4.1436 C.2       1 RES1    0.0000
     11 C7         1.6784    1.2800    5.3332 C.2       1 RES1    0.0000
     12 C8         2.0254    0.8621    6.7053 C.ar      1 RES1    0.0000
     13 C9         1.0377    0.3691    7.5366 C.ar      1 RES1    0.0000
     14 H5         0.1738    0.2601    7.2096 H         1 RES1    0.0000
     15 C10        1.3192    0.0363    8.8461 C.ar      1 RES1    0.0000
     16 H6         0.6498   -0.3055    9.3948 H         1 RES1    0.0000
     17 C11        2.5890    0.2106    9.3393 C.ar      1 RES1    0.0000
     18 H7         2.7779   -0.0050   10.2242 H         1 RES1    0.0000
     19 C12        3.5747    0.6995    8.5309 C.ar      1 RES1    0.0000
     20 H8         4.4336    0.8167    8.8685 H         1 RES1    0.0000
     21 C13        3.3052    1.0182    7.2233 C.ar      1 RES1    0.0000
     22 H9         3.9860    1.3419    6.6801 H         1 RES1    0.0000
     23 C14        4.2158   -0.3122    4.3312 C.2       1 RES1    0.0000
     24 H10        3.9701   -0.5244    5.2030 H         1 RES1    0.0000
     25 C15        5.4019   -0.9307    3.7515 C.ar      1 RES1    0.0000
     26 C16        5.7678   -0.6937    2.4321 C.ar      1 RES1    0.0000
     27 H11        5.2365   -0.1478    1.8981 H         1 RES1    0.0000
     28 C17        6.9058   -1.2569    1.9093 C.ar      1 RES1    0.0000
     29 H12        7.1521   -1.0917    1.0272 H         1 RES1    0.0000
     30 C18        7.6728   -2.0662    2.7074 C.ar      1 RES1    0.0000
     31 C19        7.3391   -2.3247    4.0061 C.ar      1 RES1    0.0000
     32 H13        7.8705   -2.8779    4.5299 H         1 RES1    0.0000
     33 C20        6.2037   -1.7507    4.5220 C.ar      1 RES1    0.0000
     34 H14        5.9694   -1.9175    5.4072 H         1 RES1    0.0000
     35 N1         1.6128    1.7904    3.1866 N.pl3     1 RES1    0.0000
     36 N2         0.5084    1.9506    5.1258 N.2       1 RES1    0.0000
     37 N3         3.5110    0.5120    3.6673 N.2       1 RES1    0.0000
     38 N4         8.8923   -2.6649    2.1540 N.pl3     1 RES1    0.0000
     39 O1         9.1954   -2.3940    1.0154 O.2       1 RES1    0.0000
     40 O2         9.5446   -3.4023    2.8564 O.2       1 RES1    0.0000
@<TRIPOS>BOND
     1    1    2 1
     2    2    3 1
     3    4    2 2
     4    5    4 1
     5    6    4 1
     6    7    6 1
     7    8    6 2
     8    9    8 1
     9   10   11 2
    10   11   12 1
    11   12   13 ar
    12   13   14 1
    13   15   13 ar
    14   16   15 1
    15   17   15 ar
    16   18   17 1
    17   19   17 ar
    18   20   19 1
    19   21   12 ar
    20   22   21 1
    21   23   24 1
    22   25   23 1
    23   26   25 ar
    24   27   26 1
    25   28   26 ar
    26   29   28 1
    27   30   28 ar
    28   31   30 ar
    29   32   31 1
    30   33   25 ar
    31   34   33 1
    32   35    1 1
    33   36    1 2
    34   37   10 1
    35   38   30 1
    36   39   38 2
    37   40   38 2
    38    8   35 1
    39   10   35 1
    40   11   36 1
    41   19   21 ar
    42   23   37 2
    43   31   33 ar
@<TRIPOS>SUBSTRUCTURE
     1 RES1 1

@<TRIPOS>CRYSIN
   6.3161    8.2581   31.9010  90.0000  90.1200  90.0000  14 1

