# MOL2 file generated by ConQuest
# Please check atom types

@<TRIPOS>MOLECULE
QUYKUR01
    33    34     1
SMALL
NO_CHARGES
****
Generated from CSD

@<TRIPOS>ATOM
      1 C1        -0.9223   -5.8077  -17.7238 C.ar      1 RES1    0.0000
      2 C2        -0.6204   -7.1032  -18.0563 C.ar      1 RES1    0.0000
      3 H1        -0.3765   -7.3327  -18.9240 H         1 RES1    0.0000
      4 C3        -0.6892   -8.0547  -17.0592 C.ar      1 RES1    0.0000
      5 H2        -0.5061   -8.9434  -17.2635 H         1 RES1    0.0000
      6 C4        -1.0243   -7.7137  -15.7666 C.ar      1 RES1    0.0000
      7 C5        -1.3096   -6.3793  -15.4714 C.ar      1 RES1    0.0000
      8 H3        -1.5348   -6.1341  -14.6029 H         1 RES1    0.0000
      9 C6        -1.2601   -5.4304  -16.4584 C.ar      1 RES1    0.0000
     10 H4        -1.4538   -4.5409  -16.2673 H         1 RES1    0.0000
     11 C7        -1.1195   -8.7275  -14.7064 C.2       1 RES1    0.0000
     12 H5        -1.4165   -8.4743  -13.8623 H         1 RES1    0.0000
     13 C8        -0.8857  -10.8791  -13.8672 C.ar      1 RES1    0.0000
     14 C9        -1.0896  -12.2096  -14.2364 C.ar      1 RES1    0.0000
     15 C10       -1.1339  -13.1948  -13.2339 C.ar      1 RES1    0.0000
     16 C11       -0.9639  -12.8138  -11.9151 C.ar      1 RES1    0.0000
     17 H6        -0.9969  -13.4626  -11.2495 H         1 RES1    0.0000
     18 C12       -0.7488  -11.5145  -11.5626 C.ar      1 RES1    0.0000
     19 H7        -0.6290  -11.2869  -10.6688 H         1 RES1    0.0000
     20 C13       -0.7086  -10.5383  -12.5372 C.ar      1 RES1    0.0000
     21 H8        -0.5630   -9.6509  -12.3003 H         1 RES1    0.0000
     22 C14       -1.2616  -12.5803  -15.6798 C.3       1 RES1    0.0000
     23 H9        -1.3907  -13.5288  -15.7534 H         1 RES1    0.0000
     24 H10       -0.4769  -12.3251  -16.1712 H         1 RES1    0.0000
     25 H11       -2.0261  -12.1245  -16.0385 H         1 RES1    0.0000
     26 C15       -1.3412  -14.6436  -13.5718 C.3       1 RES1    0.0000
     27 H12       -1.4423  -14.7394  -14.5216 H         1 RES1    0.0000
     28 H13       -2.1315  -14.9649  -13.1318 H         1 RES1    0.0000
     29 H14       -0.5824  -15.1524  -13.2779 H         1 RES1    0.0000
     30 N1        -0.9015   -4.7909  -18.7954 N.pl3     1 RES1    0.0000
     31 N2        -0.8098   -9.9248  -14.9119 N.2       1 RES1    0.0000
     32 O1        -1.0156   -3.6261  -18.4597 O.2       1 RES1    0.0000
     33 O2        -0.7817   -5.1511  -19.9394 O.2       1 RES1    0.0000
@<TRIPOS>BOND
     1    1    2 ar
     2    2    3 1
     3    4    2 ar
     4    5    4 1
     5    6    4 ar
     6    7    6 ar
     7    8    7 1
     8    9    1 ar
     9   10    9 1
    10   11    6 1
    11   12   11 1
    12   13   14 ar
    13   14   15 ar
    14   15   16 ar
    15   16   17 1
    16   18   16 ar
    17   19   18 1
    18   20   13 ar
    19   21   20 1
    20   22   14 1
    21   23   22 1
    22   24   22 1
    23   25   22 1
    24   26   15 1
    25   27   26 1
    26   28   26 1
    27   29   26 1
    28   30    1 1
    29   31   11 2
    30   32   30 2
    31   33   30 2
    32    7    9 ar
    33   13   31 1
    34   18   20 ar
@<TRIPOS>SUBSTRUCTURE
     1 RES1 1

@<TRIPOS>CRYSIN
   7.1720   11.7980   15.3590  90.0000  90.0000  90.0000  19 1

