# MOL2 file generated by ConQuest
# Please check atom types

@<TRIPOS>MOLECULE
QUYKUR
    33    34     1
SMALL
NO_CHARGES
****
Generated from CSD

@<TRIPOS>ATOM
      1 O1         1.0140   -2.2780   10.7909 O.2       1 RES1    0.0000
      2 O2         0.7794   -0.7361   12.2734 O.2       1 RES1    0.0000
      3 N1         0.8118    4.0281    7.2390 N.2       1 RES1    0.0000
      4 N2         0.9018   -1.1130   11.1157 N.pl3     1 RES1    0.0000
      5 C1         0.8859    4.9827    6.1916 C.ar      1 RES1    0.0000
      6 C2         1.0860    6.3154    6.5567 C.ar      1 RES1    0.0000
      7 C3         1.1378    7.2977    5.5586 C.ar      1 RES1    0.0000
      8 C4         0.9737    6.9209    4.2419 C.ar      1 RES1    0.0000
      9 C5         0.7571    5.6120    3.8848 C.ar      1 RES1    0.0000
     10 C6         0.6995    4.6442    4.8565 C.ar      1 RES1    0.0000
     11 C7         1.2724    6.6730    8.0139 C.3       1 RES1    0.0000
     12 C8         1.3516    8.7443    5.9030 C.3       1 RES1    0.0000
     13 C9         1.1321    2.8255    7.0329 C.2       1 RES1    0.0000
     14 C10        1.0320    1.8107    8.0896 C.ar      1 RES1    0.0000
     15 C11        1.3185    0.4905    7.8029 C.ar      1 RES1    0.0000
     16 C12        1.2616   -0.4686    8.7835 C.ar      1 RES1    0.0000
     17 C13        0.9262   -0.0885   10.0537 C.ar      1 RES1    0.0000
     18 C14        0.6319    1.2050   10.3768 C.ar      1 RES1    0.0000
     19 C15        0.6859    2.1585    9.3868 C.ar      1 RES1    0.0000
     20 H1         1.0104    7.5706    3.5777 H         1 RES1    0.0000
     21 H2         0.6497    5.3839    2.9899 H         1 RES1    0.0000
     22 H3         0.5360    3.7595    4.6207 H         1 RES1    0.0000
     23 H4         0.6558    7.3681    8.2542 H         1 RES1    0.0000
     24 H5         2.1711    6.9785    8.1563 H         1 RES1    0.0000
     25 H6         1.1083    5.8978    8.5566 H         1 RES1    0.0000
     26 H7         1.3266    9.2717    5.1011 H         1 RES1    0.0000
     27 H8         2.2062    8.8495    6.3281 H         1 RES1    0.0000
     28 H9         0.6593    9.0371    6.5001 H         1 RES1    0.0000
     29 H10        1.4399    2.5755    6.1916 H         1 RES1    0.0000
     30 H11        1.5525    0.2484    6.9359 H         1 RES1    0.0000
     31 H12        1.4477   -1.3583    8.5879 H         1 RES1    0.0000
     32 H13        0.3989    1.4357   11.2470 H         1 RES1    0.0000
     33 H14        0.4895    3.0446    9.5894 H         1 RES1    0.0000
@<TRIPOS>BOND
     1    1    4 2
     2    2    4 2
     3    3    5 1
     4    4   17 1
     5    5    6 ar
     6    6    7 ar
     7    7    8 ar
     8    8    9 ar
     9    9   10 ar
    10   10    5 ar
    11   11    6 1
    12   12    7 1
    13   13    3 2
    14   14   13 1
    15   15   14 ar
    16   16   15 ar
    17   17   16 ar
    18   18   17 ar
    19   19   14 ar
    20   20    8 1
    21   21    9 1
    22   22   10 1
    23   23   11 1
    24   24   11 1
    25   25   11 1
    26   26   12 1
    27   27   12 1
    28   28   12 1
    29   29   13 1
    30   30   15 1
    31   31   16 1
    32   32   18 1
    33   33   19 1
    34   18   19 ar
@<TRIPOS>SUBSTRUCTURE
     1 RES1 1

@<TRIPOS>CRYSIN
   7.1969   11.8023   15.3721  90.0000  90.0000  90.0000  19 1

