# MOL2 file generated by ConQuest
# Please check atom types

@<TRIPOS>MOLECULE
QUYSUA
    49    53     1
SMALL
USER_CHARGES
****
Generated from CSD

@<TRIPOS>ATOM
      1 N1        -2.1520    7.4306    9.0356 N.pl3     1 RES1    1.0000
      2 O1         1.6392   11.2299    7.7663 O.3       1 RES1    0.0000
      3 O2        -0.6934    2.2595    9.3436 O.2       1 RES1    0.0000
      4 C1        -1.8168    6.1454    9.0325 C.2       1 RES1    0.0000
      5 C2        -0.6454    5.6869    8.3183 C.2       1 RES1    0.0000
      6 C3         0.6328   10.3611    8.0671 C.ar      1 RES1    0.0000
      7 C4        -1.2233    8.4354    8.6242 C.ar      1 RES1    0.0000
      8 C5         0.8366    9.0472    7.6392 C.ar      1 RES1    0.0000
      9 H1         1.6114    8.8323    7.1720 H         1 RES1    0.0000
     10 C6        -0.0872    8.0686    7.8976 C.ar      1 RES1    0.0000
     11 C7        -0.0022    6.6605    7.3229 C.3       1 RES1    0.0000
     12 C8        -0.8822    6.6058    6.0382 C.ar      1 RES1    0.0000
     13 C9        -2.6001    5.2039    9.7942 C.2       1 RES1    0.0000
     14 H2        -3.3789    5.4934   10.2118 H         1 RES1    0.0000
     15 O3        -3.2515    7.8504    9.4872 O.2       1 RES1   -1.0000
     16 C10        1.4606    6.2815    7.0480 C.ar      1 RES1    0.0000
     17 C11       -0.5181   10.7157    8.7379 C.ar      1 RES1    0.0000
     18 H3        -0.6652   11.5983    8.9932 H         1 RES1    0.0000
     19 C12       -2.2335    3.9386    9.9110 C.2       1 RES1    0.0000
     20 H4        -2.7478    3.3598   10.4268 H         1 RES1    0.0000
     21 C13       -0.2810    4.3972    8.4640 C.2       1 RES1    0.0000
     22 H5         0.4953    4.1069    8.0423 H         1 RES1    0.0000
     23 C14       -1.0436    3.4337    9.2506 C.2       1 RES1    0.0000
     24 C15        2.3563    6.2391    8.0971 C.ar      1 RES1    0.0000
     25 H6         2.0502    6.3880    8.9622 H         1 RES1    0.0000
     26 C16       -1.4423    9.7423    9.0190 C.ar      1 RES1    0.0000
     27 H7        -2.2201    9.9614    9.4790 H         1 RES1    0.0000
     28 C17       -1.3263    7.7343    5.3808 C.ar      1 RES1    0.0000
     29 H8        -1.1109    8.5705    5.7260 H         1 RES1    0.0000
     30 C18       -1.2178    5.3786    5.4728 C.ar      1 RES1    0.0000
     31 H9        -0.9263    4.5950    5.8790 H         1 RES1    0.0000
     32 C19        1.9398    6.0597    5.7715 C.ar      1 RES1    0.0000
     33 H10        1.3602    6.0862    5.0449 H         1 RES1    0.0000
     34 C20        3.2995    5.7954    5.5710 C.ar      1 RES1    0.0000
     35 H11        3.6193    5.6473    4.7100 H         1 RES1    0.0000
     36 C21        3.6962    5.9818    7.8904 C.ar      1 RES1    0.0000
     37 H12        4.2876    5.9623    8.6077 H         1 RES1    0.0000
     38 C22        4.1495    5.7536    6.6149 C.ar      1 RES1    0.0000
     39 H13        5.0493    5.5689    6.4702 H         1 RES1    0.0000
     40 C23       -1.9722    5.3004    4.3224 C.ar      1 RES1    0.0000
     41 H14       -2.1889    4.4684    3.9669 H         1 RES1    0.0000
     42 C24       -2.4081    6.4495    3.6940 C.ar      1 RES1    0.0000
     43 H15       -2.9182    6.4006    2.9178 H         1 RES1    0.0000
     44 C25       -2.0767    7.6633    4.2335 C.ar      1 RES1    0.0000
     45 H16       -2.3622    8.4451    3.8201 H         1 RES1    0.0000
     46 C26        1.4557   12.6140    8.0526 C.3       1 RES1    0.0000
     47 H17        0.6717   12.9334    7.5989 H         1 RES1    0.0000
     48 H18        2.2217   13.1073    7.7519 H         1 RES1    0.0000
     49 H19        1.3487   12.7344    8.9994 H         1 RES1    0.0000
@<TRIPOS>BOND
     1    1    4 2
     2    2    6 1
     3    3   23 2
     4    4    5 1
     5    5   11 1
     6    6    8 ar
     7    7    1 1
     8    8    9 1
     9   10    7 ar
    10   11   10 1
    11   12   11 1
    12   13    4 1
    13   14   13 1
    14   15    1 1
    15   16   11 1
    16   17    6 ar
    17   18   17 1
    18   19   13 2
    19   20   19 1
    20   21    5 2
    21   22   21 1
    22   23   19 1
    23   24   16 ar
    24   25   24 1
    25   26    7 ar
    26   27   26 1
    27   28   12 ar
    28   29   28 1
    29   30   12 ar
    30   31   30 1
    31   32   16 ar
    32   33   32 1
    33   34   32 ar
    34   35   34 1
    35   36   24 ar
    36   37   36 1
    37   38   34 ar
    38   39   38 1
    39   40   30 ar
    40   41   40 1
    41   42   40 ar
    42   43   42 1
    43   44   28 ar
    44   45   44 1
    45   46    2 1
    46   47   46 1
    47   48   46 1
    48   49   46 1
    49    8   10 ar
    50   17   26 ar
    51   21   23 1
    52   36   38 ar
    53   42   44 ar
@<TRIPOS>SUBSTRUCTURE
     1 RES1 1

@<TRIPOS>CRYSIN
   9.3694   10.5189   10.9779 104.2370  99.5010 103.8000   2 1

