# MOL2 file generated by ConQuest
# Please check atom types

@<TRIPOS>MOLECULE
QUZCEU
    46    48     1
SMALL
NO_CHARGES
****
Generated from CSD

@<TRIPOS>ATOM
      1 O1         2.3609   -2.5892    7.7833 O.3       1 RES1    0.0000
      2 O2         1.5703   -2.8470   12.4448 O.2       1 RES1    0.0000
      3 O3         5.6368    5.1543    9.2107 O.2       1 RES1    0.0000
      4 O4         4.3538    3.4762    8.7883 O.2       1 RES1    0.0000
      5 N1         4.6794   -3.5599    6.9270 N.ar      1 RES1    0.0000
      6 N2         2.7667   -0.9988   12.7651 N.am      1 RES1    0.0000
      7 H1         2.8546   -1.1778   13.6020 H         1 RES1    0.0000
      8 N3         3.3347    0.1413   12.2552 N.2       1 RES1    0.0000
      9 C1         5.8288   -4.0299    6.4989 C.ar      1 RES1    0.0000
     10 H2         6.4124   -4.3892    7.1280 H         1 RES1    0.0000
     11 C2         6.2344   -4.0258    5.1533 C.ar      1 RES1    0.0000
     12 H3         7.0614   -4.3687    4.9012 H         1 RES1    0.0000
     13 C3         5.3784   -3.5051    4.2289 C.ar      1 RES1    0.0000
     14 H4         5.6190   -3.5008    3.3307 H         1 RES1    0.0000
     15 C4         4.1413   -2.9765    4.6150 C.ar      1 RES1    0.0000
     16 C5         3.2404   -2.3724    3.7202 C.ar      1 RES1    0.0000
     17 H5         3.4448   -2.3285    2.8140 H         1 RES1    0.0000
     18 C6         2.0924   -1.8603    4.1687 C.ar      1 RES1    0.0000
     19 H6         1.5156   -1.4391    3.5737 H         1 RES1    0.0000
     20 C7         1.7410   -1.9485    5.5291 C.ar      1 RES1    0.0000
     21 H7         0.9165   -1.6253    5.8130 H         1 RES1    0.0000
     22 C8         2.5874   -2.4978    6.4274 C.ar      1 RES1    0.0000
     23 C9         3.8194   -3.0217    5.9970 C.ar      1 RES1    0.0000
     24 C10        1.0822   -2.1738    8.2693 C.3       1 RES1    0.0000
     25 H8         0.3775   -2.6891    7.8469 H         1 RES1    0.0000
     26 H9         0.9370   -1.2353    8.0763 H         1 RES1    0.0000
     27 C11        1.0801   -2.4075    9.7524 C.3       1 RES1    0.0000
     28 H10        0.1732   -2.3099   10.0817 H         1 RES1    0.0000
     29 H11        1.3601   -3.3193    9.9250 H         1 RES1    0.0000
     30 C12        1.9710   -1.4785   10.5143 C.3       1 RES1    0.0000
     31 H12        1.6283   -0.5744   10.4371 H         1 RES1    0.0000
     32 H13        2.8583   -1.4957   10.1214 H         1 RES1    0.0000
     33 C13        2.0694   -1.8466   11.9713 C.2       1 RES1    0.0000
     34 C14        4.0258    0.8467   13.0626 C.2       1 RES1    0.0000
     35 H14        4.1193    0.5721   13.9472 H         1 RES1    0.0000
     36 C15        4.6680    2.0739   12.6208 C.ar      1 RES1    0.0000
     37 C16        4.5139    2.5514   11.3149 C.ar      1 RES1    0.0000
     38 H15        3.9796    2.0938   10.7063 H         1 RES1    0.0000
     39 C17        5.1611    3.7021   10.9425 C.ar      1 RES1    0.0000
     40 C18        5.9298    4.4264   11.8100 C.ar      1 RES1    0.0000
     41 H16        6.3373    5.2165   11.5375 H         1 RES1    0.0000
     42 C19        6.0873    3.9588   13.0967 C.ar      1 RES1    0.0000
     43 H17        6.6249    4.4197   13.6996 H         1 RES1    0.0000
     44 C20        5.4426    2.7988   13.4850 C.ar      1 RES1    0.0000
     45 H18        5.5381    2.5024   14.3606 H         1 RES1    0.0000
     46 N4         5.0197    4.1420    9.5423 N.pl3     1 RES1    0.0000
@<TRIPOS>BOND
     1    1   22 1
     2    2   33 2
     3    3   46 2
     4    4   46 2
     5    5    9 ar
     6    6    7 1
     7    8    6 1
     8    9   10 1
     9   11    9 ar
    10   12   11 1
    11   13   11 ar
    12   14   13 1
    13   15   13 ar
    14   16   15 ar
    15   17   16 1
    16   18   16 ar
    17   19   18 1
    18   20   18 ar
    19   21   20 1
    20   22   20 ar
    21   23    5 ar
    22   24    1 1
    23   25   24 1
    24   26   24 1
    25   27   24 1
    26   28   27 1
    27   29   27 1
    28   30   27 1
    29   31   30 1
    30   32   30 1
    31   33    6 1
    32   34    8 2
    33   35   34 1
    34   36   34 1
    35   37   36 ar
    36   38   37 1
    37   39   37 ar
    38   40   39 ar
    39   41   40 1
    40   42   40 ar
    41   43   42 1
    42   44   36 ar
    43   45   44 1
    44   46   39 1
    45   15   23 ar
    46   22   23 ar
    47   30   33 1
    48   42   44 ar
@<TRIPOS>SUBSTRUCTURE
     1 RES1 1

@<TRIPOS>CRYSIN
   8.3664   10.4882   11.5855 100.5950  91.9680 101.8980   2 1

