# MOL2 file generated by ConQuest
# Please check atom types

@<TRIPOS>MOLECULE
QUZLII
    28    29     1
SMALL
NO_CHARGES
****
Generated from CSD

@<TRIPOS>ATOM
      1 C1         1.6777    4.3347    9.2814 C.ar      1 RES1    0.0000
      2 C2         2.3856    5.3344    9.9410 C.ar      1 RES1    0.0000
      3 H1         2.2478    6.2239    9.7056 H         1 RES1    0.0000
      4 C3         3.2897    5.0288   10.9402 C.ar      1 RES1    0.0000
      5 H2         3.7772    5.6992   11.3616 H         1 RES1    0.0000
      6 C4         3.4535    3.7076   11.2975 C.ar      1 RES1    0.0000
      7 C5         2.7752    2.6798   10.6572 C.ar      1 RES1    0.0000
      8 H3         2.9137    1.7943   10.9046 H         1 RES1    0.0000
      9 C6         1.8899    2.9994    9.6458 C.ar      1 RES1    0.0000
     10 H4         1.4312    2.3226    9.2035 H         1 RES1    0.0000
     11 C7         0.7180    4.7235    8.2492 C.2       1 RES1    0.0000
     12 H5         0.5331    5.6263    8.1220 H         1 RES1    0.0000
     13 C8        -1.3469    3.4933    5.7057 C.ar      1 RES1    0.0000
     14 C9        -0.9729    2.1704    5.5940 C.ar      1 RES1    0.0000
     15 H6        -0.3555    1.8023    6.1835 H         1 RES1    0.0000
     16 C10       -1.5274    1.4060    4.5969 C.ar      1 RES1    0.0000
     17 H7        -1.2782    0.5150    4.5002 H         1 RES1    0.0000
     18 C11       -2.4502    1.9563    3.7423 C.ar      1 RES1    0.0000
     19 H8        -2.8294    1.4634    3.0508 H         1 RES1    0.0000
     20 C12       -2.7823    3.2577    3.9553 C.ar      1 RES1    0.0000
     21 H9        -3.4243    3.6321    3.3963 H         1 RES1    0.0000
     22 N1         0.1248    3.8583    7.5157 N.2       1 RES1    0.0000
     23 N2        -0.7813    4.3451    6.6302 N.pl3     1 RES1    0.0000
     24 N3        -2.2581    4.0475    4.9098 N.ar      1 RES1    0.0000
     25 N4         4.3480    3.3916   12.4121 N.pl3     1 RES1    0.0000
     26 O1         5.0567    4.2891   12.8592 O.2       1 RES1    0.0000
     27 O2         4.3487    2.2525   12.8608 O.2       1 RES1    0.0000
     28 H10       -1.0440    5.2297    6.6667 H         1 RES1    0.0000
@<TRIPOS>BOND
     1    1    2 ar
     2    2    3 1
     3    4    2 ar
     4    5    4 1
     5    6    4 ar
     6    7    6 ar
     7    8    7 1
     8    9    1 ar
     9   10    9 1
    10   11    1 1
    11   12   11 1
    12   13   14 ar
    13   14   15 1
    14   16   14 ar
    15   17   16 1
    16   18   16 ar
    17   19   18 1
    18   20   18 ar
    19   21   20 1
    20   22   11 2
    21   23   13 1
    22   24   13 ar
    23   25    6 1
    24   26   25 2
    25   27   25 2
    26   28   23 1
    27    7    9 ar
    28   20   24 ar
    29   22   23 1
@<TRIPOS>SUBSTRUCTURE
     1 RES1 1

@<TRIPOS>CRYSIN
   4.5731   10.1399   11.9298  84.3160  89.3600  87.5160   2 1

