# MOL2 file generated by ConQuest
# Please check atom types

@<TRIPOS>MOLECULE
QUZREJ02
    74    76     2
SMALL
NO_CHARGES
****
Generated from CSD

@<TRIPOS>ATOM
      1 O1         3.5094    7.8242   -2.0496 O.3       1 RES1    0.0000
      2 O2         3.3868    6.2729   -4.0791 O.3       1 RES1    0.0000
      3 O3        -3.2337    1.9755    5.8164 O.2       1 RES1    0.0000
      4 O4        -2.9264    3.7804    6.9737 O.2       1 RES1    0.0000
      5 N1        -2.7605    3.1048    5.9683 N.pl3     1 RES1    0.0000
      6 N2         1.7674    7.4069    2.5240 N.1       1 RES1    0.0000
      7 C1         2.8089    6.6787   -1.8504 C.ar      1 RES1    0.0000
      8 C2         0.5282    5.2497    1.8090 C.2       1 RES1    0.0000
      9 C3         0.6979    4.6977    0.5939 C.2       1 RES1    0.0000
     10 H1         0.2497    3.8906    0.4802 H         1 RES1    0.0000
     11 C4        -0.3508    4.6945    2.8756 C.ar      1 RES1    0.0000
     12 C5         2.1670    6.3442   -0.6808 C.ar      1 RES1    0.0000
     13 H2         2.2041    6.9216    0.0465 H         1 RES1    0.0000
     14 C6        -0.3189    5.2334    4.1599 C.ar      1 RES1    0.0000
     15 H3         0.2517    5.9446    4.3411 H         1 RES1    0.0000
     16 C7        -1.9370    3.6563    4.8900 C.ar      1 RES1    0.0000
     17 C8         2.7482    5.8215   -2.9726 C.ar      1 RES1    0.0000
     18 C9         1.4493    5.1263   -0.5763 C.ar      1 RES1    0.0000
     19 C10        1.2215    6.4584    2.1828 C.1       1 RES1    0.0000
     20 C11        2.0600    4.6217   -2.8695 C.ar      1 RES1    0.0000
     21 H4         2.0266    4.0404   -3.5948 H         1 RES1    0.0000
     22 C12       -1.2338    3.6372    2.6193 C.ar      1 RES1    0.0000
     23 H5        -1.2942    3.2895    1.7587 H         1 RES1    0.0000
     24 C13       -2.0177    3.1036    3.6279 C.ar      1 RES1    0.0000
     25 H6        -2.5874    2.3879    3.4582 H         1 RES1    0.0000
     26 C14       -1.1207    4.7300    5.1722 C.ar      1 RES1    0.0000
     27 H7        -1.1080    5.1083    6.0224 H         1 RES1    0.0000
     28 C15        1.4239    4.2927   -1.6852 C.ar      1 RES1    0.0000
     29 H8         0.9637    3.4860   -1.6306 H         1 RES1    0.0000
     30 C16        3.4742    8.8169   -1.0220 C.3       1 RES1    0.0000
     31 H9         2.5624    9.0541   -0.8364 H         1 RES1    0.0000
     32 H10        3.9533    9.5958   -1.3137 H         1 RES1    0.0000
     33 H11        3.8829    8.4685   -0.2267 H         1 RES1    0.0000
     34 C17        3.3251    5.4522   -5.2517 C.3       1 RES1    0.0000
     35 H12        3.7361    4.6038   -5.0705 H         1 RES1    0.0000
     36 H13        3.7898    5.8872   -5.9703 H         1 RES1    0.0000
     37 H14        2.4071    5.3171   -5.5000 H         1 RES1    0.0000
     38 O5         2.9520    1.7140    3.9284 O.3       2 RES2    0.0000
     39 O6         4.2758   -0.1798    2.8073 O.3       2 RES2    0.0000
     40 O7        -1.3434   -3.7372   13.5701 O.2       2 RES2    0.0000
     41 O8        -2.2952   -1.8166   13.8589 O.2       2 RES2    0.0000
     42 N3        -1.5858   -2.5788   13.2172 N.pl3     2 RES2    0.0000
     43 N4        -0.3719    1.4978    7.4621 N.1       2 RES2    0.0000
     44 C18        2.9803    0.5348    4.6179 C.ar      2 RES2    0.0000
     45 C19        3.1754   -1.9445    5.8459 C.ar      2 RES2    0.0000
     46 H15        3.2538   -2.7718    6.2617 H         2 RES2    0.0000
     47 C20        2.4157   -0.9549    6.4420 C.ar      2 RES2    0.0000
     48 C21        2.3290    0.3065    5.8044 C.ar      2 RES2    0.0000
     49 H16        1.8273    0.9858    6.1927 H         2 RES2    0.0000
     50 C22        0.1369    0.5511    7.8493 C.1       2 RES2    0.0000
     51 C23       -0.9780   -2.1012   11.9760 C.ar      2 RES2    0.0000
     52 C24       -1.3340   -0.8473   11.5043 C.ar      2 RES2    0.0000
     53 H17       -1.9429   -0.3203   11.9687 H         2 RES2    0.0000
     54 C25        0.1439   -1.1698    9.6137 C.ar      2 RES2    0.0000
     55 C26       -0.7657   -0.3978   10.3300 C.ar      2 RES2    0.0000
     56 H18       -0.9961    0.4438   10.0086 H         2 RES2    0.0000
     57 C27        3.8240   -1.7252    4.6379 C.ar      2 RES2    0.0000
     58 H19        4.3281   -2.4035    4.2510 H         2 RES2    0.0000
     59 C28        3.7208   -0.4925    4.0077 C.ar      2 RES2    0.0000
     60 C29        1.7533   -1.2817    7.7032 C.2       2 RES2    0.0000
     61 H20        2.0826   -2.0444    8.1232 H         2 RES2    0.0000
     62 C30        0.7435   -0.6689    8.3686 C.2       2 RES2    0.0000
     63 C31        0.4682   -2.4397   10.1199 C.ar      2 RES2    0.0000
     64 H21        1.0679   -2.9803    9.6580 H         2 RES2    0.0000
     65 C32       -0.0937   -2.8925   11.2930 C.ar      2 RES2    0.0000
     66 H22        0.1271   -3.7353   11.6209 H         2 RES2    0.0000
     67 C33        4.9561   -1.2229    2.1051 C.3       2 RES2    0.0000
     68 H23        5.7111   -1.5152    2.6218 H         2 RES2    0.0000
     69 H24        5.2572   -0.8929    1.2560 H         2 RES2    0.0000
     70 H25        4.3571   -1.9603    1.9685 H         2 RES2    0.0000
     71 C34        2.2524    2.8011    4.5397 C.3       2 RES2    0.0000
     72 H26        1.3319    2.5604    4.6622 H         2 RES2    0.0000
     73 H27        2.3091    3.5755    3.9750 H         2 RES2    0.0000
     74 H28        2.6486    2.9969    5.3930 H         2 RES2    0.0000
@<TRIPOS>BOND
     1    1    7 1
     2    2   17 1
     3    3    5 2
     4    4    5 2
     5    5   16 1
     6    6   19 3
     7    7   12 ar
     8    8    9 2
     9    9   10 1
    10   11    8 1
    11   12   13 1
    12   14   11 ar
    13   15   14 1
    14   16   24 ar
    15   17    7 ar
    16   18    9 1
    17   19    8 1
    18   20   17 ar
    19   21   20 1
    20   22   11 ar
    21   23   22 1
    22   24   22 ar
    23   25   24 1
    24   26   14 ar
    25   27   26 1
    26   28   18 ar
    27   29   28 1
    28   30    1 1
    29   31   30 1
    30   32   30 1
    31   33   30 1
    32   34    2 1
    33   35   34 1
    34   36   34 1
    35   37   34 1
    36   38   44 1
    37   39   59 1
    38   40   42 2
    39   41   42 2
    40   42   51 1
    41   43   50 3
    42   44   48 ar
    43   45   46 1
    44   47   45 ar
    45   48   47 ar
    46   49   48 1
    47   50   62 1
    48   51   52 ar
    49   52   53 1
    50   54   55 ar
    51   55   52 ar
    52   56   55 1
    53   57   45 ar
    54   58   57 1
    55   59   44 ar
    56   60   47 1
    57   61   60 1
    58   62   54 1
    59   63   54 ar
    60   64   63 1
    61   65   51 ar
    62   66   65 1
    63   67   39 1
    64   68   67 1
    65   69   67 1
    66   70   67 1
    67   71   38 1
    68   72   71 1
    69   73   71 1
    70   74   71 1
    71   12   18 ar
    72   16   26 ar
    73   20   28 ar
    74   57   59 ar
    75   60   62 2
    76   63   65 ar
@<TRIPOS>SUBSTRUCTURE
     1 RES1 1
     2 RES2 38

@<TRIPOS>CRYSIN
   8.6636   11.9452   14.3305 100.5270  90.9170  95.6400   2 1

