# MOL2 file generated by ConQuest
# Please check atom types

@<TRIPOS>MOLECULE
QUZREJ01
    74    76     2
SMALL
NO_CHARGES
****
Generated from CSD

@<TRIPOS>ATOM
      1 O1        -1.7812   12.2665    5.6431 O.3       1 RES1    0.0000
      2 O2        -0.4159   11.6533    7.7259 O.3       1 RES1    0.0000
      3 O3         7.8079    3.5120    5.2268 O.2       1 RES1    0.0000
      4 O4         6.8182    3.3199    3.3010 O.2       1 RES1    0.0000
      5 N1         3.6113    8.8698    8.2874 N.1       1 RES1    0.0000
      6 N2         6.9336    3.8219    4.4257 N.pl3     1 RES1    0.0000
      7 C1         3.2452    7.9517    5.8918 C.2       1 RES1    0.0000
      8 C2        -0.0521   11.0011    6.5862 C.ar      1 RES1    0.0000
      9 C3         0.9618   10.0728    6.4925 C.ar      1 RES1    0.0000
     10 H1         1.4653    9.8479    7.2670 H         1 RES1    0.0000
     11 C4         4.8399    5.0543    4.0440 C.ar      1 RES1    0.0000
     12 H2         4.6840    4.5212    3.2727 H         1 RES1    0.0000
     13 C5         4.1808    6.8622    5.5261 C.ar      1 RES1    0.0000
     14 C6        -0.8120   11.3436    5.4409 C.ar      1 RES1    0.0000
     15 C7         5.9717    4.8568    4.8202 C.ar      1 RES1    0.0000
     16 C8         3.9445    6.0380    4.4111 C.ar      1 RES1    0.0000
     17 H3         3.1524    6.1609    3.9012 H         1 RES1    0.0000
     18 C9         3.4276    8.4797    7.2220 C.1       1 RES1    0.0000
     19 C10        2.2967    8.4537    5.0585 C.2       1 RES1    0.0000
     20 H4         2.3147    8.0832    4.1840 H         1 RES1    0.0000
     21 C11        1.2641    9.4487    5.2566 C.ar      1 RES1    0.0000
     22 C12        5.3225    6.6095    6.2947 C.ar      1 RES1    0.0000
     23 H5         5.4913    7.1402    7.0639 H         1 RES1    0.0000
     24 C13       -0.5198   10.7339    4.2277 C.ar      1 RES1    0.0000
     25 H6        -1.0206   10.9608    3.4528 H         1 RES1    0.0000
     26 C14        6.2107    5.6028    5.9589 C.ar      1 RES1    0.0000
     27 H7         6.9712    5.4280    6.5008 H         1 RES1    0.0000
     28 C15        0.4990    9.7949    4.1402 C.ar      1 RES1    0.0000
     29 H8         0.6791    9.3803    3.3054 H         1 RES1    0.0000
     30 C16       -2.6427   12.5771    4.5348 C.3       1 RES1    0.0000
     31 H9        -2.1177   12.9921    3.8190 H         1 RES1    0.0000
     32 H10       -3.3425   13.1975    4.8281 H         1 RES1    0.0000
     33 H11       -3.0556   11.7532    4.2009 H         1 RES1    0.0000
     34 C17        0.2414   11.2774    8.9442 C.3       1 RES1    0.0000
     35 H12        0.1163   10.3183    9.1003 H         1 RES1    0.0000
     36 H13       -0.1420   11.7821    9.6913 H         1 RES1    0.0000
     37 H14        1.1992   11.4744    8.8731 H         1 RES1    0.0000
     38 O5         9.9059    1.5617    9.5793 O.3       2 RES2    0.0000
     39 O6        10.4869    0.1929   11.6735 O.3       2 RES2    0.0000
     40 O7         0.8358    8.0255   13.7605 O.2       2 RES2    0.0000
     41 O8         0.8684    8.8669   11.7658 O.2       2 RES2    0.0000
     42 N3         1.3107    8.1139   12.6254 N.pl3     2 RES2    0.0000
     43 N4         7.0707    5.5215    9.1899 N.1       2 RES2    0.0000
     44 C18        4.0910    6.5529   10.7105 C.ar      2 RES2    0.0000
     45 H15        4.4988    6.6333    9.8569 H         2 RES2    0.0000
     46 C19        7.9744    2.5791   10.6536 C.ar      2 RES2    0.0000
     47 H16        7.7783    3.1092    9.8907 H         2 RES2    0.0000
     48 C20        5.7057    4.7185   11.2436 C.2       2 RES2    0.0000
     49 C21        8.5247    0.9977   12.8787 C.ar      2 RES2    0.0000
     50 H17        8.7022    0.4474   13.6336 H         2 RES2    0.0000
     51 C22        2.4466    7.2517   12.2818 C.ar      2 RES2    0.0000
     52 C23        4.5714    5.6002   11.6086 C.ar      2 RES2    0.0000
     53 C24        3.0332    7.3835   11.0354 C.ar      2 RES2    0.0000
     54 H18        2.7161    8.0304   10.4165 H         2 RES2    0.0000
     55 C25        2.9087    6.3395   13.2072 C.ar      2 RES2    0.0000
     56 H19        2.5010    6.2770   14.0638 H         2 RES2    0.0000
     57 C26        7.4372    1.8556   12.8914 C.ar      2 RES2    0.0000
     58 H20        6.8737    1.8834   13.6554 H         2 RES2    0.0000
     59 C27        7.1551    2.6794   11.8022 C.ar      2 RES2    0.0000
     60 C28        6.4686    5.1398   10.0920 C.1       2 RES2    0.0000
     61 C29        9.0517    1.7224   10.6282 C.ar      2 RES2    0.0000
     62 C30        9.3592    0.9371   11.7665 C.ar      2 RES2    0.0000
     63 C31        3.9669    5.5196   12.8780 C.ar      2 RES2    0.0000
     64 H21        4.2919    4.8937   13.5140 H         2 RES2    0.0000
     65 C32        6.0495    3.6090   11.9489 C.2       2 RES2    0.0000
     66 H22        5.4618    3.4046   12.6668 H         2 RES2    0.0000
     67 C33        9.6950    2.3767    8.4156 C.3       2 RES2    0.0000
     68 H23        8.8018    2.2013    8.0513 H         2 RES2    0.0000
     69 H24       10.3713    2.1622    7.7395 H         2 RES2    0.0000
     70 H25        9.7679    3.3228    8.6616 H         2 RES2    0.0000
     71 C34       10.8850   -0.5451   12.8402 C.3       2 RES2    0.0000
     72 H26       10.9992    0.0716   13.5937 H         2 RES2    0.0000
     73 H27       11.7322   -1.0050   12.6631 H         2 RES2    0.0000
     74 H28       10.1948   -1.2054   13.0595 H         2 RES2    0.0000
@<TRIPOS>BOND
     1    1   14 1
     2    2    8 1
     3    3    6 2
     4    4    6 2
     5    5   18 3
     6    6   15 1
     7    7   13 1
     8    8    9 ar
     9    9   10 1
    10   11   12 1
    11   13   16 ar
    12   14    8 ar
    13   15   11 ar
    14   16   11 ar
    15   17   16 1
    16   18    7 1
    17   19    7 2
    18   20   19 1
    19   21    9 ar
    20   22   13 ar
    21   23   22 1
    22   24   14 ar
    23   25   24 1
    24   26   15 ar
    25   27   26 1
    26   28   21 ar
    27   29   28 1
    28   30    1 1
    29   31   30 1
    30   32   30 1
    31   33   30 1
    32   34    2 1
    33   35   34 1
    34   36   34 1
    35   37   34 1
    36   38   61 1
    37   39   62 1
    38   40   42 2
    39   41   42 2
    40   42   51 1
    41   43   60 3
    42   44   45 1
    43   46   47 1
    44   48   52 1
    45   49   50 1
    46   51   53 ar
    47   52   44 ar
    48   53   44 ar
    49   54   53 1
    50   55   51 ar
    51   56   55 1
    52   57   49 ar
    53   58   57 1
    54   59   46 ar
    55   60   48 1
    56   61   46 ar
    57   62   49 ar
    58   63   52 ar
    59   64   63 1
    60   65   48 2
    61   66   65 1
    62   67   38 1
    63   68   67 1
    64   69   67 1
    65   70   67 1
    66   71   39 1
    67   72   71 1
    68   73   71 1
    69   74   71 1
    70   19   21 1
    71   22   26 ar
    72   24   28 ar
    73   55   63 ar
    74   57   59 ar
    75   59   65 1
    76   61   62 ar
@<TRIPOS>SUBSTRUCTURE
     1 RES1 1
     2 RES2 38

@<TRIPOS>CRYSIN
  10.2321   11.9576   12.2700  91.0010  99.5610 100.1880   2 1

