# MOL2 file generated by ConQuest
# Please check atom types

@<TRIPOS>MOLECULE
QUZREJ03
    74    76     2
SMALL
NO_CHARGES
****
Generated from CSD

@<TRIPOS>ATOM
      1 O1         6.0145    8.3380   19.3294 O.3       1 RES1    0.0000
      2 O2         5.9710   10.1730   17.5324 O.3       1 RES1    0.0000
      3 O3        11.3052    4.5645    8.5090 O.2       1 RES1    0.0000
      4 O4        10.9320    6.4358    7.4801 O.2       1 RES1    0.0000
      5 N1         7.2938   10.1674   12.7911 N.1       1 RES1    0.0000
      6 N2        10.8600    5.7071    8.4673 N.pl3     1 RES1    0.0000
      7 C1         7.5588    7.4635   15.5623 C.ar      1 RES1    0.0000
      8 C2         8.2490    7.7881   13.1110 C.2       1 RES1    0.0000
      9 C3         8.9286    7.2452   11.9081 C.ar      1 RES1    0.0000
     10 C4         6.5288    7.9803   18.1271 C.ar      1 RES1    0.0000
     11 C5         6.5077    8.9816   17.1334 C.ar      1 RES1    0.0000
     12 C6         9.7770    6.1323   11.9947 C.ar      1 RES1    0.0000
     13 H1         9.9208    5.7210   12.8379 H         1 RES1    0.0000
     14 C7         7.5745    6.4872   16.5547 C.ar      1 RES1    0.0000
     15 H2         7.9395    5.6316   16.3601 H         1 RES1    0.0000
     16 C8         7.0175    8.7295   15.8803 C.ar      1 RES1    0.0000
     17 H3         7.0049    9.4141   15.2211 H         1 RES1    0.0000
     18 C9         7.0663    6.7388   17.8245 C.ar      1 RES1    0.0000
     19 H4         7.0871    6.0583   18.4860 H         1 RES1    0.0000
     20 C10        7.7157    9.1134   12.9588 C.1       1 RES1    0.0000
     21 C11       10.4045    5.6250   10.8810 C.ar      1 RES1    0.0000
     22 H5        10.9723    4.8660   10.9491 H         1 RES1    0.0000
     23 C12        8.7575    7.8488   10.6602 C.ar      1 RES1    0.0000
     24 H6         8.1906    8.6070   10.5818 H         1 RES1    0.0000
     25 C13        9.3987    7.3616    9.5356 C.ar      1 RES1    0.0000
     26 H7         9.2935    7.7891    8.6945 H         1 RES1    0.0000
     27 C14       10.1944    6.2402    9.6611 C.ar      1 RES1    0.0000
     28 C15        8.1204    7.0997   14.2719 C.2       1 RES1    0.0000
     29 H8         8.4605    6.2134   14.2356 H         1 RES1    0.0000
     30 C16        6.0873    7.3763   20.3885 C.3       1 RES1    0.0000
     31 H9         5.5426    6.5947   20.1580 H         1 RES1    0.0000
     32 H10        5.7512    7.7766   21.2179 H         1 RES1    0.0000
     33 H11        7.0187    7.0987   20.5144 H         1 RES1    0.0000
     34 C17        6.0561   11.2733   16.6225 C.3       1 RES1    0.0000
     35 H12        6.9921   11.4162   16.3693 H         1 RES1    0.0000
     36 H13        5.7069   12.0816   17.0527 H         1 RES1    0.0000
     37 H14        5.5282   11.0754   15.8208 H         1 RES1    0.0000
     38 O5         5.7178    4.0137   11.2520 O.3       2 RES2    0.0000
     39 O6         4.7065    2.0801   12.5984 O.3       2 RES2    0.0000
     40 O7         8.4592   -1.5323    1.0960 O.2       2 RES2    0.0000
     41 O8         9.2345    0.4116    0.5574 O.2       2 RES2    0.0000
     42 N3         8.6648   -0.3385    1.3334 N.pl3     2 RES2    0.0000
     43 N4         8.2997    3.8984    7.0919 N.1       2 RES2    0.0000
     44 C18        5.6199    2.8281   10.5810 C.ar      2 RES2    0.0000
     45 C19        7.7512    2.9293    6.8253 C.1       2 RES2    0.0000
     46 C20        5.0403    1.7763   11.3158 C.ar      2 RES2    0.0000
     47 C21        4.8729    0.5374   10.7186 C.ar      2 RES2    0.0000
     48 H15        4.4747   -0.1739   11.2063 H         2 RES2    0.0000
     49 C22        8.1096    1.9891    4.1796 C.ar      2 RES2    0.0000
     50 H16        8.2995    2.8918    4.4069 H         2 RES2    0.0000
     51 C23        5.2831    0.3334    9.4138 C.ar      2 RES2    0.0000
     52 H17        5.1547   -0.5188    9.0137 H         2 RES2    0.0000
     53 C24        7.4647    1.1697    5.1085 C.ar      2 RES2    0.0000
     54 C25        7.1206    1.6861    6.4506 C.2       2 RES2    0.0000
     55 C26        5.8824    1.3538    8.6739 C.ar      2 RES2    0.0000
     56 C27        8.2070    0.2000    2.6229 C.ar      2 RES2    0.0000
     57 C28        6.0328    2.6174    9.2819 C.ar      2 RES2    0.0000
     58 H18        6.4227    3.3313    8.7921 H         2 RES2    0.0000
     59 C29        6.3456    5.1095   10.5725 C.3       2 RES2    0.0000
     60 H19        7.2712    4.8725   10.3556 H         2 RES2    0.0000
     61 H20        6.3386    5.9002   11.1520 H         2 RES2    0.0000
     62 H21        5.8562    5.3050    9.7466 H         2 RES2    0.0000
     63 C30        8.4754    1.5105    2.9348 C.ar      2 RES2    0.0000
     64 H22        8.9056    2.0784    2.3057 H         2 RES2    0.0000
     65 C31        7.5608   -0.6336    3.5068 C.ar      2 RES2    0.0000
     66 H23        7.3751   -1.5350    3.2695 H         2 RES2    0.0000
     67 C32        6.2955    1.0375    7.3083 C.2       2 RES2    0.0000
     68 H24        5.9201    0.2369    6.9605 H         2 RES2    0.0000
     69 C33        4.1384    1.0296   13.3911 C.3       2 RES2    0.0000
     70 H25        3.3035    0.7229   12.9774 H         2 RES2    0.0000
     71 H26        3.9529    1.3650   14.2930 H         2 RES2    0.0000
     72 H27        4.7697    0.2824   13.4438 H         2 RES2    0.0000
     73 C34        7.1860   -0.1469    4.7422 C.ar      2 RES2    0.0000
     74 H28        6.7324   -0.7167    5.3521 H         2 RES2    0.0000
@<TRIPOS>BOND
     1    1   10 1
     2    2   11 1
     3    3    6 2
     4    4    6 2
     5    5   20 3
     6    6   27 1
     7    7   14 ar
     8    8    9 1
     9    9   12 ar
    10   10   11 ar
    11   11   16 ar
    12   12   13 1
    13   14   15 1
    14   16    7 ar
    15   17   16 1
    16   18   10 ar
    17   19   18 1
    18   20    8 1
    19   21   12 ar
    20   22   21 1
    21   23    9 ar
    22   24   23 1
    23   25   23 ar
    24   26   25 1
    25   27   21 ar
    26   28    7 1
    27   29   28 1
    28   30    1 1
    29   31   30 1
    30   32   30 1
    31   33   30 1
    32   34    2 1
    33   35   34 1
    34   36   34 1
    35   37   34 1
    36   38   44 1
    37   39   46 1
    38   40   42 2
    39   41   42 2
    40   42   56 1
    41   43   45 3
    42   44   46 ar
    43   45   54 1
    44   46   47 ar
    45   47   48 1
    46   49   50 1
    47   51   47 ar
    48   52   51 1
    49   53   49 ar
    50   54   53 1
    51   55   51 ar
    52   56   63 ar
    53   57   44 ar
    54   58   57 1
    55   59   38 1
    56   60   59 1
    57   61   59 1
    58   62   59 1
    59   63   49 ar
    60   64   63 1
    61   65   56 ar
    62   66   65 1
    63   67   54 2
    64   68   67 1
    65   69   39 1
    66   70   69 1
    67   71   69 1
    68   72   69 1
    69   73   53 ar
    70   74   73 1
    71    8   28 2
    72   14   18 ar
    73   25   27 ar
    74   55   57 ar
    75   55   67 1
    76   65   73 ar
@<TRIPOS>SUBSTRUCTURE
     1 RES1 1
     2 RES2 38

@<TRIPOS>CRYSIN
   7.6956   12.3234   15.6647  82.0790  86.3800  84.4590   2 1

