# MOL2 file generated by ConQuest
# Please check atom types

@<TRIPOS>MOLECULE
QUZREJ
    74    76     2
SMALL
NO_CHARGES
****
Generated from CSD

@<TRIPOS>ATOM
      1 O1         5.3872    9.3107    8.5536 O.3       1 RES1    0.0000
      2 O2         4.8110   10.6861    6.4603 O.3       1 RES1    0.0000
      3 O3        14.4107    2.0158    6.3646 O.2       1 RES1    0.0000
      4 O4        14.4480    2.8620    4.3710 O.2       1 RES1    0.0000
      5 N1         8.2217    5.3556    8.9424 N.1       1 RES1    0.0000
      6 N2        13.9735    2.7683    5.5027 N.pl3     1 RES1    0.0000
      7 C1         8.1307    8.1901    6.3253 C.ar      1 RES1    0.0000
      8 C2         7.3134    8.2882    7.4760 C.ar      1 RES1    0.0000
      9 H1         7.5068    7.7547    8.2380 H         1 RES1    0.0000
     10 C3         6.2398    9.1501    7.5012 C.ar      1 RES1    0.0000
     11 C4         5.9335    9.9334    6.3608 C.ar      1 RES1    0.0000
     12 C5         6.7660    9.8789    5.2527 C.ar      1 RES1    0.0000
     13 H2         6.5911   10.4350    4.5017 H         1 RES1    0.0000
     14 C6         7.8512    9.0172    5.2366 C.ar      1 RES1    0.0000
     15 H3         8.4142    8.9890    4.4715 H         1 RES1    0.0000
     16 C7         5.6007    8.4936    9.7137 C.3       1 RES1    0.0000
     17 H4         4.9251    8.7045   10.3915 H         1 RES1    0.0000
     18 H5         6.4937    8.6696   10.0771 H         1 RES1    0.0000
     19 H6         5.5295    7.5477    9.4653 H         1 RES1    0.0000
     20 C8         4.4137   11.4244    5.2910 C.3       1 RES1    0.0000
     21 H7         3.5975   11.9310    5.4859 H         1 RES1    0.0000
     22 H8         4.2431   10.8016    4.5537 H         1 RES1    0.0000
     23 H9         5.1301   12.0428    5.0361 H         1 RES1    0.0000
     24 C9         9.2412    7.2646    6.1805 C.2       1 RES1    0.0000
     25 H10        9.8323    7.4719    5.4666 H         1 RES1    0.0000
     26 C10        9.5839    6.1562    6.8844 C.2       1 RES1    0.0000
     27 C11        8.8202    5.7387    8.0409 C.1       1 RES1    0.0000
     28 C12       10.7123    5.2746    6.5199 C.ar      1 RES1    0.0000
     29 C13       11.1897    4.3236    7.4246 C.ar      1 RES1    0.0000
     30 H11       10.7810    4.2439    8.2779 H         1 RES1    0.0000
     31 C14       12.2504    3.4948    7.0966 C.ar      1 RES1    0.0000
     32 H12       12.5701    2.8480    7.7144 H         1 RES1    0.0000
     33 C15       12.8337    3.6300    5.8512 C.ar      1 RES1    0.0000
     34 C16       12.3791    4.5383    4.9246 C.ar      1 RES1    0.0000
     35 H13       12.7896    4.6006    4.0700 H         1 RES1    0.0000
     36 C17       11.3192    5.3570    5.2526 C.ar      1 RES1    0.0000
     37 H14       10.9947    5.9833    4.6165 H         1 RES1    0.0000
     38 O5         3.3634   10.9796   10.4085 O.3       2 RES2    0.0000
     39 O6         4.7275   10.3631   12.4914 O.3       2 RES2    0.0000
     40 O7        -4.8458   19.1107   12.9095 O.2       2 RES2    0.0000
     41 O8        -3.8553   19.2962   14.8346 O.2       2 RES2    0.0000
     42 N3        -0.6591   13.7640    9.8463 N.1       2 RES2    0.0000
     43 N4        -3.9732   18.8028   13.7142 N.pl3     2 RES2    0.0000
     44 C18        1.6889   13.1775   12.8772 C.ar      2 RES2    0.0000
     45 C19        1.9873   12.5576   11.6422 C.ar      2 RES2    0.0000
     46 H15        1.4832   12.7822   10.8691 H         2 RES2    0.0000
     47 C20        3.0047   11.6283   11.5490 C.ar      2 RES2    0.0000
     48 C21        3.7584   11.2857   12.6907 C.ar      2 RES2    0.0000
     49 C22        3.4726   11.8917   13.9060 C.ar      2 RES2    0.0000
     50 H16        3.9755   11.6633   14.6791 H         2 RES2    0.0000
     51 C23        2.4543   12.8288   13.9961 C.ar      2 RES2    0.0000
     52 H17        2.2724   13.2419   14.8327 H         2 RES2    0.0000
     53 C24        2.7086   11.3595    9.1930 C.3       2 RES2    0.0000
     54 H18        3.0554   10.8190    8.4520 H         2 RES2    0.0000
     55 H19        2.8793   12.3079    9.0130 H         2 RES2    0.0000
     56 H20        1.7442   11.2127    9.2815 H         2 RES2    0.0000
     57 C25        5.5899   10.0524   13.5997 C.3       2 RES2    0.0000
     58 H21        6.2432    9.3755   13.3261 H         2 RES2    0.0000
     59 H22        5.0538    9.7069   14.3442 H         2 RES2    0.0000
     60 H23        6.0606   10.8633   13.8847 H         2 RES2    0.0000
     61 C26        0.6570   14.1765   13.0763 C.2       2 RES2    0.0000
     62 H24        0.6419   14.5500   13.9500 H         2 RES2    0.0000
     63 C27       -0.2893   14.6752   12.2441 C.2       2 RES2    0.0000
     64 C28       -0.4721   14.1542   10.9101 C.1       2 RES2    0.0000
     65 C29       -1.2241   15.7646   12.6070 C.ar      2 RES2    0.0000
     66 C30       -2.3631   16.0141   11.8403 C.ar      2 RES2    0.0000
     67 H25       -2.5319   15.4800   11.0734 H         2 RES2    0.0000
     68 C31       -3.2559   17.0264   12.1740 C.ar      2 RES2    0.0000
     69 H26       -4.0143   17.2067   11.6309 H         2 RES2    0.0000
     70 C32       -3.0106   17.7629   13.3162 C.ar      2 RES2    0.0000
     71 C33       -1.8839   17.5678   14.0900 C.ar      2 RES2    0.0000
     72 H27       -1.7285   18.1005   14.8605 H         2 RES2    0.0000
     73 C34       -0.9878   16.5838   13.7228 C.ar      2 RES2    0.0000
     74 H28       -0.1970   16.4584   14.2342 H         2 RES2    0.0000
@<TRIPOS>BOND
     1    1   10 1
     2    2   11 1
     3    3    6 2
     4    4    6 2
     5    5   27 3
     6    6   33 1
     7    7    8 ar
     8    8    9 1
     9   10    8 ar
    10   11   10 ar
    11   12   11 ar
    12   13   12 1
    13   14    7 ar
    14   15   14 1
    15   16    1 1
    16   17   16 1
    17   18   16 1
    18   19   16 1
    19   20    2 1
    20   21   20 1
    21   22   20 1
    22   23   20 1
    23   24    7 1
    24   25   24 1
    25   26   24 2
    26   27   26 1
    27   28   26 1
    28   29   28 ar
    29   30   29 1
    30   31   29 ar
    31   32   31 1
    32   33   31 ar
    33   34   33 ar
    34   35   34 1
    35   36   28 ar
    36   37   36 1
    37   38   47 1
    38   39   48 1
    39   40   43 2
    40   41   43 2
    41   42   64 3
    42   43   70 1
    43   44   45 ar
    44   45   46 1
    45   47   45 ar
    46   48   47 ar
    47   49   48 ar
    48   50   49 1
    49   51   44 ar
    50   52   51 1
    51   53   38 1
    52   54   53 1
    53   55   53 1
    54   56   53 1
    55   57   39 1
    56   58   57 1
    57   59   57 1
    58   60   57 1
    59   61   44 1
    60   62   61 1
    61   63   61 2
    62   64   63 1
    63   65   63 1
    64   66   65 ar
    65   67   66 1
    66   68   66 ar
    67   69   68 1
    68   70   68 ar
    69   71   70 ar
    70   72   71 1
    71   73   65 ar
    72   74   73 1
    73   12   14 ar
    74   34   36 ar
    75   49   51 ar
    76   71   73 ar
@<TRIPOS>SUBSTRUCTURE
     1 RES1 1
     2 RES2 38

@<TRIPOS>CRYSIN
  10.2211   11.9460   12.2764  91.0940  99.5420 100.1560   2 1

