# MOL2 file generated by ConQuest
# Please check atom types

@<TRIPOS>MOLECULE
QUZVEN
    69    63     2
SMALL
NO_CHARGES
****
Generated from CSD

@<TRIPOS>ATOM
      1 C1         5.1895    2.7788    3.7007 C.3       1 RES1    0.0000
      2 C2         6.7014    3.0566    3.6718 C.3       1 RES1    0.0000
      3 H1         7.0542    2.9804    2.7498 H         1 RES1    0.0000
      4 H2         6.8980    3.9644    4.0157 H         1 RES1    0.0000
      5 C3         7.3055    2.0045    4.5649 C.ar      1 RES1    0.0000
      6 C4         8.6466    1.8082    4.8702 C.ar      1 RES1    0.0000
      7 H3         9.3160    2.3677    4.4953 H         1 RES1    0.0000
      8 C5         8.9878    0.7785    5.7344 C.ar      1 RES1    0.0000
      9 H4         9.9024    0.6306    5.9461 H         1 RES1    0.0000
     10 C6         8.0116   -0.0455    6.2982 C.ar      1 RES1    0.0000
     11 H5         8.2691   -0.7414    6.8917 H         1 RES1    0.0000
     12 C7         6.6802    0.1419    6.0029 C.ar      1 RES1    0.0000
     13 H6         6.0112   -0.4118    6.3881 H         1 RES1    0.0000
     14 C8         6.3422    1.1707    5.1186 C.ar      1 RES1    0.0000
     15 C9         5.0173    1.5611    4.6232 C.2       1 RES1    0.0000
     16 C10        4.2838    3.9433    4.1834 C.3       1 RES1    0.0000
     17 H7         3.4281    3.5521    4.5208 H         1 RES1    0.0000
     18 C11        4.8639    4.8198    5.2737 C.ar      1 RES1    0.0000
     19 C12        4.7840    4.5167    6.6211 C.ar      1 RES1    0.0000
     20 H8         4.2867    3.7540    6.8917 H         1 RES1    0.0000
     21 C13        5.4148    5.2993    7.6089 C.ar      1 RES1    0.0000
     22 H9         5.3568    5.0579    8.5260 H         1 RES1    0.0000
     23 C14        6.1122    6.4122    7.2285 C.ar      1 RES1    0.0000
     24 H10        6.5554    6.9370    7.8855 H         1 RES1    0.0000
     25 C15        6.1784    6.7833    5.8880 C.ar      1 RES1    0.0000
     26 H11        6.6410    7.5669    5.6138 H         1 RES1    0.0000
     27 C16        5.5588    5.9834    4.9926 C.ar      1 RES1    0.0000
     28 H12        5.6700    6.3388    4.1179 H         1 RES1    0.0000
     29 C17        2.6076    5.0672    2.7847 C.ar      1 RES1    0.0000
     30 C18        2.0759    5.9898    3.6854 C.ar      1 RES1    0.0000
     31 H13        2.6149    6.3313    4.3885 H         1 RES1    0.0000
     32 C19        0.7639    6.4080    3.5541 C.ar      1 RES1    0.0000
     33 H14        0.4026    7.0232    4.1810 H         1 RES1    0.0000
     34 C20       -0.0270    5.9422    2.5217 C.ar      1 RES1    0.0000
     35 H15       -0.9234    6.2442    2.4295 H         1 RES1    0.0000
     36 C21        0.4971    5.0356    1.6279 C.ar      1 RES1    0.0000
     37 H16       -0.0428    4.7113    0.9171 H         1 RES1    0.0000
     38 C22        1.8076    4.5903    1.7545 C.ar      1 RES1    0.0000
     39 H17        2.1565    3.9591    1.1366 H         1 RES1    0.0000
     40 C23        4.5669    2.5611    2.3046 C.3       1 RES1    0.0000
     41 H18        3.6603    2.1536    2.4115 H         1 RES1    0.0000
     42 C24        5.3464    1.7691    1.2818 C.ar      1 RES1    0.0000
     43 C25        5.3339    0.3796    1.3311 C.ar      1 RES1    0.0000
     44 H19        4.8583   -0.0616    2.0251 H         1 RES1    0.0000
     45 C26        6.0088   -0.3670    0.3799 C.ar      1 RES1    0.0000
     46 H20        6.0019   -1.3146    0.4420 H         1 RES1    0.0000
     47 C27        6.6977    0.2394   -0.6644 C.ar      1 RES1    0.0000
     48 C28        7.3617   -0.5654   -1.7507 C.3       1 RES1    0.0000
     49 H21        7.7910    0.0409   -2.3905 H         1 RES1    0.0000
     50 H22        6.6892   -1.1066   -2.2146 H         1 RES1    0.0000
     51 H23        8.0381   -1.1539   -1.3546 H         1 RES1    0.0000
     52 C29        6.7228    1.6340   -0.6985 C.ar      1 RES1    0.0000
     53 H24        7.2004    2.0752   -1.3907 H         1 RES1    0.0000
     54 C30        6.0650    2.3860    0.2577 C.ar      1 RES1    0.0000
     55 H25        6.1038    3.3348    0.2165 H         1 RES1    0.0000
     56 N1         3.9833    4.7116    2.9400 N.3       1 RES1    0.0000
     57 O1         4.4223    3.9056    1.8190 O.3       1 RES1    0.0000
     58 O2         3.9454    1.0300    4.8693 O.2       1 RES1    0.0000
     59 C31        4.6497    4.2470    6.5504 Du        2 SUP2    0.0000
     60 C32        5.1508    4.9218    7.6254 Du        2 SUP2    0.0000
     61 C33        5.9003    6.0881    7.4796 Du        2 SUP2    0.0000
     62 C34        6.1096    6.6099    6.2227 Du        2 SUP2    0.0000
     63 H26        4.1781    3.4292    6.6542 Du        2 SUP2    0.0000
     64 H27        4.9836    4.5875    8.4989 Du        2 SUP2    0.0000
     65 H28        6.2643    6.5203    8.2433 Du        2 SUP2    0.0000
     66 H29        6.6273    7.4020    6.1385 Du        2 SUP2    0.0000
     67 H30        7.2209   -1.5207   -1.5831 Du        2 SUP2    0.0000
     68 H31        8.3229   -0.3730   -1.7575 Du        2 SUP2    0.0000
     69 H32        6.9746   -0.3258   -2.6190 Du        2 SUP2    0.0000
@<TRIPOS>BOND
     1    1    2 1
     2    2    3 1
     3    4    2 1
     4    5    2 1
     5    6    5 ar
     6    7    6 1
     7    8    6 ar
     8    9    8 1
     9   10    8 ar
    10   11   10 1
    11   12   10 ar
    12   13   12 1
    13   14    5 ar
    14   15    1 1
    15   16    1 1
    16   17   16 1
    17   18   16 1
    18   19   18 ar
    19   20   19 1
    20   21   19 ar
    21   22   21 1
    22   23   21 ar
    23   24   23 1
    24   25   23 ar
    25   26   25 1
    26   27   18 ar
    27   28   27 1
    28   29   30 ar
    29   30   31 1
    30   32   30 ar
    31   33   32 1
    32   34   32 ar
    33   35   34 1
    34   36   34 ar
    35   37   36 1
    36   38   29 ar
    37   39   38 1
    38   40    1 1
    39   41   40 1
    40   42   40 1
    41   43   42 ar
    42   44   43 1
    43   45   43 ar
    44   46   45 1
    45   47   45 ar
    46   48   47 1
    47   49   48 1
    48   50   48 1
    49   51   48 1
    50   52   47 ar
    51   53   52 1
    52   54   42 ar
    53   55   54 1
    54   56   16 1
    55   57   40 1
    56   58   15 2
    57   12   14 ar
    58   14   15 1
    59   25   27 ar
    60   29   56 1
    61   36   38 ar
    62   52   54 ar
    63   56   57 1
@<TRIPOS>SUBSTRUCTURE
     1 RES1 1
     2 SUP2 59

@<TRIPOS>CRYSIN
   8.3336    9.5701   15.3515  81.3930  79.5350  68.3490   2 1

