# MOL2 file generated by ConQuest
# Please check atom types

@<TRIPOS>MOLECULE
RACKUB
    39    40     1
SMALL
NO_CHARGES
****
Generated from CSD

@<TRIPOS>ATOM
      1 O1         6.5433    0.3292    7.0035 O.2       1 RES1    0.0000
      2 O2        10.3083    2.0272    4.7269 O.3       1 RES1    0.0000
      3 O3         9.6111    0.2372    2.2730 O.2       1 RES1    0.0000
      4 O4         9.3906    2.3002    1.6481 O.2       1 RES1    0.0000
      5 O5         3.6141    0.8790    2.0806 O.3       1 RES1    0.0000
      6 O6         4.7161   -0.7793    2.9253 O.2       1 RES1    0.0000
      7 N1         9.1591    1.3631    2.4023 N.pl3     1 RES1    0.0000
      8 C1         6.9594    0.8432    3.5365 C.3       1 RES1    0.0000
      9 C2         8.2772    1.6283    3.5913 C.3       1 RES1    0.0000
     10 C3         9.1094    1.2740    4.8152 C.3       1 RES1    0.0000
     11 C4         8.3539    1.5741    6.0984 C.3       1 RES1    0.0000
     12 C5         6.9865    0.9700    6.0741 C.2       1 RES1    0.0000
     13 C6         6.1830    1.2014    4.8258 C.3       1 RES1    0.0000
     14 C7        11.4352    1.3747    5.2804 C.3       1 RES1    0.0000
     15 C8         6.0856    1.0775    2.2624 C.3       1 RES1    0.0000
     16 C9         5.8841    2.5703    1.9735 C.3       1 RES1    0.0000
     17 C10        4.7179    2.7949    1.0324 C.3       1 RES1    0.0000
     18 C11        3.4827    2.2702    1.6618 C.3       1 RES1    0.0000
     19 C12        4.7624    0.3417    2.4737 C.2       1 RES1    0.0000
     20 C13        6.6871    0.3592    1.0293 C.3       1 RES1    0.0000
     21 H1         7.1923   -0.0871    3.5578 H         1 RES1    0.0000
     22 H2         8.1286    2.5655    3.5578 H         1 RES1    0.0000
     23 H3         9.3063    0.3001    4.7741 H         1 RES1    0.0000
     24 H4         8.8794    1.2392    6.8571 H         1 RES1    0.0000
     25 H5         8.2476    2.5074    6.1425 H         1 RES1    0.0000
     26 H6         5.3399    0.7067    4.8806 H         1 RES1    0.0000
     27 H7         5.9193    2.1201    4.8198 H         1 RES1    0.0000
     28 H8        11.2511    1.0649    6.1425 H         1 RES1    0.0000
     29 H9        12.1535    1.9459    5.2455 H         1 RES1    0.0000
     30 H10       11.6191    0.5809    4.7133 H         1 RES1    0.0000
     31 H11        6.6819    2.9140    1.6117 H         1 RES1    0.0000
     32 H12        5.6904    3.0592    2.8280 H         1 RES1    0.0000
     33 H13        4.8714    2.3331    0.1825 H         1 RES1    0.0000
     34 H14        4.6156    3.7562    0.8666 H         1 RES1    0.0000
     35 H15        2.7199    2.2557    1.0491 H         1 RES1    0.0000
     36 H16        3.2569    2.7591    2.5239 H         1 RES1    0.0000
     37 H17        6.0488    0.3001    0.3041 H         1 RES1    0.0000
     38 H18        7.4417    0.8616    0.6386 H         1 RES1    0.0000
     39 H19        6.9691   -0.5421    1.2468 H         1 RES1    0.0000
@<TRIPOS>BOND
     1    1   12 2
     2    2   10 1
     3    3    7 2
     4    4    7 2
     5    5   18 1
     6    6   19 2
     7    7    9 1
     8    8    9 1
     9    9   10 1
    10   10   11 1
    11   11   12 1
    12   12   13 1
    13   13    8 1
    14   14    2 1
    15   15    8 1
    16   16   15 1
    17   17   16 1
    18   18   17 1
    19   19    5 1
    20   20   15 1
    21   21    8 1
    22   22    9 1
    23   23   10 1
    24   24   11 1
    25   25   11 1
    26   26   13 1
    27   27   13 1
    28   28   14 1
    29   29   14 1
    30   30   14 1
    31   31   16 1
    32   32   16 1
    33   33   17 1
    34   34   17 1
    35   35   18 1
    36   36   18 1
    37   37   20 1
    38   38   20 1
    39   39   20 1
    40   15   19 1
@<TRIPOS>SUBSTRUCTURE
     1 RES1 1

@<TRIPOS>CRYSIN
   9.2700    9.6810   15.2480  90.0000  94.3400  90.0000  14 1

