# MOL2 file generated by ConQuest
# Please check atom types

@<TRIPOS>MOLECULE
RACKUE
    34    36     1
SMALL
USER_CHARGES
****
Generated from CSD

@<TRIPOS>ATOM
      1 O1         7.6539    8.2830    3.0096 O.2       1 RES1   -1.0000
      2 N1         7.4677    9.1091    4.0074 N.pl3     1 RES1    1.0000
      3 C1         6.5429    8.7354    4.9981 C.ar      1 RES1    0.0000
      4 C2         6.3162    9.5447    6.0720 C.ar      1 RES1    0.0000
      5 C3         7.0355   10.7787    6.1848 C.ar      1 RES1    0.0000
      6 C4         7.9333   11.1486    5.1494 C.ar      1 RES1    0.0000
      7 C5         8.1352   10.2762    4.0501 C.ar      1 RES1    0.0000
      8 C6         9.0338   10.5422    2.8860 C.3       1 RES1    0.0000
      9 C7         8.6206   12.3911    5.2488 C.ar      1 RES1    0.0000
     10 C8         8.4232   13.2010    6.3339 C.ar      1 RES1    0.0000
     11 C9         7.5619   12.8214    7.3698 C.ar      1 RES1    0.0000
     12 C10        6.8786   11.6350    7.2956 C.ar      1 RES1    0.0000
     13 C11        5.3384    9.1476    7.1424 C.3       1 RES1    0.0000
     14 C12        5.8406    7.4423    4.7587 C.ar      1 RES1    0.0000
     15 C13        4.5877    7.4469    4.1611 C.ar      1 RES1    0.0000
     16 C14        3.8925    6.2640    3.9721 C.ar      1 RES1    0.0000
     17 C15        4.4299    5.0631    4.3881 C.ar      1 RES1    0.0000
     18 C16        5.6813    5.0472    4.9708 C.ar      1 RES1    0.0000
     19 C17        6.3827    6.2313    5.1566 C.ar      1 RES1    0.0000
     20 H1         9.4979   11.4060    3.0084 H         1 RES1    0.0000
     21 H2         9.6825    9.8050    2.8339 H         1 RES1    0.0000
     22 H3         8.4771   10.5484    2.0748 H         1 RES1    0.0000
     23 H4         9.2434   12.6578    4.5431 H         1 RES1    0.0000
     24 H5         8.8944   14.0666    6.3810 H         1 RES1    0.0000
     25 H6         7.4457   13.4055    8.1437 H         1 RES1    0.0000
     26 H7         6.2834   11.3686    8.0329 H         1 RES1    0.0000
     27 H8         4.6966    9.8894    7.3006 H         1 RES1    0.0000
     28 H9         5.8274    8.9462    7.9641 H         1 RES1    0.0000
     29 H10        4.8333    8.3406    6.8535 H         1 RES1    0.0000
     30 H11        4.2039    8.3022    3.8592 H         1 RES1    0.0000
     31 H12        3.0036    6.2739    3.5267 H         1 RES1    0.0000
     32 H13        3.9406    4.2221    4.2642 H         1 RES1    0.0000
     33 H14        6.0509    4.1976    5.2513 H         1 RES1    0.0000
     34 H15        7.2706    6.2301    5.5557 H         1 RES1    0.0000
@<TRIPOS>BOND
     1    1    2 1
     2    2    3 ar
     3    3    4 ar
     4    4    5 ar
     5    5    6 ar
     6    6    7 ar
     7    7    2 ar
     8    8    7 1
     9    9    6 ar
    10   10    9 ar
    11   11   10 ar
    12   12    5 ar
    13   13    4 1
    14   14    3 1
    15   15   14 ar
    16   16   15 ar
    17   17   16 ar
    18   18   17 ar
    19   19   14 ar
    20   20    8 1
    21   21    8 1
    22   22    8 1
    23   23    9 1
    24   24   10 1
    25   25   11 1
    26   26   12 1
    27   27   13 1
    28   28   13 1
    29   29   13 1
    30   30   15 1
    31   31   16 1
    32   32   17 1
    33   33   18 1
    34   34   19 1
    35   11   12 ar
    36   18   19 ar
@<TRIPOS>SUBSTRUCTURE
     1 RES1 1

@<TRIPOS>CRYSIN
   9.4554   10.6808   12.7524  90.0000  92.8615  90.0000  14 1

