# MOL2 file generated by ConQuest
# Please check atom types

@<TRIPOS>MOLECULE
RACLAL
    31    33     1
SMALL
USER_CHARGES
****
Generated from CSD

@<TRIPOS>ATOM
      1 O1         3.4221    4.8142   14.9243 O.2       1 RES1   -1.0000
      2 N1         4.2755    5.3034   14.0772 N.pl3     1 RES1    1.0000
      3 C1         5.3735    6.0417   14.5508 C.ar      1 RES1    0.0000
      4 C2         5.4707    6.1851   16.0259 C.ar      1 RES1    0.0000
      5 C3         4.5362    6.9343   16.7445 C.ar      1 RES1    0.0000
      6 C4         4.6847    7.1028   18.1132 C.ar      1 RES1    0.0000
      7 C5         5.7409    6.5043   18.7740 C.ar      1 RES1    0.0000
      8 C6         6.6617    5.7478   18.0733 C.ar      1 RES1    0.0000
      9 C7         6.5381    5.5985   16.6967 C.ar      1 RES1    0.0000
     10 C8         6.2903    6.5514   13.6626 C.ar      1 RES1    0.0000
     11 C9         7.4239    7.4005   14.1580 C.3       1 RES1    0.0000
     12 C10        6.1613    6.2875   12.2599 C.ar      1 RES1    0.0000
     13 C11        5.0379    5.5466   11.8200 C.ar      1 RES1    0.0000
     14 C12        4.1135    5.1017   12.7720 C.ar      1 RES1    0.0000
     15 C13        4.8818    5.2356   10.4412 C.ar      1 RES1    0.0000
     16 C14        5.8254    5.6477    9.5431 C.ar      1 RES1    0.0000
     17 C15        6.9407    6.3890    9.9714 C.ar      1 RES1    0.0000
     18 C16        7.1048    6.7068   11.2923 C.ar      1 RES1    0.0000
     19 H1         3.7728    7.3392   16.2756 H         1 RES1    0.0000
     20 H2         4.0601    7.6352   18.5840 H         1 RES1    0.0000
     21 H3         5.8327    6.6044   19.7190 H         1 RES1    0.0000
     22 H4         7.3968    5.3243   18.5195 H         1 RES1    0.0000
     23 H5         7.1927    5.1065   16.2015 H         1 RES1    0.0000
     24 H6         7.5301    8.1885   13.5945 H         1 RES1    0.0000
     25 H7         7.3073    7.6739   15.0856 H         1 RES1    0.0000
     26 H8         8.2759    6.8963   14.1202 H         1 RES1    0.0000
     27 H9         3.3154    4.6395   12.5192 H         1 RES1    0.0000
     28 H10        4.1144    4.7669   10.1630 H         1 RES1    0.0000
     29 H11        5.7266    5.4445    8.6145 H         1 RES1    0.0000
     30 H12        7.5920    6.6939    9.3410 H         1 RES1    0.0000
     31 H13        7.8848    7.1956   11.5681 H         1 RES1    0.0000
@<TRIPOS>BOND
     1    1    2 1
     2    2    3 ar
     3    3    4 1
     4    4    5 ar
     5    5    6 ar
     6    6    7 ar
     7    7    8 ar
     8    8    9 ar
     9    9    4 ar
    10   10    3 ar
    11   11   10 1
    12   12   10 ar
    13   13   12 ar
    14   14    2 ar
    15   15   13 ar
    16   16   15 ar
    17   17   16 ar
    18   18   12 ar
    19   19    5 1
    20   20    6 1
    21   21    7 1
    22   22    8 1
    23   23    9 1
    24   24   11 1
    25   25   11 1
    26   26   11 1
    27   27   14 1
    28   28   15 1
    29   29   16 1
    30   30   17 1
    31   31   18 1
    32   13   14 ar
    33   17   18 ar
@<TRIPOS>SUBSTRUCTURE
     1 RES1 1

@<TRIPOS>CRYSIN
   6.0190    8.0659   23.9029  90.0000  91.3683  90.0000 231 1

