# MOL2 file generated by ConQuest
# Please check atom types

@<TRIPOS>MOLECULE
RACLAI
    35    35     1
SMALL
NO_CHARGES
****
Generated from CSD

@<TRIPOS>ATOM
      1 O1        -2.1775   -1.0880   -5.8154 O.3       1 RES1    0.0000
      2 O2         2.4931   -1.7336   -6.5052 O.2       1 RES1    0.0000
      3 O3        -0.0600    1.2092   -6.9124 O.2       1 RES1    0.0000
      4 O4        -2.0964    1.4848   -7.5157 O.2       1 RES1    0.0000
      5 N1        -1.0977    0.8046   -7.4077 N.pl3     1 RES1    0.0000
      6 C1        -1.1397   -0.6196   -7.8764 C.3       1 RES1    0.0000
      7 C2        -1.1556   -1.5291   -6.6597 C.3       1 RES1    0.0000
      8 C3         0.2058   -1.6105   -5.9800 C.3       1 RES1    0.0000
      9 C4        -0.5165   -1.2405  -10.3029 C.3       1 RES1    0.0000
     10 C5         0.0050   -0.8756   -8.8653 C.3       1 RES1    0.0000
     11 C6        -1.3440   -0.0808  -10.8248 C.3       1 RES1    0.0000
     12 C7        -1.3401   -2.4887  -10.3029 C.3       1 RES1    0.0000
     13 C8         1.0154   -1.9030   -8.3401 C.3       1 RES1    0.0000
     14 C9         0.6718   -1.4242  -11.2303 C.3       1 RES1    0.0000
     15 C10        1.3520   -1.7252   -6.8858 C.2       1 RES1    0.0000
     16 C11       -2.5694   -2.0118   -4.8332 C.3       1 RES1    0.0000
     17 H1        -1.9084   -0.7851   -8.2287 H         1 RES1    0.0000
     18 H2        -1.3742   -2.3630   -7.0370 H         1 RES1    0.0000
     19 H3         0.1131   -2.4086   -5.4066 H         1 RES1    0.0000
     20 H4         0.3843   -0.8404   -5.4365 H         1 RES1    0.0000
     21 H5         0.3979   -0.0137   -8.9849 H         1 RES1    0.0000
     22 H6        -2.2064    0.0886  -10.3212 H         1 RES1    0.0000
     23 H7        -0.9230    0.7466  -10.7450 H         1 RES1    0.0000
     24 H8        -2.2439   -2.5780   -9.7844 H         1 RES1    0.0000
     25 H9        -0.9628   -3.1624   -9.9971 H         1 RES1    0.0000
     26 H10       -1.6131   -2.8275  -11.2170 H         1 RES1    0.0000
     27 H11        0.5846   -2.6868   -8.4763 H         1 RES1    0.0000
     28 H12        0.2212   -1.5486  -12.1378 H         1 RES1    0.0000
     29 H13        1.2758   -0.6854  -11.1771 H         1 RES1    0.0000
     30 H14       -3.3151   -1.7441   -4.3545 H         1 RES1    0.0000
     31 H15       -1.7985   -2.3897   -4.2864 H         1 RES1    0.0000
     32 H16       -1.5587   -0.2834  -11.7323 H         1 RES1    0.0000
     33 H17        1.2092   -2.2386  -11.0392 H         1 RES1    0.0000
     34 H18       -2.7615   -2.8516   -5.3301 H         1 RES1    0.0000
     35 H19        1.8670   -1.9056   -8.8121 H         1 RES1    0.0000
@<TRIPOS>BOND
     1    1    7 1
     2    2   15 2
     3    3    5 2
     4    4    5 2
     5    5    6 1
     6    6    7 1
     7    7    8 1
     8    8   15 1
     9    9   10 1
    10   10    6 1
    11   11    9 1
    12   12    9 1
    13   13   10 1
    14   14    9 1
    15   15   13 1
    16   16    1 1
    17   17    6 1
    18   18    7 1
    19   19    8 1
    20   20    8 1
    21   21   10 1
    22   22   11 1
    23   23   11 1
    24   24   12 1
    25   25   12 1
    26   26   12 1
    27   27   13 1
    28   28   14 1
    29   29   14 1
    30   30   16 1
    31   31   16 1
    32   32   11 1
    33   33   14 1
    34   34   16 1
    35   35   13 1
@<TRIPOS>SUBSTRUCTURE
     1 RES1 1

@<TRIPOS>CRYSIN
  11.3440    6.5150   17.2090  90.0000 105.0300  90.0000 231 1

