# MOL2 file generated by ConQuest
# Please check atom types

@<TRIPOS>MOLECULE
RADKAJ
    58    58     2
SMALL
NO_CHARGES
****
Generated from CSD

@<TRIPOS>ATOM
      1 O1         2.3933    1.3361    1.5687 O.3       1 RES1    0.0000
      2 O2         0.8962    2.7243    2.4936 O.3       1 RES1    0.0000
      3 O3         4.2994   -3.4936    5.8932 O.2       1 RES1    0.0000
      4 O4         2.6405   -4.7646    5.3792 O.2       1 RES1    0.0000
      5 O5        -0.1506   -3.4018    1.5911 O.2       1 RES1    0.0000
      6 O6        -0.7976   -1.3481    1.8101 O.2       1 RES1    0.0000
      7 O7        -2.0066    1.5468    3.0014 O.3       1 RES1    0.0000
      8 O8        -1.2237    1.5423    0.9285 O.2       1 RES1    0.0000
      9 O9         5.7260    6.6667    1.9225 O.3       1 RES1    0.0000
     10 N1         3.2837   -3.7388    5.2574 N.pl3     1 RES1    0.0000
     11 N2         0.0112   -2.2639    1.9854 N.pl3     1 RES1    0.0000
     12 C1         1.3048    0.4770    1.8973 C.3       1 RES1    0.0000
     13 H1         0.8479    0.1779    1.0828 H         1 RES1    0.0000
     14 C2         0.3560    1.4258    2.7483 C.3       1 RES1    0.0000
     15 C3         1.8283    2.6209    1.4110 C.3       1 RES1    0.0000
     16 H2         1.3615    2.6852    0.5514 H         1 RES1    0.0000
     17 C4         1.8432   -0.7036    2.6622 C.ar      1 RES1    0.0000
     18 C5         3.0067   -0.5392    3.4073 C.ar      1 RES1    0.0000
     19 H3         3.4720    0.2634    3.3438 H         1 RES1    0.0000
     20 C6         3.4908   -1.5240    4.2355 C.ar      1 RES1    0.0000
     21 H4         4.2630   -1.3844    4.7344 H         1 RES1    0.0000
     22 C7         2.8145   -2.7186    4.3128 C.ar      1 RES1    0.0000
     23 C8         1.6977   -2.9751    3.5515 C.ar      1 RES1    0.0000
     24 H5         1.2714   -3.8014    3.5807 H         1 RES1    0.0000
     25 C9         1.2353   -1.9531    2.7419 C.ar      1 RES1    0.0000
     26 C10        0.4251    1.1630    4.2432 C.ar      1 RES1    0.0000
     27 C11        1.2976    1.9045    5.0178 C.ar      1 RES1    0.0000
     28 H6         1.7770    2.6025    4.6348 H         1 RES1    0.0000
     29 C12        1.4615    1.6113    6.3684 C.ar      1 RES1    0.0000
     30 H7         2.0422    2.1218    6.8846 H         1 RES1    0.0000
     31 C13        0.7748    0.5778    6.9375 C.ar      1 RES1    0.0000
     32 H8         0.8976    0.3769    7.8368 H         1 RES1    0.0000
     33 C14       -0.0974   -0.1644    6.1817 C.ar      1 RES1    0.0000
     34 H9        -0.5694   -0.8633    6.5724 H         1 RES1    0.0000
     35 C15       -0.2764    0.1247    4.8407 C.ar      1 RES1    0.0000
     36 H10       -0.8718   -0.3807    4.3358 H         1 RES1    0.0000
     37 C16       -1.0459    1.4778    2.1183 C.2       1 RES1    0.0000
     38 C17       -3.3402    1.7026    2.4717 C.3       1 RES1    0.0000
     39 H11       -3.9696    1.7440    3.1954 H         1 RES1    0.0000
     40 H12       -3.5504    0.9537    1.9088 H         1 RES1    0.0000
     41 H13       -3.3887    2.5121    1.9597 H         1 RES1    0.0000
     42 H14       -3.3023    1.7296    1.5124 Du        2 SUP2    0.0000
     43 H15       -3.7218    2.5198    2.8012 Du        2 SUP2    0.0000
     44 H16       -3.8836    0.9614    2.7503 Du        2 SUP2    0.0000
     45 C18        2.8654    3.6910    1.5226 C.ar      1 RES1    0.0000
     46 C19        3.8661    3.6383    2.4804 C.ar      1 RES1    0.0000
     47 H17        3.9050    2.9140    3.0625 H         1 RES1    0.0000
     48 C20        4.7978    4.6378    2.5838 C.ar      1 RES1    0.0000
     49 H18        5.4649    4.5830    3.2308 H         1 RES1    0.0000
     50 C21        4.7524    5.7290    1.7319 C.ar      1 RES1    0.0000
     51 C22        3.7481    5.8088    0.7930 C.ar      1 RES1    0.0000
     52 H19        3.6916    6.5500    0.2347 H         1 RES1    0.0000
     53 C23        2.8214    4.7861    0.6820 C.ar      1 RES1    0.0000
     54 H20        2.1587    4.8378    0.0310 H         1 RES1    0.0000
     55 C24        5.7746    7.7758    1.0352 C.3       1 RES1    0.0000
     56 H21        5.7937    7.4605    0.1284 H         1 RES1    0.0000
     57 H22        6.5641    8.2921    1.2113 H         1 RES1    0.0000
     58 H23        4.9974    8.3248    1.1670 H         1 RES1    0.0000
@<TRIPOS>BOND
     1    1   12 1
     2    2   14 1
     3    3   10 2
     4    4   10 2
     5    5   11 2
     6    6   11 2
     7    7   37 1
     8    8   37 2
     9    9   50 1
    10   10   22 1
    11   11   25 1
    12   12   13 1
    13   14   12 1
    14   15    1 1
    15   16   15 1
    16   17   12 1
    17   18   17 ar
    18   19   18 1
    19   20   18 ar
    20   21   20 1
    21   22   20 ar
    22   23   22 ar
    23   24   23 1
    24   25   17 ar
    25   26   14 1
    26   27   26 ar
    27   28   27 1
    28   29   27 ar
    29   30   29 1
    30   31   29 ar
    31   32   31 1
    32   33   31 ar
    33   34   33 1
    34   35   26 ar
    35   36   35 1
    36   37   14 1
    37   38    7 1
    38   39   38 1
    39   40   38 1
    40   41   38 1
    41   45   15 1
    42   46   45 ar
    43   47   46 1
    44   48   46 ar
    45   49   48 1
    46   50   48 ar
    47   51   50 ar
    48   52   51 1
    49   53   45 ar
    50   54   53 1
    51   55    9 1
    52   56   55 1
    53   57   55 1
    54   58   55 1
    55    2   15 1
    56   23   25 ar
    57   33   35 ar
    58   51   53 ar
@<TRIPOS>SUBSTRUCTURE
     1 RES1 1
     2 SUP2 42

@<TRIPOS>CRYSIN
  10.4710    9.6140   22.2860  90.0000  96.4700  90.0000  14 1

