# MOL2 file generated by ConQuest
# Please check atom types

@<TRIPOS>MOLECULE
RADSOF
    28    29     1
SMALL
NO_CHARGES
****
Generated from CSD

@<TRIPOS>ATOM
      1 O1         2.0304   -1.6939    9.5079 O.2       1 RES1    0.0000
      2 O2         1.5778    2.2678    7.6187 O.2       1 RES1    0.0000
      3 O3        -1.1157    3.5965    9.9985 O.2       1 RES1    0.0000
      4 N1         1.3764    0.2442    8.6041 N.am      1 RES1    0.0000
      5 N2         0.0021    1.8546   10.6116 N.pl3     1 RES1    0.0000
      6 N3        -1.1384    2.5552   10.6360 N.2       1 RES1    0.0000
      7 C1         1.4875   -0.6254    9.6986 C.2       1 RES1    0.0000
      8 C2         1.5052   -0.3970    7.2664 C.3       1 RES1    0.0000
      9 H1         1.0057    0.1268    6.6213 H         1 RES1    0.0000
     10 H2         1.1020   -1.2787    7.3038 H         1 RES1    0.0000
     11 C3         2.9256   -0.5345    6.7824 C.3       1 RES1    0.0000
     12 H3         3.3348    0.3330    6.7400 H         1 RES1    0.0000
     13 H4         2.9292   -0.9327    5.9089 H         1 RES1    0.0000
     14 H5         3.4185   -1.0915    7.3895 H         1 RES1    0.0000
     15 C4         1.3967    1.6286    8.6293 C.2       1 RES1    0.0000
     16 C5         1.2071    2.3281    9.9386 C.3       1 RES1    0.0000
     17 H6         1.9780    2.1675   10.5055 H         1 RES1    0.0000
     18 H7         1.1382    3.2839    9.7879 H         1 RES1    0.0000
     19 C6         0.0619    0.7107   11.4142 C.ar      1 RES1    0.0000
     20 C7         0.8514   -0.3784   11.0641 C.ar      1 RES1    0.0000
     21 C8         0.9490   -1.4695   11.9198 C.ar      1 RES1    0.0000
     22 H8         1.4775   -2.1984   11.6856 H         1 RES1    0.0000
     23 C9         0.2571   -1.4714   13.1254 C.ar      1 RES1    0.0000
     24 H9         0.3224   -2.2019   13.6979 H         1 RES1    0.0000
     25 C10       -0.5324   -0.3822   13.4753 C.ar      1 RES1    0.0000
     26 H10       -0.9952   -0.3840   14.2823 H         1 RES1    0.0000
     27 C11       -0.6300    0.7088   12.6198 C.ar      1 RES1    0.0000
     28 H11       -1.1586    1.4375   12.8544 H         1 RES1    0.0000
@<TRIPOS>BOND
     1    1    7 2
     2    2   15 2
     3    3    6 2
     4    4    7 1
     5    5    6 1
     6    7   20 1
     7    8    4 1
     8    9    8 1
     9   10    8 1
    10   11    8 1
    11   12   11 1
    12   13   11 1
    13   14   11 1
    14   15    4 1
    15   16    5 1
    16   17   16 1
    17   18   16 1
    18   19    5 1
    19   20   19 ar
    20   21   20 ar
    21   22   21 1
    22   23   21 ar
    23   24   23 1
    24   25   23 ar
    25   26   25 1
    26   27   19 ar
    27   28   27 1
    28   15   16 1
    29   25   27 ar
@<TRIPOS>SUBSTRUCTURE
     1 RES1 1

@<TRIPOS>CRYSIN
   8.8931   11.8510   10.4080  90.0000  97.2500  90.0000  14 1

