# MOL2 file generated by ConQuest
# Please check atom types

@<TRIPOS>MOLECULE
RAFHOV
   150   142     2
SMALL
NO_CHARGES
****
Generated from CSD

@<TRIPOS>ATOM
      1 O1         0.8563   17.7333   15.0765 O.2       1 RES1    0.0000
      2 O2        -0.1250   17.0523   17.9120 O.2       1 RES1    0.0000
      3 O3         1.7031   16.0418   17.6272 O.2       1 RES1    0.0000
      4 O4         2.4012   21.4265   12.0847 O.3       1 RES1    0.0000
      5 O5         5.1935   22.7310   11.3759 O.2       1 RES1    0.0000
      6 O6         4.0866   25.5734    9.7729 O.2       1 RES1    0.0000
      7 O7         5.7008   25.6493   11.1791 O.2       1 RES1    0.0000
      8 O8         3.7148   19.0736   14.5766 O.3       1 RES1    0.0000
      9 N1         1.0426   17.0399   17.6296 N.pl3     1 RES1    0.0000
     10 N2         4.5808   25.3292   10.8464 N.pl3     1 RES1    0.0000
     11 C1         1.0887   18.6496   15.8243 C.2       1 RES1    0.0000
     12 C2         1.6711   18.3711   17.2248 C.3       1 RES1    0.0000
     13 C3         1.2531   19.3731   18.2416 C.2       1 RES1    0.0000
     14 H1         1.3209   19.1506   19.1419 H         1 RES1    0.0000
     15 C4         0.7889   20.5668   17.9159 C.2       1 RES1    0.0000
     16 C5         0.6867   20.9250   16.4881 C.2       1 RES1    0.0000
     17 H2         0.5118   21.8130   16.2720 H         1 RES1    0.0000
     18 C6         0.8281   20.0514   15.4875 C.2       1 RES1    0.0000
     19 C7         3.2063   18.1938   17.2025 C.3       1 RES1    0.0000
     20 H3         3.4885   17.8484   18.0640 H         1 RES1    0.0000
     21 H4         3.4290   17.5264   16.5341 H         1 RES1    0.0000
     22 C8         0.2702   21.5797   18.9309 C.3       1 RES1    0.0000
     23 C9         0.4776   21.0697   20.3594 C.3       1 RES1    0.0000
     24 H5         0.0336   20.2250   20.4659 H         1 RES1    0.0000
     25 H6         0.1131   21.7027   20.9813 H         1 RES1    0.0000
     26 H7         1.4165   20.9593   20.5264 H         1 RES1    0.0000
     27 C10       -1.2219   21.7733   18.6799 C.3       1 RES1    0.0000
     28 H8        -1.6740   20.9322   18.7791 H         1 RES1    0.0000
     29 H9        -1.3558   22.1061   17.7894 H         1 RES1    0.0000
     30 H10       -1.5738   22.4027   19.3139 H         1 RES1    0.0000
     31 C11        0.9785   22.9182   18.7719 C.3       1 RES1    0.0000
     32 H11        1.9187   22.8042   18.9292 H         1 RES1    0.0000
     33 H12        0.6220   23.5458   19.4059 H         1 RES1    0.0000
     34 H13        0.8401   23.2492   17.8813 H         1 RES1    0.0000
     35 C12        1.4256   22.2363   12.6236 C.ar      1 RES1    0.0000
     36 C13        0.5076   21.7407   13.5486 C.ar      1 RES1    0.0000
     37 C14       -0.5086   22.5799   13.9711 C.ar      1 RES1    0.0000
     38 H14       -1.1446   22.2363   14.5570 H         1 RES1    0.0000
     39 C15       -0.6344   23.9003   13.5713 C.ar      1 RES1    0.0000
     40 C16        0.3605   24.3778   12.7183 C.ar      1 RES1    0.0000
     41 H15        0.3374   25.2731   12.4666 H         1 RES1    0.0000
     42 C17        1.3900   23.5747   12.2253 C.ar      1 RES1    0.0000
     43 C18        0.6028   20.3028   14.0018 C.3       1 RES1    0.0000
     44 H16        1.3281   19.8813   13.5142 H         1 RES1    0.0000
     45 H17       -0.2161   19.8524   13.7429 H         1 RES1    0.0000
     46 C19       -1.7976   24.7974   14.0069 C.3       1 RES1    0.0000
     47 C20       -2.7149   24.1228   14.9822 C.3       1 RES1    0.0000
     48 H18       -3.0156   23.2889   14.6119 H         1 RES1    0.0000
     49 H19       -3.4719   24.6871   15.1516 H         1 RES1    0.0000
     50 H20       -2.2461   23.9600   15.8025 H         1 RES1    0.0000
     51 C21       -2.6385   25.1375   12.7824 C.3       1 RES1    0.0000
     52 H21       -2.0886   25.5734   12.1266 H         1 RES1    0.0000
     53 H22       -3.3558   25.7235   13.0389 H         1 RES1    0.0000
     54 H23       -3.0016   24.3308   12.4073 H         1 RES1    0.0000
     55 C22       -1.3124   26.1142   14.5659 C.3       1 RES1    0.0000
     56 H24       -0.7257   26.5356   13.9319 H         1 RES1    0.0000
     57 H25       -0.8378   25.9586   15.3863 H         1 RES1    0.0000
     58 H26       -2.0636   26.6875   14.7353 H         1 RES1    0.0000
     59 C23        1.9588   20.6790   10.9263 C.3       1 RES1    0.0000
     60 H27        1.2922   20.0297   11.1997 H         1 RES1    0.0000
     61 H28        1.5426   21.2849   10.2946 H         1 RES1    0.0000
     62 C24        3.0453   19.9989   10.2850 C.3       1 RES1    0.0000
     63 H29        3.5063   19.4617   10.9480 H         1 RES1    0.0000
     64 H30        3.6730   20.6627    9.9583 H         1 RES1    0.0000
     65 C25        2.6490   19.1054    9.1330 C.3       1 RES1    0.0000
     66 H31        1.6795   19.0891    9.1500 H         1 RES1    0.0000
     67 H32        2.8903   19.6028    8.3344 H         1 RES1    0.0000
     68 C26        2.9740   17.9786    8.9031 C.3       1 RES1    0.0000
     69 H33        2.6923   17.4920    9.6921 H         1 RES1    0.0000
     70 H34        3.9417   18.0039    8.9491 H         1 RES1    0.0000
     71 C27        2.7089   17.0634    7.8287 C.3       1 RES1    0.0000
     72 H35        3.1526   16.2296    8.0005 H         1 RES1    0.0000
     73 H36        3.0336   17.4342    7.0035 H         1 RES1    0.0000
     74 H37        1.7633   16.9132    7.7609 H         1 RES1    0.0000
     75 C28       -1.7498   24.8897   15.5509 Du        2 SUP2    0.0000
     76 H38       -1.8297   24.0106   15.9260 Du        2 SUP2    0.0000
     77 H39       -2.4734   25.4395   15.8606 Du        2 SUP2    0.0000
     78 H40       -0.9149   25.2785   15.8219 Du        2 SUP2    0.0000
     79 C29       -3.1120   24.1173   13.5495 Du        2 SUP2    0.0000
     80 H41       -3.1688   23.2401   13.9319 Du        2 SUP2    0.0000
     81 H42       -3.1191   24.0504   12.5912 Du        2 SUP2    0.0000
     82 H43       -3.8608   24.6437   13.8375 Du        2 SUP2    0.0000
     83 C30       -1.6694   26.1847   13.4237 Du        2 SUP2    0.0000
     84 H44       -2.4102   26.7219   13.7141 Du        2 SUP2    0.0000
     85 H45       -1.6684   26.1304   12.4654 Du        2 SUP2    0.0000
     86 H46       -0.8498   26.5826   13.7238 Du        2 SUP2    0.0000
     87 C31        4.6067   23.3179   12.2539 C.2       1 RES1    0.0000
     88 C32        3.7645   24.5532   11.9030 C.3       1 RES1    0.0000
     89 C33        3.5385   25.4992   13.0384 C.2       1 RES1    0.0000
     90 H47        3.3043   26.3800   12.8547 H         1 RES1    0.0000
     91 C34        3.6642   25.1139   14.2985 C.2       1 RES1    0.0000
     92 C35        4.1163   23.7502   14.5674 C.2       1 RES1    0.0000
     93 H48        4.0778   23.4572   15.4490 H         1 RES1    0.0000
     94 C36        4.5795   22.8910   13.6592 C.2       1 RES1    0.0000
     95 C37        2.4182   24.1336   11.2701 C.3       1 RES1    0.0000
     96 H49        2.0349   24.9059   10.8266 H         1 RES1    0.0000
     97 H50        2.5970   23.4662   10.5887 H         1 RES1    0.0000
     98 C38        3.3683   26.0092   15.4940 C.3       1 RES1    0.0000
     99 C39        2.7419   27.3350   15.0717 C.3       1 RES1    0.0000
    100 H51        2.5702   27.8686   15.8509 H         1 RES1    0.0000
    101 H52        1.9168   27.1668   14.6119 H         1 RES1    0.0000
    102 H53        3.3455   27.8017   14.4885 H         1 RES1    0.0000
    103 C40        4.6917   26.2878   16.2236 C.3       1 RES1    0.0000
    104 H54        4.5260   26.8503   16.9811 H         1 RES1    0.0000
    105 H55        5.3000   26.7273   15.6235 H         1 RES1    0.0000
    106 H56        5.0752   25.4576   16.5189 H         1 RES1    0.0000
    107 C41        2.3899   25.2984   16.4487 C.3       1 RES1    0.0000
    108 H57        2.2069   25.8664   17.2013 H         1 RES1    0.0000
    109 H58        2.7814   24.4773   16.7560 H         1 RES1    0.0000
    110 H59        1.5707   25.1067   15.9840 H         1 RES1    0.0000
    111 C42        4.2476   19.8434   15.5961 C.ar      1 RES1    0.0000
    112 C43        4.9847   20.9991   15.3372 C.ar      1 RES1    0.0000
    113 C44        5.5423   21.6882   16.4262 C.ar      1 RES1    0.0000
    114 H60        6.0899   22.4208   16.2560 H         1 RES1    0.0000
    115 C45        5.3135   21.3247   17.7410 C.ar      1 RES1    0.0000
    116 C46        4.5145   20.2033   17.9508 C.ar      1 RES1    0.0000
    117 H61        4.3211   19.9501   18.8249 H         1 RES1    0.0000
    118 C47        3.9946   19.4436   16.9090 C.ar      1 RES1    0.0000
    119 C48        5.1576   21.5128   13.9336 C.3       1 RES1    0.0000
    120 H62        4.7435   20.8816   13.3247 H         1 RES1    0.0000
    121 H63        6.1058   21.5327   13.7305 H         1 RES1    0.0000
    122 C49        5.8969   22.1079   18.9163 C.3       1 RES1    0.0000
    123 C50        6.8427   23.2130   18.4766 C.3       1 RES1    0.0000
    124 H64        7.5544   22.8350   17.9563 H         1 RES1    0.0000
    125 H65        7.2078   23.6471   19.2510 H         1 RES1    0.0000
    126 H66        6.3619   23.8533   17.9467 H         1 RES1    0.0000
    127 C51        4.7797   22.7337   19.7399 C.3       1 RES1    0.0000
    128 H67        4.1709   22.0482   20.0278 H         1 RES1    0.0000
    129 H68        4.3082   23.3758   19.2050 H         1 RES1    0.0000
    130 H69        5.1542   23.1714   20.5094 H         1 RES1    0.0000
    131 C52        6.6933   21.1637   19.8318 C.3       1 RES1    0.0000
    132 H70        6.1225   20.4511   20.1295 H         1 RES1    0.0000
    133 H71        7.0158   21.6521   20.5941 H         1 RES1    0.0000
    134 H72        7.4371   20.7984   19.3478 H         1 RES1    0.0000
    135 C53        4.6699   18.1522   14.0069 C.3       1 RES1    0.0000
    136 H73        5.1386   17.6856   14.7160 H         1 RES1    0.0000
    137 H74        5.3238   18.6406   13.4842 H         1 RES1    0.0000
    138 C54        3.9576   17.1556   13.1285 C.3       1 RES1    0.0000
    139 H75        3.2448   17.6223   12.6638 H         1 RES1    0.0000
    140 H76        4.5851   16.8445   12.4581 H         1 RES1    0.0000
    141 C55        3.3869   15.9980   13.7818 C.3       1 RES1    0.0000
    142 H77        2.8557   16.3037   14.5345 H         1 RES1    0.0000
    143 H78        4.1122   15.4609   14.1400 H         1 RES1    0.0000
    144 C56        2.5354   15.1226   12.9373 C.3       1 RES1    0.0000
    145 H79        1.9284   15.6725   12.4170 H         1 RES1    0.0000
    146 H80        3.0965   14.6288   12.3202 H         1 RES1    0.0000
    147 C57        1.7725   14.1966   13.7359 C.3       1 RES1    0.0000
    148 H81        1.2331   13.6467   13.1599 H         1 RES1    0.0000
    149 H82        1.2034   14.6831   14.3360 H         1 RES1    0.0000
    150 H83        2.3704   13.6413   14.2392 H         1 RES1    0.0000
@<TRIPOS>BOND
     1    1   11 2
     2    2    9 2
     3    3    9 2
     4    4   35 1
     5    5   87 2
     6    6   10 2
     7    7   10 2
     8    8  111 1
     9    9   12 1
    10   10   88 1
    11   11   12 1
    12   12   13 1
    13   13   14 1
    14   15   13 2
    15   16   15 1
    16   17   16 1
    17   18   11 1
    18   19   12 1
    19   20   19 1
    20   21   19 1
    21   22   15 1
    22   23   22 1
    23   24   23 1
    24   25   23 1
    25   26   23 1
    26   27   22 1
    27   28   27 1
    28   29   27 1
    29   30   27 1
    30   31   22 1
    31   32   31 1
    32   33   31 1
    33   34   31 1
    34   35   36 ar
    35   36   37 ar
    36   37   38 1
    37   39   37 ar
    38   40   39 ar
    39   41   40 1
    40   42   35 ar
    41   43   18 1
    42   44   43 1
    43   45   43 1
    44   46   39 1
    45   47   46 1
    46   48   47 1
    47   49   47 1
    48   50   47 1
    49   51   46 1
    50   52   51 1
    51   53   51 1
    52   54   51 1
    53   55   46 1
    54   56   55 1
    55   57   55 1
    56   58   55 1
    57   59    4 1
    58   60   59 1
    59   61   59 1
    60   62   59 1
    61   63   62 1
    62   64   62 1
    63   65   62 1
    64   66   65 1
    65   67   65 1
    66   68   65 1
    67   69   68 1
    68   70   68 1
    69   71   68 1
    70   72   71 1
    71   73   71 1
    72   74   71 1
    73   87   88 1
    74   88   89 1
    75   89   90 1
    76   91   89 2
    77   92   91 1
    78   93   92 1
    79   94   87 1
    80   95   42 1
    81   96   95 1
    82   97   95 1
    83   98   91 1
    84   99   98 1
    85  100   99 1
    86  101   99 1
    87  102   99 1
    88  103   98 1
    89  104  103 1
    90  105  103 1
    91  106  103 1
    92  107   98 1
    93  108  107 1
    94  109  107 1
    95  110  107 1
    96  111  112 ar
    97  112  113 ar
    98  113  114 1
    99  115  113 ar
   100  116  115 ar
   101  117  116 1
   102  118   19 1
   103  119   94 1
   104  120  119 1
   105  121  119 1
   106  122  115 1
   107  123  122 1
   108  124  123 1
   109  125  123 1
   110  126  123 1
   111  127  122 1
   112  128  127 1
   113  129  127 1
   114  130  127 1
   115  131  122 1
   116  132  131 1
   117  133  131 1
   118  134  131 1
   119  135    8 1
   120  136  135 1
   121  137  135 1
   122  138  135 1
   123  139  138 1
   124  140  138 1
   125  141  138 1
   126  142  141 1
   127  143  141 1
   128  144  141 1
   129  145  144 1
   130  146  144 1
   131  147  144 1
   132  148  147 1
   133  149  147 1
   134  150  147 1
   135   16   18 2
   136   36   43 1
   137   40   42 ar
   138   88   95 1
   139   92   94 2
   140  111  118 ar
   141  112  119 1
   142  116  118 ar
@<TRIPOS>SUBSTRUCTURE
     1 RES1 1
     2 SUP2 75

@<TRIPOS>CRYSIN
  11.5677   18.0871   24.2010  90.0000  90.5440  90.0000  14 1

