# MOL2 file generated by ConQuest
# Please check atom types

@<TRIPOS>MOLECULE
RAFKIU
    55    59     1
SMALL
NO_CHARGES
****
Generated from CSD

@<TRIPOS>ATOM
      1 C1         4.1919    3.9852   10.2741 C.ar      1 RES1    0.0000
      2 C2         4.1841    4.4837   11.5567 C.ar      1 RES1    0.0000
      3 H1         3.5659    5.1326   11.8047 H         1 RES1    0.0000
      4 C3         5.1027    4.0093   12.4711 C.ar      1 RES1    0.0000
      5 H2         5.1037    4.3436   13.3397 H         1 RES1    0.0000
      6 C4         6.0121    3.0515   12.1108 C.ar      1 RES1    0.0000
      7 H3         6.6375    2.7474   12.7280 H         1 RES1    0.0000
      8 C5         6.0006    2.5428   10.8417 C.ar      1 RES1    0.0000
      9 H4         6.6084    1.8804   10.6050 H         1 RES1    0.0000
     10 C6         5.0932    3.0046    9.9078 C.ar      1 RES1    0.0000
     11 H5         5.0883    2.6598    9.0448 H         1 RES1    0.0000
     12 C7         1.7772    4.3618    7.6874 C.2       1 RES1    0.0000
     13 C8         1.8659    5.6875    8.0468 C.2       1 RES1    0.0000
     14 C9         2.8466    5.7657    9.0751 C.2       1 RES1    0.0000
     15 C10        0.9948    3.6916    6.6183 C.3       1 RES1    0.0000
     16 H6         1.3432    3.9448    5.7608 H         1 RES1    0.0000
     17 H7         0.0750    3.9575    6.6808 H         1 RES1    0.0000
     18 H8         1.0611    2.7394    6.7229 H         1 RES1    0.0000
     19 C11        1.1213    6.8264    7.3885 C.3       1 RES1    0.0000
     20 H9         0.4779    6.3865    6.7954 H         1 RES1    0.0000
     21 C12        2.0012    7.6531    6.4499 C.ar      1 RES1    0.0000
     22 C13        1.8914    7.4955    5.0297 C.ar      1 RES1    0.0000
     23 C14        0.8761    6.7392    4.3960 C.ar      1 RES1    0.0000
     24 H10        0.2508    6.2925    4.9200 H         1 RES1    0.0000
     25 C15        0.7919    6.6492    3.0410 C.ar      1 RES1    0.0000
     26 H11        0.0984    6.1612    2.6588 H         1 RES1    0.0000
     27 C16        1.7276    7.2757    2.2123 C.ar      1 RES1    0.0000
     28 H12        1.6736    7.1858    1.2890 H         1 RES1    0.0000
     29 C17        2.7070    8.0106    2.7705 C.ar      1 RES1    0.0000
     30 H13        3.3307    8.4237    2.2191 H         1 RES1    0.0000
     31 C18        2.8148    8.1730    4.1749 C.ar      1 RES1    0.0000
     32 C19        3.7864    8.9962    4.7490 C.ar      1 RES1    0.0000
     33 H14        4.4060    9.4197    4.1989 H         1 RES1    0.0000
     34 C20        3.8478    9.1904    6.0853 C.ar      1 RES1    0.0000
     35 H15        4.4870    9.7644    6.4398 H         1 RES1    0.0000
     36 C21        2.9433    8.5245    6.9470 C.ar      1 RES1    0.0000
     37 C22        0.2586    7.6972    8.3089 C.ar      1 RES1    0.0000
     38 C23       -0.6284    8.5758    7.7128 C.ar      1 RES1    0.0000
     39 H16       -0.6133    8.6817    6.7886 H         1 RES1    0.0000
     40 C24       -1.5362    9.2979    8.4626 C.ar      1 RES1    0.0000
     41 H17       -2.1335    9.8806    8.0506 H         1 RES1    0.0000
     42 C25       -1.5411    9.1395    9.8249 C.ar      1 RES1    0.0000
     43 C26       -0.6517    8.3210   10.4463 C.ar      1 RES1    0.0000
     44 H18       -0.6472    8.2470   11.3733 H         1 RES1    0.0000
     45 C27        0.2453    7.6014    9.6817 C.ar      1 RES1    0.0000
     46 H19        0.8540    7.0385   10.1046 H         1 RES1    0.0000
     47 N1         3.2470    4.4775    9.3297 N.am      1 RES1    0.0000
     48 N2         2.6028    3.6389    8.4587 N.3       1 RES1    0.0000
     49 N3        -2.5723    9.8209   10.6225 N.pl3     1 RES1    0.0000
     50 O1         3.3416    6.7575    9.6815 O.2       1 RES1    0.0000
     51 O2         3.0456    8.8322    8.2749 O.3       1 RES1    0.0000
     52 O3        -2.5942    9.6346   11.8305 O.2       1 RES1    0.0000
     53 O4        -3.3690   10.5271   10.0331 O.2       1 RES1    0.0000
     54 H20        2.7159    2.7307    8.5241 H         1 RES1    0.0000
     55 H21        3.0918    8.0727    8.8577 H         1 RES1    0.0000
@<TRIPOS>BOND
     1    1    2 ar
     2    2    3 1
     3    4    2 ar
     4    5    4 1
     5    6    4 ar
     6    7    6 1
     7    8    6 ar
     8    9    8 1
     9   10    1 ar
    10   11   10 1
    11   12   13 2
    12   13   14 1
    13   14   47 1
    14   15   12 1
    15   16   15 1
    16   17   15 1
    17   18   15 1
    18   19   13 1
    19   20   19 1
    20   21   19 1
    21   22   21 ar
    22   23   22 ar
    23   24   23 1
    24   25   23 ar
    25   26   25 1
    26   27   25 ar
    27   28   27 1
    28   29   27 ar
    29   30   29 1
    30   31   22 ar
    31   32   31 ar
    32   33   32 1
    33   34   32 ar
    34   35   34 1
    35   36   21 ar
    36   37   19 1
    37   38   37 ar
    38   39   38 1
    39   40   38 ar
    40   41   40 1
    41   42   40 ar
    42   43   42 ar
    43   44   43 1
    44   45   37 ar
    45   46   45 1
    46   47    1 1
    47   48   12 1
    48   49   42 1
    49   50   14 2
    50   51   36 1
    51   52   49 2
    52   53   49 2
    53   54   48 1
    54   55   51 1
    55    8   10 ar
    56   29   31 ar
    57   34   36 ar
    58   43   45 ar
    59   47   48 1
@<TRIPOS>SUBSTRUCTURE
     1 RES1 1

@<TRIPOS>CRYSIN
  16.1975    7.9612   17.6661  90.0000 107.4900  90.0000  14 1

