# MOL2 file generated by ConQuest
# Please check atom types

@<TRIPOS>MOLECULE
RAFSUN
    33    35     1
SMALL
NO_CHARGES
****
Generated from CSD

@<TRIPOS>ATOM
      1 C1         1.6144    6.3964    7.4644 C.2       1 RES1    0.0000
      2 C2         2.7982    4.5344    7.8921 C.ar      1 RES1    0.0000
      3 C3         3.1645    3.2171    7.9781 C.ar      1 RES1    0.0000
      4 C4         4.3603    2.9454    8.5390 C.ar      1 RES1    0.0000
      5 C5         5.1381    3.9636    9.0146 C.ar      1 RES1    0.0000
      6 C6         4.7559    5.2890    8.9214 C.ar      1 RES1    0.0000
      7 C7         3.5825    5.5939    8.3252 C.ar      1 RES1    0.0000
      8 C8         2.8778    6.8341    8.0623 C.2       1 RES1    0.0000
      9 C9         3.0804    8.1408    8.2723 C.2       1 RES1    0.0000
     10 C10        4.2271    8.8318    8.7657 C.ar      1 RES1    0.0000
     11 C11        4.1007    9.9800    9.5922 C.ar      1 RES1    0.0000
     12 C12        5.1573   10.6492   10.0894 C.ar      1 RES1    0.0000
     13 C13        6.3500   10.1706    9.7288 C.ar      1 RES1    0.0000
     14 C14        6.5142    9.0797    8.8624 C.ar      1 RES1    0.0000
     15 C15        5.4475    8.4169    8.3781 C.ar      1 RES1    0.0000
     16 C16        0.5646    4.2179    6.9695 C.3       1 RES1    0.0000
     17 N1         1.6396    5.0362    7.3818 N.am      1 RES1    0.0000
     18 N2         7.4758   10.8489   10.2860 N.pl3     1 RES1    0.0000
     19 O1         0.7212    7.1062    7.1193 O.2       1 RES1    0.0000
     20 O2         7.3253   11.8705   10.9786 O.2       1 RES1    0.0000
     21 O3         8.5229   10.3501   10.0505 O.2       1 RES1    0.0000
     22 H1         2.6343    2.5492    7.6403 H         1 RES1    0.0000
     23 H2         4.6323    2.0139    8.6123 H         1 RES1    0.0000
     24 H3         5.9594    3.7601    9.4648 H         1 RES1    0.0000
     25 H4         5.2841    6.0013    9.2576 H         1 RES1    0.0000
     26 H5         2.3687    8.7162    8.0546 H         1 RES1    0.0000
     27 H6         3.2450   10.3095    9.8233 H         1 RES1    0.0000
     28 H7         5.0886   11.4099   10.6598 H         1 RES1    0.0000
     29 H8         7.3643    8.7927    8.6043 H         1 RES1    0.0000
     30 H9         5.5572    7.6541    7.7439 H         1 RES1    0.0000
     31 H10       -0.0957    4.8138    6.7640 H         1 RES1    0.0000
     32 H11        0.3316    3.6199    7.7359 H         1 RES1    0.0000
     33 H12        0.7690    3.6539    6.1505 H         1 RES1    0.0000
@<TRIPOS>BOND
     1    1    8 1
     2    2    3 ar
     3    3    4 ar
     4    4    5 ar
     5    5    6 ar
     6    6    7 ar
     7    7    2 ar
     8    8    7 1
     9    9    8 2
    10   10    9 1
    11   11   10 ar
    12   12   11 ar
    13   13   12 ar
    14   14   13 ar
    15   15   10 ar
    16   16   17 1
    17   17    1 1
    18   18   13 1
    19   19    1 2
    20   20   18 2
    21   21   18 2
    22   22    3 1
    23   23    4 1
    24   24    5 1
    25   25    6 1
    26   26    9 1
    27   27   11 1
    28   28   12 1
    29   29   14 1
    30   30   15 1
    31   31   16 1
    32   32   16 1
    33   33   16 1
    34    2   17 1
    35   14   15 ar
@<TRIPOS>SUBSTRUCTURE
     1 RES1 1

@<TRIPOS>CRYSIN
   7.5880   21.2436    7.9723  90.0000  92.0950  90.0000  14 1

