# MOL2 file generated by ConQuest
# Please check atom types

@<TRIPOS>MOLECULE
RAFVID
    37    39     1
SMALL
NO_CHARGES
****
Generated from CSD

@<TRIPOS>ATOM
      1 C1         5.0333   12.7147    2.7778 C.3       1 RES1    0.0000
      2 H1         5.7439   13.3190    3.1099 H         1 RES1    0.0000
      3 N1         4.8958   12.8190    1.3160 N.3       1 RES1    0.0000
      4 O1         4.6206   11.4263    0.9433 O.3       1 RES1    0.0000
      5 C2         5.4608   10.6023    1.7744 C.3       1 RES1    0.0000
      6 H2         6.3878   10.6102    1.4559 H         1 RES1    0.0000
      7 H3         5.1376    9.6773    1.7949 H         1 RES1    0.0000
      8 C3         5.3492   11.2459    3.1334 C.3       1 RES1    0.0000
      9 H4         6.1852   11.1602    3.6567 H         1 RES1    0.0000
     10 C4         4.1169   10.8297    3.9423 C.3       1 RES1    0.0000
     11 H5         3.4492   10.4113    3.3601 H         1 RES1    0.0000
     12 H6         4.3656   10.1920    4.6439 H         1 RES1    0.0000
     13 O2         3.6011   12.0235    4.5139 O.3       1 RES1    0.0000
     14 C5         3.6995   13.0050    3.4727 C.3       1 RES1    0.0000
     15 H7         2.9635   12.8611    2.8263 H         1 RES1    0.0000
     16 C6         3.5730   14.3880    4.0548 C.3       1 RES1    0.0000
     17 H8         2.7026   14.4835    4.4726 H         1 RES1    0.0000
     18 H9         3.6672   15.0458    3.3487 H         1 RES1    0.0000
     19 H10        4.2672   14.5239    4.7186 H         1 RES1    0.0000
     20 C7         6.1037   13.3031    0.6002 C.3       1 RES1    0.0000
     21 H11        6.8947   12.7732    0.8720 H         1 RES1    0.0000
     22 C8         6.2995   14.7696    0.9826 C.3       1 RES1    0.0000
     23 H12        5.4820   15.2686    0.7747 H         1 RES1    0.0000
     24 H13        6.4534   14.8329    1.9484 H         1 RES1    0.0000
     25 C9         7.4720   15.4023    0.2468 C.3       1 RES1    0.0000
     26 H14        7.5328   16.3494    0.4891 H         1 RES1    0.0000
     27 H15        8.3032   14.9651    0.5272 H         1 RES1    0.0000
     28 C10        7.3249   15.2786   -1.2557 C.3       1 RES1    0.0000
     29 H16        8.1376   15.6082   -1.6936 H         1 RES1    0.0000
     30 H17        6.5720   15.8275   -1.5584 H         1 RES1    0.0000
     31 C11        7.0878   13.8275   -1.6438 C.3       1 RES1    0.0000
     32 H18        6.9286   13.7759   -2.6094 H         1 RES1    0.0000
     33 H19        7.8931   13.3064   -1.4441 H         1 RES1    0.0000
     34 C12        5.9116   13.2193   -0.9155 C.3       1 RES1    0.0000
     35 H20        5.0915   13.7161   -1.1616 H         1 RES1    0.0000
     36 O3         5.8000   11.8778   -1.3953 O.3       1 RES1    0.0000
     37 H21        5.2444   11.4781   -0.7945 H         1 RES1    0.0000
@<TRIPOS>BOND
     1    1    2 1
     2    3    1 1
     3    4    3 1
     4    5    4 1
     5    6    5 1
     6    7    5 1
     7    8    1 1
     8    9    8 1
     9   10    8 1
    10   11   10 1
    11   12   10 1
    12   13   10 1
    13   14    1 1
    14   15   14 1
    15   16   14 1
    16   17   16 1
    17   18   16 1
    18   19   16 1
    19   20    3 1
    20   21   20 1
    21   22   20 1
    22   23   22 1
    23   24   22 1
    24   25   22 1
    25   26   25 1
    26   27   25 1
    27   28   25 1
    28   29   28 1
    29   30   28 1
    30   31   28 1
    31   32   31 1
    32   33   31 1
    33   34   20 1
    34   35   34 1
    35   36   34 1
    36   37   36 1
    37    5    8 1
    38   13   14 1
    39   31   34 1
@<TRIPOS>SUBSTRUCTURE
     1 RES1 1

@<TRIPOS>CRYSIN
   5.2910   13.4530   16.9410  90.0000  90.0000  90.0000  19 1

