# MOL2 file generated by ConQuest
# Please check atom types

@<TRIPOS>MOLECULE
RAGGOX
    20    20     1
SMALL
USER_CHARGES
****
Generated from CSD

@<TRIPOS>ATOM
      1 O1         3.7761    9.3162    6.4266 O.2       1 RES1   -1.0000
      2 O2         2.7707   14.8787    5.9924 O.3       1 RES1    0.0000
      3 H1         3.0845   15.6317    6.0746 H         1 RES1    0.0000
      4 N1         3.3994   10.5308    6.2438 N.pl3     1 RES1    1.0000
      5 N2         3.5846   13.9551    6.6719 N.2       1 RES1    0.0000
      6 C1         3.2384   12.7651    6.3382 C.2       1 RES1    0.0000
      7 C2         3.8760   11.5919    6.8456 C.2       1 RES1    0.0000
      8 H2         4.5318   11.5827    7.5053 H         1 RES1    0.0000
      9 C3         2.3595   10.8475    5.1856 C.3       1 RES1    0.0000
     10 C4         1.0901   10.0595    5.4652 C.3       1 RES1    0.0000
     11 H3         1.2762    9.1201    5.4004 H         1 RES1    0.0000
     12 H4         0.4178   10.2979    4.8238 H         1 RES1    0.0000
     13 H5         0.7757   10.2630    6.3489 H         1 RES1    0.0000
     14 C5         2.1754   12.3629    5.3738 C.3       1 RES1    0.0000
     15 H6         2.2829   12.8294    4.5297 H         1 RES1    0.0000
     16 H7         1.2953   12.5603    5.7303 H         1 RES1    0.0000
     17 C6         2.9564   10.4882    3.8494 C.3       1 RES1    0.0000
     18 H8         3.1597    9.5502    3.8319 H         1 RES1    0.0000
     19 H9         3.7618   10.9928    3.7130 H         1 RES1    0.0000
     20 H10        2.3281   10.6928    3.1531 H         1 RES1    0.0000
@<TRIPOS>BOND
     1    1    4 1
     2    2    3 1
     3    4    7 2
     4    5    2 1
     5    6    5 2
     6    7    6 1
     7    8    7 1
     8    9    4 1
     9   10    9 1
    10   11   10 1
    11   12   10 1
    12   13   10 1
    13   14    6 1
    14   15   14 1
    15   16   14 1
    16   17    9 1
    17   18   17 1
    18   19   17 1
    19   20   17 1
    20    9   14 1
@<TRIPOS>SUBSTRUCTURE
     1 RES1 1

@<TRIPOS>CRYSIN
   5.9700    7.8720    8.0120  77.0200  77.3000  88.2900   2 1

