# MOL2 file generated by ConQuest
# Please check atom types

@<TRIPOS>MOLECULE
RAGGUD
    27    28     1
SMALL
USER_CHARGES
****
Generated from CSD

@<TRIPOS>ATOM
      1 O1         4.3970    0.2201    0.4978 O.2       1 RES1   -1.0000
      2 O2         5.2277    1.4994    2.1921 O.3       1 RES1    0.0000
      3 N1         4.1360    0.9173    1.5050 N.pl3     1 RES1    1.0000
      4 N2         4.6997    2.2399    3.2584 N.2       1 RES1    0.0000
      5 C1         3.0600    3.5380    5.1030 C.3       1 RES1    0.0000
      6 C2         1.6847    0.7851    1.6414 C.3       1 RES1    0.0000
      7 N3         2.5219    2.7562    3.9987 N.3       1 RES1    0.0000
      8 C3         3.3915    2.1004    3.1813 C.2       1 RES1    0.0000
      9 C4         3.0123    1.2606    2.0933 C.2       1 RES1    0.0000
     10 H1         1.7271    2.3880    4.0742 H         1 RES1    0.0000
     11 H2         2.4064    4.1139    5.4595 H         1 RES1    0.0000
     12 H3         1.0869    1.4945    1.5527 H         1 RES1    0.0000
     13 H4         1.7785    0.2827    0.7906 H         1 RES1    0.0000
     14 H5         1.3023    0.1775    2.3542 H         1 RES1    0.0000
     15 O1D        1.7230    0.2201    9.7082 O.2       1 RES1   -1.0000
     16 O2D        0.8923    1.4994    8.0139 O.3       1 RES1    0.0000
     17 N1D        1.9840    0.9173    8.7010 N.pl3     1 RES1    1.0000
     18 N2D        1.4203    2.2399    6.9476 N.2       1 RES1    0.0000
     19 C2D        4.4353    0.7851    8.5646 C.3       1 RES1    0.0000
     20 N3D        3.5981    2.7562    6.2073 N.pl3     1 RES1    0.0000
     21 C3D        2.7285    2.1004    7.0247 C.2       1 RES1    0.0000
     22 C4D        3.1077    1.2606    8.1127 C.2       1 RES1    0.0000
     23 H1D        4.3929    2.3880    6.1318 H         1 RES1    0.0000
     24 H2D        3.7136    4.1139    4.7465 H         1 RES1    0.0000
     25 H3D        5.0331    1.4945    8.6533 H         1 RES1    0.0000
     26 H4D        4.3415    0.2827    9.4154 H         1 RES1    0.0000
     27 H5D        4.8177    0.1775    7.8518 H         1 RES1    0.0000
@<TRIPOS>BOND
     1    1    3 1
     2    2    3 1
     3    3    9 2
     4    4    2 1
     5    5    7 1
     6    6    9 1
     7    7    8 1
     8    8    4 2
     9    9    8 1
    10   10    7 1
    11   11    5 1
    12   12    6 1
    13   13    6 1
    14   14    6 1
    15   15   17 1
    16   16   17 1
    17   17   22 2
    18   18   16 1
    19   19   22 1
    20   20    5 1
    21   21   18 2
    22   22   21 1
    23   23   20 1
    24   24    5 1
    25   25   19 1
    26   26   19 1
    27   27   19 1
    28   20   21 1
@<TRIPOS>SUBSTRUCTURE
     1 RES1 1

@<TRIPOS>CRYSIN
  12.2400   12.2400   13.6080  90.0000  90.0000  90.0000 122 1

