# MOL2 file generated by ConQuest
# Please check atom types

@<TRIPOS>MOLECULE
RAGKES
    37    39     1
SMALL
USER_CHARGES
****
Generated from CSD

@<TRIPOS>ATOM
      1 O1        -2.1248   -3.9589   -8.0987 O.3       1 RES1    0.0000
      2 O2        -2.0177   -6.2067   -8.0133 O.3       1 RES1    0.0000
      3 O3        -3.7601   -6.5182   -5.7142 O.3       1 RES1    0.0000
      4 O4        -4.9595   -4.5293   -5.8884 O.3       1 RES1    0.0000
      5 O5        -5.2442   -1.4066   -8.6133 O.2       1 RES1   -1.0000
      6 N1        -4.6924   -2.3957   -8.0142 N.pl3     1 RES1    1.0000
      7 C1        -3.8408   -3.8518   -6.4523 C.3       1 RES1    0.0000
      8 H1        -3.0735   -3.8345   -5.8430 H         1 RES1    0.0000
      9 C2        -3.4629   -4.3957   -7.8523 C.3       1 RES1    0.0000
     10 C3        -3.4137   -5.9167   -8.0597 C.3       1 RES1    0.0000
     11 H2        -3.7478   -6.1226   -8.9576 H         1 RES1    0.0000
     12 C4        -4.1250   -6.7970   -7.0657 C.3       1 RES1    0.0000
     13 H3        -5.0819   -6.6756   -7.1659 H         1 RES1    0.0000
     14 H4        -3.9218   -7.7241   -7.2632 H         1 RES1    0.0000
     15 C5        -4.6455   -5.6345   -5.0389 C.3       1 RES1    0.0000
     16 C6        -4.3283   -2.4825   -6.7784 C.2       1 RES1    0.0000
     17 H5        -4.3656   -1.7803   -6.1703 H         1 RES1    0.0000
     18 C7        -4.4239   -3.6459   -8.7701 C.3       1 RES1    0.0000
     19 H6        -4.0126   -3.4555   -9.6279 H         1 RES1    0.0000
     20 H7        -5.2391   -4.1512   -8.9134 H         1 RES1    0.0000
     21 C8        -1.3545   -5.0824   -8.5524 C.3       1 RES1    0.0000
     22 C9        -1.3322   -5.1218  -10.0722 C.3       1 RES1    0.0000
     23 H8        -2.2322   -5.1677  -10.4044 H         1 RES1    0.0000
     24 H9        -0.8435   -5.8946  -10.3651 H         1 RES1    0.0000
     25 H10       -0.9078   -4.3284  -10.4063 H         1 RES1    0.0000
     26 C10        0.0182   -4.9864   -7.9414 C.3       1 RES1    0.0000
     27 H11        0.4374   -4.1701   -8.2225 H         1 RES1    0.0000
     28 H12        0.5480   -5.7346   -8.2264 H         1 RES1    0.0000
     29 H13       -0.0568   -4.9946   -6.9841 H         1 RES1    0.0000
     30 C11       -5.9808   -6.2597   -4.7206 C.3       1 RES1    0.0000
     31 H14       -6.4292   -6.4902   -5.5373 H         1 RES1    0.0000
     32 H15       -6.5161   -5.6353   -4.2262 H         1 RES1    0.0000
     33 H16       -5.8460   -7.0522   -4.1948 H         1 RES1    0.0000
     34 C12       -3.9271   -5.1989   -3.7816 C.3       1 RES1    0.0000
     35 H17       -3.7924   -5.9594   -3.2109 H         1 RES1    0.0000
     36 H18       -4.4565   -4.5434   -3.3220 H         1 RES1    0.0000
     37 H19       -3.0775   -4.8190   -4.0139 H         1 RES1    0.0000
@<TRIPOS>BOND
     1    1    9 1
     2    2   10 1
     3    3   12 1
     4    4    7 1
     5    5    6 1
     6    6   16 2
     7    7    8 1
     8    9    7 1
     9   10    9 1
    10   11   10 1
    11   12   10 1
    12   13   12 1
    13   14   12 1
    14   15    3 1
    15   16    7 1
    16   17   16 1
    17   18    6 1
    18   19   18 1
    19   20   18 1
    20   21    1 1
    21   22   21 1
    22   23   22 1
    23   24   22 1
    24   25   22 1
    25   26   21 1
    26   27   26 1
    27   28   26 1
    28   29   26 1
    29   30   15 1
    30   31   30 1
    31   32   30 1
    32   33   30 1
    33   34   15 1
    34   35   34 1
    35   36   34 1
    36   37   34 1
    37    2   21 1
    38    4   15 1
    39    9   18 1
@<TRIPOS>SUBSTRUCTURE
     1 RES1 1

@<TRIPOS>CRYSIN
   8.2220    8.2040   10.2980  90.0000 107.3690  90.0000   4 1

