# MOL2 file generated by ConQuest
# Please check atom types

@<TRIPOS>MOLECULE
RAGKUI
    38    40     1
SMALL
NO_CHARGES
****
Generated from CSD

@<TRIPOS>ATOM
      1 O1         4.2233    3.1893   10.2635 O.3       1 RES1    0.0000
      2 H1         4.3357    3.7731   11.0298 H         1 RES1    0.0000
      3 O2         5.1154    6.4059    5.4754 O.2       1 RES1    0.0000
      4 O3        -1.7320    3.8934    8.7430 O.3       1 RES1    0.0000
      5 N1         4.6354    3.9828    9.2253 N.pl3     1 RES1    0.0000
      6 N2        10.4689    3.4502   10.2465 N.1       1 RES1    0.0000
      7 N3        10.6370    5.6253    6.9045 N.1       1 RES1    0.0000
      8 C1         5.9442    4.2302    8.9456 C.ar      1 RES1    0.0000
      9 C2         7.0790    3.8075    9.6181 C.ar      1 RES1    0.0000
     10 H2         7.0240    3.2730   10.4024 H         1 RES1    0.0000
     11 C3         8.2948    4.2004    9.0941 C.ar      1 RES1    0.0000
     12 C4         8.3559    4.9993    7.9262 C.ar      1 RES1    0.0000
     13 C5         7.2073    5.4235    7.2784 C.ar      1 RES1    0.0000
     14 H3         7.2620    5.9645    6.4989 H         1 RES1    0.0000
     15 C6         5.9702    5.0399    7.7946 C.ar      1 RES1    0.0000
     16 C7         4.6077    5.2481    7.3980 C.2       1 RES1    0.0000
     17 C8         3.8089    4.5788    8.3309 C.2       1 RES1    0.0000
     18 C9         2.3519    4.4253    8.4633 C.ar      1 RES1    0.0000
     19 C10        1.7564    3.1970    8.2269 C.ar      1 RES1    0.0000
     20 H4         2.2924    2.4466    8.0001 H         1 RES1    0.0000
     21 C11        0.3927    3.0614    8.3203 C.ar      1 RES1    0.0000
     22 H5        -0.0107    2.2202    8.1417 H         1 RES1    0.0000
     23 C12       -0.3978    4.1408    8.6717 C.ar      1 RES1    0.0000
     24 C13        0.1846    5.3601    8.9407 C.ar      1 RES1    0.0000
     25 H6        -0.3526    6.1006    9.1992 H         1 RES1    0.0000
     26 C14        1.5615    5.4984    8.8309 C.ar      1 RES1    0.0000
     27 H7         1.9647    6.3396    9.0100 H         1 RES1    0.0000
     28 C15        9.5067    3.7861    9.7394 C.1       1 RES1    0.0000
     29 C16        9.6313    5.3507    7.3682 C.1       1 RES1    0.0000
     30 C17        4.2225    5.9533    6.1999 C.2       1 RES1    0.0000
     31 C18        2.7908    6.1354    5.8198 C.3       1 RES1    0.0000
     32 H8         2.7362    6.4580    4.8956 H         1 RES1    0.0000
     33 H9         2.3742    6.7902    6.4186 H         1 RES1    0.0000
     34 H10        2.3215    5.2787    5.8946 H         1 RES1    0.0000
     35 C19       -2.6004    4.9946    8.9384 C.3       1 RES1    0.0000
     36 H11       -3.5303    4.6890    8.8957 H         1 RES1    0.0000
     37 H12       -2.4434    5.6627    8.2383 H         1 RES1    0.0000
     38 H13       -2.4293    5.3941    9.8171 H         1 RES1    0.0000
@<TRIPOS>BOND
     1    1    2 1
     2    3   30 2
     3    4   23 1
     4    5    1 1
     5    6   28 3
     6    7   29 3
     7    8    5 1
     8    9    8 ar
     9   10    9 1
    10   11    9 ar
    11   12   11 ar
    12   13   12 ar
    13   14   13 1
    14   15    8 ar
    15   16   15 1
    16   17    5 1
    17   18   17 1
    18   19   18 ar
    19   20   19 1
    20   21   19 ar
    21   22   21 1
    22   23   21 ar
    23   24   23 ar
    24   25   24 1
    25   26   18 ar
    26   27   26 1
    27   28   11 1
    28   29   12 1
    29   30   16 1
    30   31   30 1
    31   32   31 1
    32   33   31 1
    33   34   31 1
    34   35    4 1
    35   36   35 1
    36   37   35 1
    37   38   35 1
    38   13   15 ar
    39   16   17 2
    40   24   26 ar
@<TRIPOS>SUBSTRUCTURE
     1 RES1 1

@<TRIPOS>CRYSIN
  15.9534    7.3983   13.6380  90.0000  93.6520  90.0000  14 1

