# MOL2 file generated by ConQuest
# Please check atom types

@<TRIPOS>MOLECULE
RAGNIW
    27    28     1
SMALL
NO_CHARGES
****
Generated from CSD

@<TRIPOS>ATOM
      1 N1         3.7945    1.4645   10.0967 N.pl3     1 RES1    0.0000
      2 C1         3.1964    0.6128    9.2966 C.2       1 RES1    0.0000
      3 C2         3.9271   -0.6805    9.2197 C.3       1 RES1    0.0000
      4 C3         4.8445   -0.5991   10.4221 C.3       1 RES1    0.0000
      5 C4         5.0894    0.8967   10.6558 C.3       1 RES1    0.0000
      6 O1         3.4123    2.6445   10.3807 O.2       1 RES1    0.0000
      7 C5         1.9916    0.9866    8.6518 C.1       1 RES1    0.0000
      8 N2         1.0181    1.2764    8.1268 N.1       1 RES1    0.0000
      9 C6         5.1967    1.3011   12.1081 C.3       1 RES1    0.0000
     10 C7         6.2596    1.4457    9.8335 C.ar      1 RES1    0.0000
     11 C8         7.4862    0.8023    9.8882 C.ar      1 RES1    0.0000
     12 C9         8.5713    1.2698    9.1724 C.ar      1 RES1    0.0000
     13 C10        8.4585    2.3932    8.3989 C.ar      1 RES1    0.0000
     14 C11        7.2669    3.0509    8.3575 C.ar      1 RES1    0.0000
     15 C12        6.1710    2.5846    9.0615 C.ar      1 RES1    0.0000
     16 H1         3.2815   -1.4326    9.2582 H         1 RES1    0.0000
     17 H2         4.4153   -0.7293    8.3708 H         1 RES1    0.0000
     18 H3         4.3515   -0.9508   11.2252 H         1 RES1    0.0000
     19 H4         5.6835   -1.0745   10.3082 H         1 RES1    0.0000
     20 H5         4.4408    0.9573   12.6302 H         1 RES1    0.0000
     21 H6         6.0140    1.0159   12.4971 H         1 RES1    0.0000
     22 H7         5.1727    2.2662   12.1717 H         1 RES1    0.0000
     23 H8         7.5605    0.0391   10.4413 H         1 RES1    0.0000
     24 H9         9.4133    0.7880    9.2286 H         1 RES1    0.0000
     25 H10        9.2132    2.7090    7.8828 H         1 RES1    0.0000
     26 H11        7.1266    3.8030    7.8088 H         1 RES1    0.0000
     27 H12        5.3624    3.0411    8.9772 H         1 RES1    0.0000
@<TRIPOS>BOND
     1    1    2 2
     2    2    3 1
     3    3    4 1
     4    4    5 1
     5    5    1 1
     6    6    1 1
     7    7    2 1
     8    8    7 3
     9    9    5 1
    10   10    5 1
    11   11   10 ar
    12   12   11 ar
    13   13   12 ar
    14   14   13 ar
    15   15   10 ar
    16   16    3 1
    17   17    3 1
    18   18    4 1
    19   19    4 1
    20   20    9 1
    21   21    9 1
    22   22    9 1
    23   23   11 1
    24   24   12 1
    25   25   13 1
    26   26   14 1
    27   27   15 1
    28   14   15 ar
@<TRIPOS>SUBSTRUCTURE
     1 RES1 1

@<TRIPOS>CRYSIN
  10.9880    6.5120   14.7910  90.0000  90.8400  90.0000 231 1

