# MOL2 file generated by ConQuest
# Please check atom types

@<TRIPOS>MOLECULE
RAHDEJ
    38    42     2
SMALL
USER_CHARGES
****
Generated from CSD

@<TRIPOS>ATOM
      1 O1         1.8466   13.8835    1.1144 O.3       1 RES1    0.0000
      2 O2        -0.3826   16.4346    1.2342 O.2       1 RES1   -1.0000
      3 O3         0.8224   13.2640   -1.3262 O.3       1 RES1    0.0000
      4 N1         0.2381   15.8419   -0.7785 N.2       1 RES1    0.0000
      5 N2         0.5210   16.1525    0.4119 N.pl3     1 RES1    1.0000
      6 C1         2.4811   12.8070    0.3943 C.3       1 RES1    0.0000
      7 C2         1.4814   12.2393   -0.5667 C.3       1 RES1    0.0000
      8 C3         1.6218   14.2084   -1.9235 C.ar      1 RES1    0.0000
      9 C4         1.3481   15.5402   -1.6343 C.ar      1 RES1    0.0000
     10 C5         1.8979   16.2221    0.9260 C.ar      1 RES1    0.0000
     11 C6         2.5458   15.0421    1.2385 C.ar      1 RES1    0.0000
     12 C7         2.0317   16.5434   -2.2960 C.ar      1 RES1    0.0000
     13 C8         3.0258   16.2185   -3.2059 C.ar      1 RES1    0.0000
     14 C9         3.3267   14.9046   -3.4439 C.ar      1 RES1    0.0000
     15 C10        2.6339   13.8960   -2.8130 C.ar      1 RES1    0.0000
     16 C11        3.8517   15.1189    1.6942 C.ar      1 RES1    0.0000
     17 C12        4.4544   16.3453    1.8359 C.ar      1 RES1    0.0000
     18 C13        3.7758   17.5110    1.5467 C.ar      1 RES1    0.0000
     19 C14        2.4871   17.4521    1.0852 C.ar      1 RES1    0.0000
     20 O4         5.7287   12.6178   -2.1353 O.3       2 RES2    0.0000
     21 O5         4.0854   10.3934   -0.9815 O.2       2 RES2   -1.0000
     22 O6         6.2915   13.1373    0.4630 O.3       2 RES2    0.0000
     23 N3         5.1117   10.7291    0.9274 N.2       2 RES2    0.0000
     24 N4         5.1405   10.5880   -0.3301 N.pl3     2 RES2    1.0000
     25 C15        6.2424   13.9121   -1.7599 C.3       2 RES2    0.0000
     26 C16        7.0563   13.8692   -0.5170 C.3       2 RES2    0.0000
     27 C17        6.9652   12.2857    1.2867 C.ar      2 RES2    0.0000
     28 C18        6.3570   11.0629    1.5394 C.ar      2 RES2    0.0000
     29 C19        6.3759   10.5684   -1.1319 C.ar      2 RES2    0.0000
     30 C20        6.6162   11.5824   -2.0389 C.ar      2 RES2    0.0000
     31 C21        6.9007   10.2024    2.4844 C.ar      2 RES2    0.0000
     32 C22        8.1022   10.5273    3.0890 C.ar      2 RES2    0.0000
     33 C23        8.7425   11.6913    2.7692 C.ar      2 RES2    0.0000
     34 C24        8.1792   12.5857    1.8826 C.ar      2 RES2    0.0000
     35 C25        7.7760   11.4931   -2.8130 C.ar      2 RES2    0.0000
     36 C26        8.6325   10.4345   -2.6626 C.ar      2 RES2    0.0000
     37 C27        8.3770    9.4455   -1.7658 C.ar      2 RES2    0.0000
     38 C28        7.2277    9.5008   -0.9888 C.ar      2 RES2    0.0000
@<TRIPOS>BOND
     1    1    6 1
     2    2    5 1
     3    3    7 1
     4    4    5 2
     5    5   10 1
     6    6    7 1
     7    8    3 1
     8    9    4 1
     9   10   11 ar
    10   11    1 1
    11   12    9 ar
    12   13   12 ar
    13   14   13 ar
    14   15    8 ar
    15   16   11 ar
    16   17   16 ar
    17   18   17 ar
    18   19   10 ar
    19   20   25 1
    20   21   24 1
    21   22   26 1
    22   23   24 2
    23   24   29 1
    24   25   26 1
    25   27   22 1
    26   28   23 1
    27   29   30 ar
    28   30   20 1
    29   31   28 ar
    30   32   31 ar
    31   33   32 ar
    32   34   27 ar
    33   35   30 ar
    34   36   35 ar
    35   37   36 ar
    36   38   29 ar
    37    8    9 ar
    38   14   15 ar
    39   18   19 ar
    40   27   28 ar
    41   33   34 ar
    42   37   38 ar
@<TRIPOS>SUBSTRUCTURE
     1 RES1 1
     2 RES2 20

@<TRIPOS>CRYSIN
   9.5420   17.8520   14.6060  90.0000  90.5300  90.0000  14 1

