# MOL2 file generated by ConQuest
# Please check atom types

@<TRIPOS>MOLECULE
RAHFUE
    46    45     2
SMALL
NO_CHARGES
****
Generated from CSD

@<TRIPOS>ATOM
      1 C1         6.0218    0.0649    5.9860 C.2       1 RES1    0.0000
      2 C2         5.5022   -0.8992    5.2128 C.2       1 RES1    0.0000
      3 H1         4.9256   -1.5316    5.5766 H         1 RES1    0.0000
      4 C3         5.8363   -0.9467    3.8441 C.2       1 RES1    0.0000
      5 C4         6.5936    0.0685    3.3428 C.2       1 RES1    0.0000
      6 H2         6.7966    0.0670    2.4348 H         1 RES1    0.0000
      7 C5         6.8466    1.1412    5.4978 C.2       1 RES1    0.0000
      8 C6         5.2585   -2.0202    3.0041 C.2       1 RES1    0.0000
      9 C7         6.0137   -2.6089    1.8933 C.ar      1 RES1    0.0000
     10 C8         7.4054   -2.5263    1.7987 C.ar      1 RES1    0.0000
     11 H3         7.8742   -2.0600    2.4513 H         1 RES1    0.0000
     12 C9         8.0992   -3.1112    0.7754 C.ar      1 RES1    0.0000
     13 H4         9.0268   -3.0536    0.7391 H         1 RES1    0.0000
     14 C10        7.3996   -3.7909   -0.2052 C.ar      1 RES1    0.0000
     15 H5         7.8593   -4.1736   -0.9171 H         1 RES1    0.0000
     16 C11        6.0359   -3.9067   -0.1409 C.ar      1 RES1    0.0000
     17 H6         5.5783   -4.3650   -0.8083 H         1 RES1    0.0000
     18 C12        5.3337   -3.3438    0.9130 C.ar      1 RES1    0.0000
     19 C13        7.8321    2.1888    3.4859 C.3       1 RES1    0.0000
     20 H7         8.0488    2.8239    4.2006 H         1 RES1    0.0000
     21 C14        9.1425    1.6947    2.9201 C.3       1 RES1    0.0000
     22 H8         8.9716    1.0587    2.2074 H         1 RES1    0.0000
     23 H9         9.6485    1.2425    3.6139 H         1 RES1    0.0000
     24 C15        9.9459    2.8667    2.3796 C.3       1 RES1    0.0000
     25 H10       10.2028    3.4461    3.1138 H         1 RES1    0.0000
     26 H11       10.7563    2.5348    1.9619 H         1 RES1    0.0000
     27 C16        9.1474    3.6628    1.3670 C.3       1 RES1    0.0000
     28 H12        9.6610    4.4397    1.0942 H         1 RES1    0.0000
     29 H13        8.9926    3.1168    0.5809 H         1 RES1    0.0000
     30 C17        7.8200    4.1150    1.9273 C.3       1 RES1    0.0000
     31 H14        7.3145    4.5660    1.2327 H         1 RES1    0.0000
     32 H15        7.9738    4.7498    2.6449 H         1 RES1    0.0000
     33 C18        7.0102    2.9397    2.4587 C.3       1 RES1    0.0000
     34 H16        6.1907    3.2623    2.8649 H         1 RES1    0.0000
     35 H17        6.7743    2.3472    1.7287 H         1 RES1    0.0000
     36 O1         4.1243   -2.4166    3.2829 O.2       1 RES1    0.0000
     37 O2         3.9995   -3.5341    0.9369 O.3       1 RES1    0.0000
     38 O3         7.2986    2.0468    6.1630 O.2       1 RES1    0.0000
     39 N1         7.0615    1.0756    4.1067 N.am      1 RES1    0.0000
     40 N2         5.6269    0.0364    7.3935 N.pl3     1 RES1    0.0000
     41 O4         6.4282    0.3599    8.2306 O.2       1 RES1    0.0000
     42 O5         4.5070   -0.2546    7.6794 O.2       1 RES1    0.0000
     43 H18        3.6949   -3.2431    1.7715 H         1 RES1    0.0000
     44 N3         5.8092    0.1110    7.4421 Du        2 SUP2    0.0000
     45 O6         6.8174    0.0115    8.1243 Du        2 SUP2    0.0000
     46 O7         4.6794    0.1532    7.8195 Du        2 SUP2    0.0000
@<TRIPOS>BOND
     1    1    2 2
     2    2    3 1
     3    4    2 1
     4    5    4 2
     5    6    5 1
     6    7    1 1
     7    8    4 1
     8    9    8 1
     9   10    9 ar
    10   11   10 1
    11   12   10 ar
    12   13   12 1
    13   14   12 ar
    14   15   14 1
    15   16   14 ar
    16   17   16 1
    17   18    9 ar
    18   19   20 1
    19   21   19 1
    20   22   21 1
    21   23   21 1
    22   24   21 1
    23   25   24 1
    24   26   24 1
    25   27   24 1
    26   28   27 1
    27   29   27 1
    28   30   27 1
    29   31   30 1
    30   32   30 1
    31   33   19 1
    32   34   33 1
    33   35   33 1
    34   36    8 2
    35   37   18 1
    36   38    7 2
    37   39    5 1
    38   40    1 1
    39   41   40 2
    40   42   40 2
    41   43   37 1
    42    7   39 1
    43   16   18 ar
    44   19   39 1
    45   30   33 1
@<TRIPOS>SUBSTRUCTURE
     1 RES1 1
     2 SUP2 44

@<TRIPOS>CRYSIN
  10.1622   19.1448    8.4373  90.0000 102.4250  90.0000  14 1

