# MOL2 file generated by ConQuest
# Please check atom types

@<TRIPOS>MOLECULE
RAHXEG
    30    32     1
SMALL
NO_CHARGES
****
Generated from CSD

@<TRIPOS>ATOM
      1 H1         6.5820    2.8004   19.0643 H         1 RES1    0.0000
      2 C1         2.5211    2.5827   18.4217 C.3       1 RES1    0.0000
      3 H2         1.9746    1.7818   18.5626 H         1 RES1    0.0000
      4 C2         2.2151    3.2545   17.0806 C.3       1 RES1    0.0000
      5 H3         1.6162    2.7170   16.5205 H         1 RES1    0.0000
      6 C3         1.5852    4.5953   17.4978 C.3       1 RES1    0.0000
      7 H4         2.2951    5.2656   17.5821 H         1 RES1    0.0000
      8 C4         4.0167    2.2490   18.3563 C.3       1 RES1    0.0000
      9 H5         4.1173    1.2965   18.1504 H         1 RES1    0.0000
     10 O1         4.5474    3.0224   17.2480 O.3       1 RES1    0.0000
     11 C5         3.5667    3.4664   16.4401 C.2       1 RES1    0.0000
     12 C6         0.4432    5.1909   16.7034 C.3       1 RES1    0.0000
     13 H6        -0.2771    4.5459   16.6183 H         1 RES1    0.0000
     14 H7         0.7450    5.4317   15.8148 H         1 RES1    0.0000
     15 C7        -0.0510    6.4394   17.4504 C.3       1 RES1    0.0000
     16 H8         0.6286    7.1294   17.4010 H         1 RES1    0.0000
     17 H9        -0.8498    6.7761   17.0159 H         1 RES1    0.0000
     18 C8        -0.3618    6.1449   18.9109 C.3       1 RES1    0.0000
     19 H10       -0.5596    6.9763   19.3682 H         1 RES1    0.0000
     20 H11       -1.1496    5.5812   18.9623 H         1 RES1    0.0000
     21 C9         0.7988    5.4492   19.6116 C.3       1 RES1    0.0000
     22 H12        1.5728    6.0324   19.6430 H         1 RES1    0.0000
     23 H13        0.5521    5.2126   20.5194 H         1 RES1    0.0000
     24 C10        4.8003    2.5603   19.6043 C.3       1 RES1    0.0000
     25 H14        4.7404    3.5106   19.7908 H         1 RES1    0.0000
     26 H15        4.4103    2.0843   20.3550 H         1 RES1    0.0000
     27 N1         1.0952    4.2535   18.8382 N.3       1 RES1    0.0000
     28 O2         2.2620    3.5868   19.4149 O.3       1 RES1    0.0000
     29 O3         3.8106    4.0069   15.3949 O.2       1 RES1    0.0000
     30 O4         6.1615    2.1946   19.4765 O.3       1 RES1    0.0000
@<TRIPOS>BOND
     1    1   30 1
     2    2    3 1
     3    4    2 1
     4    5    4 1
     5    6    4 1
     6    7    6 1
     7    8    2 1
     8    9    8 1
     9   10    8 1
    10   11    4 1
    11   12    6 1
    12   13   12 1
    13   14   12 1
    14   15   12 1
    15   16   15 1
    16   17   15 1
    17   18   15 1
    18   19   18 1
    19   20   18 1
    20   21   18 1
    21   22   21 1
    22   23   21 1
    23   24    8 1
    24   25   24 1
    25   26   24 1
    26   27    6 1
    27   28    2 1
    28   29   11 2
    29   30   24 1
    30   10   11 1
    31   21   27 1
    32   27   28 1
@<TRIPOS>SUBSTRUCTURE
     1 RES1 1

@<TRIPOS>CRYSIN
   6.8921    7.2549   20.8171  90.0000  90.0000  90.0000  19 1

