# MOL2 file generated by ConQuest
# Please check atom types

@<TRIPOS>MOLECULE
RAHYEF
    72    72     2
SMALL
NO_CHARGES
****
Generated from CSD

@<TRIPOS>ATOM
      1 O1         5.9896   -0.3480    5.2016 O.2       1 RES1    0.0000
      2 O2         2.9789    3.0501    5.5227 O.2       1 RES1    0.0000
      3 O3         2.6108   -1.0731    3.7893 O.2       2 RES2    0.0000
      4 O4         5.7889   -4.3259    3.6209 O.2       2 RES2    0.0000
      5 O5        -0.8684   -0.8831    8.1962 O.3       1 RES1    0.0000
      6 O6        -1.1302   -2.3988    5.7083 O.3       1 RES1    0.0000
      7 O7         0.5919   -4.7514    7.8432 O.3       1 RES1    0.0000
      8 O8        -0.6921   -6.6405    6.1810 O.3       1 RES1    0.0000
      9 O9         5.1909   -2.6216    6.4866 O.2       1 RES1    0.0000
     10 O10        4.4594   -2.1395    8.4481 O.2       1 RES1    0.0000
     11 O11        9.2601   -0.2832    1.6570 O.3       2 RES2    0.0000
     12 O12        9.7150    1.3600    3.8201 O.3       2 RES2    0.0000
     13 O13        8.3479    3.2908    1.0340 O.3       2 RES2    0.0000
     14 O14        9.0441    4.8513    3.0856 O.3       2 RES2    0.0000
     15 O15        3.3980    1.2288    2.4316 O.2       2 RES2    0.0000
     16 O16        3.8770    0.5082    0.4551 O.2       2 RES2    0.0000
     17 N1         4.6421   -1.8451    7.2742 N.pl3     1 RES1    0.0000
     18 N2         4.5234    1.3563    5.4321 N.am      1 RES1    0.0000
     19 N3         2.6960    1.2199    6.8385 N.am      1 RES1    0.0000
     20 N4         3.8635    0.3920    1.6750 N.pl3     2 RES2    0.0000
     21 N5         4.1759   -2.7118    3.6467 N.am      2 RES2    0.0000
     22 N6         6.0609   -2.4830    2.3135 N.am      2 RES2    0.0000
     23 C1         3.0715    0.0030    7.2909 C.2       1 RES1    0.0000
     24 C2         4.2155   -0.5589    6.8073 C.2       1 RES1    0.0000
     25 C3         5.0007    0.0954    5.7728 C.2       1 RES1    0.0000
     26 C4         3.3868    1.9547    5.8958 C.2       1 RES1    0.0000
     27 C5         5.5971   -1.3302    1.7704 C.2       2 RES2    0.0000
     28 C6         4.4204   -0.8272    2.2387 C.2       2 RES2    0.0000
     29 C7         3.6479   -1.4785    3.2747 C.2       2 RES2    0.0000
     30 C8         5.3618   -3.2409    3.2276 C.2       2 RES2    0.0000
     31 C9         2.0332   -0.6752    8.1407 C.3       1 RES1    0.0000
     32 C10        1.2484   -1.6514    7.2436 C.3       1 RES1    0.0000
     33 C11       -0.0775   -2.0389    7.8741 C.3       1 RES1    0.0000
     34 C12       -0.8962   -2.9711    7.0042 C.3       1 RES1    0.0000
     35 C13       -0.2324   -4.3251    6.7572 C.3       1 RES1    0.0000
     36 C14       -1.2703   -5.3632    6.4394 C.3       1 RES1    0.0000
     37 C15        6.4840   -0.6826    0.7442 C.3       2 RES2    0.0000
     38 C16        7.0855    0.6632    1.1776 C.3       2 RES2    0.0000
     39 C17        8.1675    0.4754    2.2222 C.3       2 RES2    0.0000
     40 C18        8.7311    1.7497    2.8417 C.3       2 RES2    0.0000
     41 C19        9.3618    2.7625    1.8804 C.3       2 RES2    0.0000
     42 C20       10.0272    3.9190    2.6151 C.3       2 RES2    0.0000
     43 H1         4.9729    1.9599    4.8149 H         1 RES1    0.0000
     44 H2         1.9603    1.5873    7.1034 H         1 RES1    0.0000
     45 H3         3.8456   -3.2044    4.3389 H         2 RES2    0.0000
     46 H4         6.8434   -2.8392    2.0120 H         2 RES2    0.0000
     47 H5        -0.8999   -0.3704    7.5318 H         1 RES1    0.0000
     48 H6        -1.8937   -2.0508    5.6900 H         1 RES1    0.0000
     49 H7         0.1216   -4.8408    8.5332 H         1 RES1    0.0000
     50 H8        -0.3555   -6.6449    5.4118 H         1 RES1    0.0000
     51 H9         1.4197   -0.0022    8.5296 H         1 RES1    0.0000
     52 H10        2.4682   -1.1677    8.8811 H         1 RES1    0.0000
     53 H11        1.0831   -1.2281    6.3638 H         1 RES1    0.0000
     54 H12        1.7906   -2.4659    7.0924 H         1 RES1    0.0000
     55 H13        0.1215   -2.5188    8.7291 H         1 RES1    0.0000
     56 H14       -1.7789   -3.1261    7.4476 H         1 RES1    0.0000
     57 H15        0.3539   -4.2298    5.9537 H         1 RES1    0.0000
     58 H16       -1.8987   -5.4385    7.2004 H         1 RES1    0.0000
     59 H17       -1.7880   -5.0741    5.6461 H         1 RES1    0.0000
     60 H18        9.4011   -0.9643    2.1292 H         2 RES2    0.0000
     61 H19       10.2843    0.8585    3.4602 H         2 RES2    0.0000
     62 H20        8.6266    3.3117    0.2417 H         2 RES2    0.0000
     63 H21        8.9663    4.7790    3.9197 H         2 RES2    0.0000
     64 H22        5.9594   -0.5433   -0.0842 H         2 RES2    0.0000
     65 H23        7.2233   -1.3048    0.5291 H         2 RES2    0.0000
     66 H24        7.4683    1.1208    0.3881 H         2 RES2    0.0000
     67 H25        6.3695    1.2385    1.5470 H         2 RES2    0.0000
     68 H26        7.7763   -0.0700    2.9640 H         2 RES2    0.0000
     69 H27        7.9859    2.2103    3.3247 H         2 RES2    0.0000
     70 H28       10.0462    2.2975    1.3182 H         2 RES2    0.0000
     71 H29       10.5454    3.5688    3.3833 H         2 RES2    0.0000
     72 H30       10.6552    4.3810    2.0047 H         2 RES2    0.0000
@<TRIPOS>BOND
     1    1   25 2
     2    2   26 2
     3    3   29 2
     4    4   30 2
     5    5   33 1
     6    6   34 1
     7    7   35 1
     8    8   36 1
     9    9   17 2
    10   10   17 2
    11   11   39 1
    12   12   40 1
    13   13   41 1
    14   14   42 1
    15   15   20 2
    16   16   20 2
    17   17   24 1
    18   18   25 1
    19   19   23 1
    20   20   28 1
    21   21   29 1
    22   22   27 1
    23   23   24 2
    24   24   25 1
    25   26   18 1
    26   27   28 2
    27   28   29 1
    28   30   21 1
    29   31   23 1
    30   32   31 1
    31   33   32 1
    32   34   33 1
    33   35   34 1
    34   36   35 1
    35   37   27 1
    36   38   37 1
    37   39   38 1
    38   40   39 1
    39   41   40 1
    40   42   41 1
    41   43   18 1
    42   44   19 1
    43   45   21 1
    44   46   22 1
    45   47    5 1
    46   48    6 1
    47   49    7 1
    48   50    8 1
    49   51   31 1
    50   52   31 1
    51   53   32 1
    52   54   32 1
    53   55   33 1
    54   56   34 1
    55   57   35 1
    56   58   36 1
    57   59   36 1
    58   60   11 1
    59   61   12 1
    60   62   13 1
    61   63   14 1
    62   64   37 1
    63   65   37 1
    64   66   38 1
    65   67   38 1
    66   68   39 1
    67   69   40 1
    68   70   41 1
    69   71   42 1
    70   72   42 1
    71   19   26 1
    72   22   30 1
@<TRIPOS>SUBSTRUCTURE
     1 RES1 1
     2 RES2 3

@<TRIPOS>CRYSIN
   9.2300    7.4520   18.3890  90.0000  95.3900  90.0000   4 1

