# MOL2 file generated by ConQuest
# Please check atom types

@<TRIPOS>MOLECULE
RAJDOV
    49    50     2
SMALL
NO_CHARGES
****
Generated from CSD

@<TRIPOS>ATOM
      1 O1         5.2489    2.0083    1.4632 O.3       1 RES1    0.0000
      2 O2         5.4857    0.3243   -0.0439 O.3       1 RES1    0.0000
      3 O3         3.4569   -0.2362    2.3136 O.3       1 RES1    0.0000
      4 O4         2.2205   -1.8846    1.3824 O.2       1 RES1    0.0000
      5 O5        -1.9197    4.0123    1.4291 O.2       1 RES1    0.0000
      6 O6        -3.2434    2.3231    1.7226 O.2       1 RES1    0.0000
      7 N1        -2.1246    2.8129    1.5997 N.pl3     1 RES1    0.0000
      8 C1         4.8397    2.5493    0.2119 C.3       1 RES1    0.0000
      9 H1         5.5033    3.2167   -0.1555 H         1 RES1    0.0000
     10 H2         4.0140    3.0209    0.3370 H         1 RES1    0.0000
     11 C2         4.9630    1.4118   -0.7944 C.3       1 RES1    0.0000
     12 H3         5.5901    1.5524   -1.5293 H         1 RES1    0.0000
     13 H4         4.4843    1.2797   -1.3997 H         1 RES1    0.0000
     14 C3         4.5720    1.2797   -0.5728 Du        2 SUP2    0.0000
     15 H5         3.6695    0.9790   -0.4925 Du        2 SUP2    0.0000
     16 C4         5.9999    0.8426    1.1829 C.3       1 RES1    0.0000
     17 C5         7.5119    1.1166    1.0596 C.3       1 RES1    0.0000
     18 H6         7.7326    1.8741    1.6563 H         1 RES1    0.0000
     19 H7         7.7296    1.3426    0.1620 H         1 RES1    0.0000
     20 C6         8.2237   -0.1659    1.5198 C.3       1 RES1    0.0000
     21 H8         8.8502    0.0210    2.2473 H         1 RES1    0.0000
     22 H9         8.6910   -0.5874    0.8126 H         1 RES1    0.0000
     23 C7         7.1172   -1.1092    2.0317 C.3       1 RES1    0.0000
     24 H10        7.4064   -1.6083    2.8253 H         1 RES1    0.0000
     25 H11        6.9085   -1.7832    1.3206 H         1 RES1    0.0000
     26 C8         5.8780   -0.2236    2.3013 C.3       1 RES1    0.0000
     27 C9         5.9730    0.4547    3.6813 C.3       1 RES1    0.0000
     28 H12        6.8442    0.8601    3.8232 H         1 RES1    0.0000
     29 H13        5.3799    1.2098    3.7117 H         1 RES1    0.0000
     30 C10        5.7021   -0.5045    4.8085 C.2       1 RES1    0.0000
     31 H14        5.9931   -0.2308    5.7141 H         1 RES1    0.0000
     32 C11        5.0864   -1.6677    4.6366 C.2       1 RES1    0.0000
     33 H15        4.9257   -2.2447    5.3693 H         1 RES1    0.0000
     34 C12        4.6008   -2.1661    3.3098 C.3       1 RES1    0.0000
     35 H16        5.1512   -2.9859    3.0093 H         1 RES1    0.0000
     36 H17        3.6893   -2.5104    3.3955 H         1 RES1    0.0000
     37 C13        4.6347   -1.1074    2.2093 C.3       1 RES1    0.0000
     38 H18        4.5951   -1.5454    1.3414 H         1 RES1    0.0000
     39 C14        2.3284   -0.7562    1.8162 C.2       1 RES1    0.0000
     40 C15        1.1922    0.2182    1.8206 C.ar      1 RES1    0.0000
     41 C16        1.3999    1.5943    1.8863 C.ar      1 RES1    0.0000
     42 H19        2.2891    1.9510    1.9323 H         1 RES1    0.0000
     43 C17        0.3115    2.4606    1.7930 C.ar      1 RES1    0.0000
     44 H20        0.4728    3.4125    1.8105 H         1 RES1    0.0000
     45 C18       -0.9626    1.9136    1.6830 C.ar      1 RES1    0.0000
     46 C19       -1.1890    0.5503    1.6449 C.ar      1 RES1    0.0000
     47 H21       -2.0570    0.2028    1.5604 H         1 RES1    0.0000
     48 C20       -0.0970   -0.3020    1.6892 C.ar      1 RES1    0.0000
     49 H22       -0.2032   -1.2447    1.6226 H         1 RES1    0.0000
@<TRIPOS>BOND
     1    1    8 1
     2    2   11 1
     3    3   37 1
     4    4   39 2
     5    5    7 2
     6    6    7 2
     7    7   45 1
     8    8    9 1
     9   10    8 1
    10   11    8 1
    11   12   11 1
    12   13   11 1
    13   16    1 1
    14   17   16 1
    15   18   17 1
    16   19   17 1
    17   20   17 1
    18   21   20 1
    19   22   20 1
    20   23   20 1
    21   24   23 1
    22   25   23 1
    23   26   16 1
    24   27   26 1
    25   28   27 1
    26   29   27 1
    27   30   27 1
    28   31   30 1
    29   32   30 2
    30   33   32 1
    31   34   32 1
    32   35   34 1
    33   36   34 1
    34   37   26 1
    35   38   37 1
    36   39    3 1
    37   40   39 1
    38   41   40 ar
    39   42   41 1
    40   43   41 ar
    41   44   43 1
    42   45   43 ar
    43   46   45 ar
    44   47   46 1
    45   48   40 ar
    46   49   48 1
    47    2   16 1
    48   23   26 1
    49   34   37 1
    50   46   48 ar
@<TRIPOS>SUBSTRUCTURE
     1 RES1 1
     2 SUP2 14

@<TRIPOS>CRYSIN
  18.8106    6.9928   13.7165  90.0000 109.1180  90.0000  14 1

