# MOL2 file generated by ConQuest
# Please check atom types

@<TRIPOS>MOLECULE
RAJFEN
   106   112     2
SMALL
NO_CHARGES
****
Generated from CSD

@<TRIPOS>ATOM
      1 O1         8.3355    1.9910    1.0589 O.3       1 RES1    0.0000
      2 O2         6.5204    3.0477    1.9654 O.3       1 RES1    0.0000
      3 O3         4.6550    1.5594    3.1288 O.3       1 RES1    0.0000
      4 O4         5.0049    2.5647    5.1181 O.2       1 RES1    0.0000
      5 O5         1.0583    6.9872    0.9928 O.2       1 RES1    0.0000
      6 O6         0.7485    7.6003    3.0499 O.2       1 RES1    0.0000
      7 N1         1.2164    6.8457    2.2003 N.pl3     1 RES1    0.0000
      8 C1         7.9172    3.0647    0.1725 C.3       1 RES1    0.0000
      9 H1         7.3036    2.5296   -0.6423 H         1 RES1    0.0000
     10 H2         8.6560    3.4316   -0.2569 H         1 RES1    0.0000
     11 C2         7.1464    3.9641    1.0699 C.3       1 RES1    0.0000
     12 H3         7.7522    4.6297    1.3947 H         1 RES1    0.0000
     13 H4         6.3826    4.4458    0.6056 H         1 RES1    0.0000
     14 C3         7.4485    1.9703    2.1893 C.3       1 RES1    0.0000
     15 C4         8.2786    2.2407    3.4371 C.3       1 RES1    0.0000
     16 H5         7.5960    2.2579    4.2941 H         1 RES1    0.0000
     17 H6         8.7278    3.0809    3.2481 H         1 RES1    0.0000
     18 C5         9.3326    1.1542    3.6574 C.3       1 RES1    0.0000
     19 H7        10.2559    1.1231    2.9362 H         1 RES1    0.0000
     20 H8         9.9500    1.2879    4.3675 H         1 RES1    0.0000
     21 C6         8.6773   -0.2266    3.7216 C.3       1 RES1    0.0000
     22 H9         8.2213   -0.4341    4.5877 H         1 RES1    0.0000
     23 H10        9.4062   -0.8212    3.6518 H         1 RES1    0.0000
     24 C7         7.8159   -0.4617    2.4627 C.3       1 RES1    0.0000
     25 H11        7.5593   -1.2593    2.4223 H         1 RES1    0.0000
     26 H12        8.4084   -0.3474    1.7250 H         1 RES1    0.0000
     27 C8         6.7160    0.5944    2.2352 C.3       1 RES1    0.0000
     28 C9         6.0164    0.3323    0.8735 C.3       1 RES1    0.0000
     29 H13        5.1290    0.8281    0.7524 H         1 RES1    0.0000
     30 H14        6.6483    0.6673    0.0918 H         1 RES1    0.0000
     31 C10        5.6134   -1.0933    0.6129 C.2       1 RES1    0.0000
     32 H15        6.0483   -1.3713   -0.1835 H         1 RES1    0.0000
     33 C11        4.7434   -1.7881    1.3084 C.2       1 RES1    0.0000
     34 H16        4.4743   -2.7063    0.9726 H         1 RES1    0.0000
     35 C12        4.0342   -1.2557    2.5379 C.3       1 RES1    0.0000
     36 H17        3.4408   -1.9310    2.8995 H         1 RES1    0.0000
     37 H18        3.5531   -0.4569    2.1471 H         1 RES1    0.0000
     38 C13        4.9594   -0.7528    3.6408 C.3       1 RES1    0.0000
     39 H19        5.6319   -1.4007    3.8537 H         1 RES1    0.0000
     40 H20        4.3386   -0.5919    4.4593 H         1 RES1    0.0000
     41 C14        5.6974    0.5537    3.4041 C.3       1 RES1    0.0000
     42 H21        6.2190    0.7001    4.3675 H         1 RES1    0.0000
     43 C15        4.4808    2.5402    4.0354 C.2       1 RES1    0.0000
     44 C16        3.5672    3.5980    3.5197 C.ar      1 RES1    0.0000
     45 C17        3.3544    3.7846    2.1617 C.ar      1 RES1    0.0000
     46 H22        3.7416    3.1501    1.6883 H         1 RES1    0.0000
     47 C18        2.5649    4.8526    1.7232 C.ar      1 RES1    0.0000
     48 H23        2.4790    5.0174    0.8074 H         1 RES1    0.0000
     49 C19        2.0221    5.6942    2.6701 C.ar      1 RES1    0.0000
     50 C20        2.2043    5.5111    4.0354 C.ar      1 RES1    0.0000
     51 H24        1.8070    6.2205    4.4409 H         1 RES1    0.0000
     52 C21        2.9957    4.4648    4.4575 C.ar      1 RES1    0.0000
     53 H25        3.1846    4.2367    5.4135 H         1 RES1    0.0000
     54 O7         2.1432    7.8139    6.7752 O.3       2 RES2    0.0000
     55 O8         3.9884    8.8394    7.6542 O.3       2 RES2    0.0000
     56 O9         0.2856    6.8748    8.3552 O.3       2 RES2    0.0000
     57 O10        0.7784    4.8486    7.4707 O.2       2 RES2    0.0000
     58 O11       -3.6447    8.3943    2.9747 O.2       2 RES2    0.0000
     59 O12       -3.0396    6.5600    1.9892 O.2       2 RES2    0.0000
     60 N2        -3.0109    7.3379    2.9362 N.pl3     2 RES2    0.0000
     61 C22        2.7137    8.6256    5.7604 C.3       2 RES2    0.0000
     62 H26        2.0865    9.1400    5.4502 H         2 RES2    0.0000
     63 H27        3.2194    8.0577    5.2300 H         2 RES2    0.0000
     64 C23        3.5281    9.6263    6.5440 C.3       2 RES2    0.0000
     65 H28        4.2056    9.9133    5.9274 H         2 RES2    0.0000
     66 H29        3.0082   10.6754    6.6431 H         2 RES2    0.0000
     67 C24        3.0927    7.7303    7.8469 C.3       2 RES2    0.0000
     68 C25        3.9143    6.4545    7.7056 C.3       2 RES2    0.0000
     69 H30        4.3641    6.4859    6.7715 H         2 RES2    0.0000
     70 H31        3.3089    5.6546    7.6157 H         2 RES2    0.0000
     71 C26        4.9630    6.3385    8.8232 C.3       2 RES2    0.0000
     72 H32        5.3478    5.3432    8.9186 H         2 RES2    0.0000
     73 H33        5.5715    7.1083    8.6066 H         2 RES2    0.0000
     74 C27        4.2935    6.4328   10.1848 C.3       2 RES2    0.0000
     75 H34        4.8991    6.4811   10.8087 H         2 RES2    0.0000
     76 H35        3.7343    5.6576   10.2766 H         2 RES2    0.0000
     77 C28        3.4812    7.6978   10.3004 C.3       2 RES2    0.0000
     78 H36        4.0556    8.4411   10.2582 H         2 RES2    0.0000
     79 H37        3.1299    7.8658   11.0473 H         2 RES2    0.0000
     80 C29        2.3595    7.8726    9.2195 C.3       2 RES2    0.0000
     81 C30        1.7361    9.2797    9.3168 C.3       2 RES2    0.0000
     82 H38        2.7851   10.0274    8.8268 H         2 RES2    0.0000
     83 H39        0.9689    9.3835    8.6800 H         2 RES2    0.0000
     84 C31        1.3441    9.7300   10.6986 C.2       2 RES2    0.0000
     85 H40        1.7645   10.7512   10.8271 H         2 RES2    0.0000
     86 C32        0.3915    9.1638   11.4308 C.2       2 RES2    0.0000
     87 H41        0.4496    9.4805   12.5154 H         2 RES2    0.0000
     88 C33       -0.3378    7.9298   11.0216 C.3       2 RES2    0.0000
     89 H42       -0.9661    8.2793   10.3316 H         2 RES2    0.0000
     90 H43       -0.8171    7.7059   11.5978 H         2 RES2    0.0000
     91 C34        0.5273    6.7203   10.7151 C.3       2 RES2    0.0000
     92 H44        0.0562    5.8762   10.7720 H         2 RES2    0.0000
     93 H45        1.4126    6.5072   11.4694 H         2 RES2    0.0000
     94 C35        1.3001    6.7355    9.4177 C.3       2 RES2    0.0000
     95 H46        1.6978    5.8731    9.2673 H         2 RES2    0.0000
     96 C36        0.2025    5.9073    7.4432 C.2       2 RES2    0.0000
     97 C37       -0.6802    6.3074    6.3017 C.ar      2 RES2    0.0000
     98 C38       -1.1264    5.3333    5.4227 C.ar      2 RES2    0.0000
     99 H47       -0.9146    4.4643    5.5604 H         2 RES2    0.0000
    100 C39       -1.8811    5.6488    4.3125 C.ar      2 RES2    0.0000
    101 H48       -2.1509    5.0042    3.6702 H         2 RES2    0.0000
    102 C40       -2.2059    6.9874    4.1235 C.ar      2 RES2    0.0000
    103 C41       -1.7986    7.9806    4.9805 C.ar      2 RES2    0.0000
    104 H49       -2.0223    8.9643    4.8630 H         2 RES2    0.0000
    105 C42       -1.0321    7.6490    6.0797 C.ar      2 RES2    0.0000
    106 H50       -0.6269    8.3475    6.5880 H         2 RES2    0.0000
@<TRIPOS>BOND
     1    1    8 1
     2    2   11 1
     3    3   41 1
     4    4   43 2
     5    5    7 2
     6    6    7 2
     7    7   49 1
     8    8    9 1
     9   10    8 1
    10   11    8 1
    11   12   11 1
    12   13   11 1
    13   14    1 1
    14   15   14 1
    15   16   15 1
    16   17   15 1
    17   18   15 1
    18   19   18 1
    19   20   18 1
    20   21   18 1
    21   22   21 1
    22   23   21 1
    23   24   21 1
    24   25   24 1
    25   26   24 1
    26   27   14 1
    27   28   27 1
    28   29   28 1
    29   30   28 1
    30   31   28 1
    31   32   31 1
    32   33   31 2
    33   34   33 1
    34   35   33 1
    35   36   35 1
    36   37   35 1
    37   38   35 1
    38   39   38 1
    39   40   38 1
    40   41   27 1
    41   42   41 1
    42   43    3 1
    43   44   43 1
    44   45   44 ar
    45   46   45 1
    46   47   45 ar
    47   48   47 1
    48   49   47 ar
    49   50   49 ar
    50   51   50 1
    51   52   44 ar
    52   53   52 1
    53   54   61 1
    54   55   64 1
    55   56   94 1
    56   57   96 2
    57   58   60 2
    58   59   60 2
    59   60  102 1
    60   61   62 1
    61   63   61 1
    62   64   61 1
    63   65   64 1
    64   66   64 1
    65   67   54 1
    66   68   67 1
    67   69   68 1
    68   70   68 1
    69   71   68 1
    70   72   71 1
    71   73   71 1
    72   74   71 1
    73   75   74 1
    74   76   74 1
    75   77   74 1
    76   78   77 1
    77   79   77 1
    78   80   67 1
    79   81   80 1
    80   82   81 1
    81   83   81 1
    82   84   81 1
    83   85   84 1
    84   86   84 2
    85   87   86 1
    86   88   86 1
    87   89   88 1
    88   90   88 1
    89   91   88 1
    90   92   91 1
    91   93   91 1
    92   94   80 1
    93   95   94 1
    94   96   56 1
    95   97   96 1
    96   98   97 ar
    97   99   98 1
    98  100   98 ar
    99  101  100 1
   100  102  100 ar
   101  103  102 ar
   102  104  103 1
   103  105   97 ar
   104  106  105 1
   105    2   14 1
   106   24   27 1
   107   38   41 1
   108   50   52 ar
   109   55   67 1
   110   77   80 1
   111   91   94 1
   112  103  105 ar
@<TRIPOS>SUBSTRUCTURE
     1 RES1 1
     2 RES2 54

@<TRIPOS>CRYSIN
   8.3205   12.5407   18.9520  99.0190  98.9850 102.4470   2 1

