# MOL2 file generated by ConQuest
# Please check atom types

@<TRIPOS>MOLECULE
RAJHAL
    34    35     1
SMALL
NO_CHARGES
****
Generated from CSD

@<TRIPOS>ATOM
      1 O1         2.6353    5.8083    1.1323 O.2       1 RES1    0.0000
      2 O2         1.2661    5.6589    2.7991 O.2       1 RES1    0.0000
      3 N1         2.7926    2.1072    3.9910 N.ar      1 RES1    0.0000
      4 N2         4.4095    0.4774    3.8123 N.3       1 RES1    0.0000
      5 N3         2.1776    5.2080    2.0952 N.pl3     1 RES1    0.0000
      6 C1         3.8411    1.6034    3.3046 C.ar      1 RES1    0.0000
      7 C2         4.3700    2.2003    2.1203 C.ar      1 RES1    0.0000
      8 C3         3.8175    3.3996    1.7210 C.ar      1 RES1    0.0000
      9 C4         2.7580    3.9347    2.4723 C.ar      1 RES1    0.0000
     10 C5         2.2598    3.2597    3.5730 C.ar      1 RES1    0.0000
     11 C6         4.0159   -0.0781    5.1071 C.3       1 RES1    0.0000
     12 C7         4.7520   -1.4078    5.3367 C.3       1 RES1    0.0000
     13 C8         5.4662    1.5375    1.3325 C.3       1 RES1    0.0000
     14 C9         4.2987    0.8781    6.2537 C.ar      1 RES1    0.0000
     15 C10        3.4015    0.9514    7.3264 C.ar      1 RES1    0.0000
     16 C11        3.6602    1.7792    8.4103 C.ar      1 RES1    0.0000
     17 C12        4.8145    2.5568    8.4440 C.ar      1 RES1    0.0000
     18 C13        5.7068    2.4896    7.3917 C.ar      1 RES1    0.0000
     19 C14        5.4563    1.6516    6.3108 C.ar      1 RES1    0.0000
     20 H1         5.1045    0.1929    3.4227 H         1 RES1    0.0000
     21 H2         4.1245    3.8845    0.8610 H         1 RES1    0.0000
     22 H3         1.5599    3.5965    4.0110 H         1 RES1    0.0000
     23 H4         3.0907   -0.2010    5.0981 H         1 RES1    0.0000
     24 H5         5.7934   -1.2203    5.3851 H         1 RES1    0.0000
     25 H6         4.4780   -1.8146    6.2534 H         1 RES1    0.0000
     26 H7         4.5657   -2.0339    4.6138 H         1 RES1    0.0000
     27 H8         5.6685    2.0461    0.6099 H         1 RES1    0.0000
     28 H9         6.2977    1.4811    1.9517 H         1 RES1    0.0000
     29 H10        5.2508    0.6499    0.9938 H         1 RES1    0.0000
     30 H11        2.4884    0.4645    7.2005 H         1 RES1    0.0000
     31 H12        2.9932    1.8363    9.1415 H         1 RES1    0.0000
     32 H13        4.9362    3.1734    9.1881 H         1 RES1    0.0000
     33 H14        6.5646    2.9466    7.2974 H         1 RES1    0.0000
     34 H15        6.0072    1.6169    5.6937 H         1 RES1    0.0000
@<TRIPOS>BOND
     1    1    5 2
     2    2    5 2
     3    3    6 ar
     4    4    6 1
     5    5    9 1
     6    6    7 ar
     7    7    8 ar
     8    8    9 ar
     9    9   10 ar
    10   10    3 ar
    11   11    4 1
    12   12   11 1
    13   13    7 1
    14   14   11 1
    15   15   14 ar
    16   16   15 ar
    17   17   16 ar
    18   18   17 ar
    19   19   14 ar
    20   20    4 1
    21   21    8 1
    22   22   10 1
    23   23   11 1
    24   24   12 1
    25   25   12 1
    26   26   12 1
    27   27   13 1
    28   28   13 1
    29   29   13 1
    30   30   15 1
    31   31   16 1
    32   32   17 1
    33   33   18 1
    34   34   19 1
    35   18   19 ar
@<TRIPOS>SUBSTRUCTURE
     1 RES1 1

@<TRIPOS>CRYSIN
   5.4810    6.7910   35.8770  90.0000  90.0000  90.0000  19 1

