# MOL2 file generated by ConQuest
# Please check atom types

@<TRIPOS>MOLECULE
RAJHIT
    68    70     2
SMALL
NO_CHARGES
****
Generated from CSD

@<TRIPOS>ATOM
      1 O1         5.8811   -0.2333    2.2877 O.2       1 RES1    0.0000
      2 O2         5.6934   -2.1122    3.3489 O.2       1 RES1    0.0000
      3 N1         3.2779   -0.4841    6.1620 N.ar      1 RES1    0.0000
      4 N2         2.1870    1.3505    7.0493 N.3       1 RES1    0.0000
      5 N3         5.4335   -0.9267    3.2030 N.pl3     1 RES1    0.0000
      6 C1         2.9539    0.8148    6.0592 C.ar      1 RES1    0.0000
      7 C2         3.3892    1.5961    4.9765 C.ar      1 RES1    0.0000
      8 H1         3.1346    2.4876    4.9102 H         1 RES1    0.0000
      9 C3         4.1949    1.0337    4.0155 C.ar      1 RES1    0.0000
     10 H2         4.4992    1.5354    3.2937 H         1 RES1    0.0000
     11 C4         4.5376   -0.2892    4.1520 C.ar      1 RES1    0.0000
     12 C5         4.0579   -1.0177    5.2065 C.ar      1 RES1    0.0000
     13 H3         4.2819   -1.9188    5.2654 H         1 RES1    0.0000
     14 C6         1.7399    0.5608    8.2123 C.3       1 RES1    0.0000
     15 H4         2.0408   -0.3595    8.0618 H         1 RES1    0.0000
     16 C7         2.4080    1.0369    9.4997 C.3       1 RES1    0.0000
     17 H5         3.3612    1.0321    9.3856 H         1 RES1    0.0000
     18 H6         2.1685    0.4506   10.2205 H         1 RES1    0.0000
     19 H7         2.1147    1.9284    9.7016 H         1 RES1    0.0000
     20 C8         1.7893    2.7417    7.0016 C.3       1 RES1    0.0000
     21 H8         1.2559    2.9478    7.7719 H         1 RES1    0.0000
     22 H9         1.2761    2.8998    6.2050 H         1 RES1    0.0000
     23 H10        2.5714    3.2977    6.9941 H         1 RES1    0.0000
     24 C9         0.2174    0.5240    8.2637 C.ar      1 RES1    0.0000
     25 C10       -0.4673   -0.2061    7.3017 C.ar      1 RES1    0.0000
     26 H11        0.0202   -0.6567    6.6500 H         1 RES1    0.0000
     27 C11       -1.8123   -0.2860    7.2783 C.ar      1 RES1    0.0000
     28 H12       -2.2375   -0.7909    6.6220 H         1 RES1    0.0000
     29 C12       -2.5483    0.3723    8.2179 C.ar      1 RES1    0.0000
     30 H13       -3.4768    0.3243    8.1955 H         1 RES1    0.0000
     31 C13       -1.9386    1.0896    9.1762 C.ar      1 RES1    0.0000
     32 H14       -2.4473    1.5306    9.8175 H         1 RES1    0.0000
     33 C14       -0.5404    1.1791    9.2145 C.ar      1 RES1    0.0000
     34 H15       -0.1235    1.6776    9.8802 H         1 RES1    0.0000
     35 O3         2.5187    4.6924    1.1780 O.2       2 RES2    0.0000
     36 O4         3.7685    4.0006    2.7814 O.2       2 RES2    0.0000
     37 N4         5.6962    5.4530   -1.2088 N.ar      2 RES2    0.0000
     38 N5         7.9750    5.3603   -1.6015 N.3       2 RES2    0.0000
     39 N6         3.6235    4.4688    1.6613 N.pl3     2 RES2    0.0000
     40 C15        6.9370    5.1845   -0.7451 C.ar      2 RES2    0.0000
     41 C16        7.1486    4.7436    0.5853 C.ar      2 RES2    0.0000
     42 H16        8.0105    4.6126    0.9087 H         2 RES2    0.0000
     43 C17        6.0670    4.5167    1.3837 C.ar      2 RES2    0.0000
     44 H17        6.1792    4.2131    2.2559 H         2 RES2    0.0000
     45 C18        4.8016    4.7420    0.8751 C.ar      2 RES2    0.0000
     46 C19        4.6628    5.2325   -0.4011 C.ar      2 RES2    0.0000
     47 H18        3.8071    5.4178   -0.7152 H         2 RES2    0.0000
     48 C20        7.7619    5.7421   -3.0132 C.3       2 RES2    0.0000
     49 H19        6.7986    5.6862   -3.1871 H         2 RES2    0.0000
     50 C21        8.1732    7.1849   -3.2339 C.3       2 RES2    0.0000
     51 H20        7.6975    7.7504   -2.6224 H         2 RES2    0.0000
     52 H21        7.9657    7.4421   -4.1361 H         2 RES2    0.0000
     53 H22        9.1170    7.2743   -3.0852 H         2 RES2    0.0000
     54 C22        9.3422    5.2341   -1.1275 C.3       2 RES2    0.0000
     55 H23        9.9489    5.3874   -1.8558 H         2 RES2    0.0000
     56 H24        9.4792    4.3505   -0.7788 H         2 RES2    0.0000
     57 H25        9.5021    5.8795   -0.4366 H         2 RES2    0.0000
     58 C23        8.4420    4.7308   -3.9201 C.ar      2 RES2    0.0000
     59 C24        9.4938    5.0455   -4.7475 C.ar      2 RES2    0.0000
     60 H26        9.8177    5.9163   -4.7615 H         2 RES2    0.0000
     61 C25       10.0849    4.0821   -5.5674 C.ar      2 RES2    0.0000
     62 H27       10.7972    4.3122   -6.1199 H         2 RES2    0.0000
     63 C26        9.6139    2.8088   -5.5553 C.ar      2 RES2    0.0000
     64 H28       10.0058    2.1649   -6.1012 H         2 RES2    0.0000
     65 C27        8.5737    2.4668   -4.7503 C.ar      2 RES2    0.0000
     66 H29        8.2535    1.5945   -4.7531 H         2 RES2    0.0000
     67 C28        7.9924    3.4111   -3.9294 C.ar      2 RES2    0.0000
     68 H30        7.2887    3.1634   -3.3741 H         2 RES2    0.0000
@<TRIPOS>BOND
     1    1    5 2
     2    2    5 2
     3    3    6 ar
     4    4    6 1
     5    5   11 1
     6    6    7 ar
     7    7    8 1
     8    9    7 ar
     9   10    9 1
    10   11    9 ar
    11   12    3 ar
    12   13   12 1
    13   14    4 1
    14   15   14 1
    15   16   14 1
    16   17   16 1
    17   18   16 1
    18   19   16 1
    19   20    4 1
    20   21   20 1
    21   22   20 1
    22   23   20 1
    23   24   14 1
    24   25   24 ar
    25   26   25 1
    26   27   25 ar
    27   28   27 1
    28   29   27 ar
    29   30   29 1
    30   31   29 ar
    31   32   31 1
    32   33   24 ar
    33   34   33 1
    34   35   39 2
    35   36   39 2
    36   37   40 ar
    37   38   40 1
    38   39   45 1
    39   40   41 ar
    40   41   42 1
    41   43   41 ar
    42   44   43 1
    43   45   43 ar
    44   46   37 ar
    45   47   46 1
    46   48   38 1
    47   49   48 1
    48   50   48 1
    49   51   50 1
    50   52   50 1
    51   53   50 1
    52   54   38 1
    53   55   54 1
    54   56   54 1
    55   57   54 1
    56   58   48 1
    57   59   58 ar
    58   60   59 1
    59   61   59 ar
    60   62   61 1
    61   63   61 ar
    62   64   63 1
    63   65   63 ar
    64   66   65 1
    65   67   58 ar
    66   68   67 1
    67   11   12 ar
    68   31   33 ar
    69   45   46 ar
    70   65   67 ar
@<TRIPOS>SUBSTRUCTURE
     1 RES1 1
     2 RES2 35

@<TRIPOS>CRYSIN
   8.9790   15.9770    9.4100  90.0000  96.5200  90.0000   4 1

