# MOL2 file generated by ConQuest
# Please check atom types

@<TRIPOS>MOLECULE
RAJHEP
   102   105     3
SMALL
NO_CHARGES
****
Generated from CSD

@<TRIPOS>ATOM
      1 O1         9.5289    9.3398    7.3122 O.2       1 RES1    0.0000
      2 O2         7.9857    7.8903    7.7699 O.2       1 RES1    0.0000
      3 N1         6.1011   10.5005   10.2387 N.ar      1 RES1    0.0000
      4 N2         6.0923   12.4517   11.4285 N.3       1 RES1    0.0000
      5 H1         5.2267   12.3072   11.4962 H         1 RES1    0.0000
      6 N3         8.5262    8.9943    7.9302 N.pl3     1 RES1    0.0000
      7 C1         6.7885   11.6087   10.6452 C.ar      1 RES1    0.0000
      8 C2         8.1097   11.8537   10.2205 C.ar      1 RES1    0.0000
      9 H2         8.5930   12.5971   10.5593 H         1 RES1    0.0000
     10 C3         8.6830   11.0139    9.3183 C.ar      1 RES1    0.0000
     11 H3         9.5592   11.1776    8.9894 H         1 RES1    0.0000
     12 C4         7.9563    9.9100    8.8886 C.ar      1 RES1    0.0000
     13 C5         6.6888    9.6832    9.3794 C.ar      1 RES1    0.0000
     14 H4         6.2194    8.9098    9.0902 H         1 RES1    0.0000
     15 C6         6.6326   13.5802   12.1754 C.3       1 RES1    0.0000
     16 H5         7.3904   13.9696   11.6516 H         1 RES1    0.0000
     17 C7         5.5532   14.6360   12.3109 C.3       1 RES1    0.0000
     18 H6         5.9051   15.4009   12.8132 H         1 RES1    0.0000
     19 H7         4.7844   14.2584   12.7868 H         1 RES1    0.0000
     20 H8         5.2712   14.9334   11.4202 H         1 RES1    0.0000
     21 C8         8.3915   12.3960   17.6434 C.3       1 RES1    0.0000
     22 H9         9.3102   12.7084   17.7822 H         1 RES1    0.0000
     23 H10        8.3428   11.4343   17.8252 H         1 RES1    0.0000
     24 H11        7.7887   12.8753   18.2499 H         1 RES1    0.0000
     25 C9         7.1519   13.1866   13.5453 C.ar      1 RES1    0.0000
     26 C10        6.6395   12.1190   14.2625 C.ar      1 RES1    0.0000
     27 H12        5.9982   11.5477   13.8543 H         1 RES1    0.0000
     28 C11        7.0469   11.8665   15.5663 C.ar      1 RES1    0.0000
     29 H13        6.6734   11.1263   16.0306 H         1 RES1    0.0000
     30 C12        7.9784   12.6613   16.2074 C.ar      1 RES1    0.0000
     31 C13        8.5090   13.7000   15.4754 C.ar      1 RES1    0.0000
     32 H14        9.1757   14.2477   15.8720 H         1 RES1    0.0000
     33 C14        8.1085   13.9707   14.1914 C.ar      1 RES1    0.0000
     34 H15        8.4901   14.7088   13.7320 H         1 RES1    0.0000
     35 O3        -0.9839   13.9867   12.0449 O.2       2 RES2    0.0000
     36 O4         0.6379   15.1174   11.1757 O.2       2 RES2    0.0000
     37 N4         3.1390   11.9628   11.2566 N.ar      2 RES2    0.0000
     38 N5         3.5920    9.7880   11.7408 N.3       2 RES2    0.0000
     39 H16        4.3744    9.9528   11.3723 H         2 RES2    0.0000
     40 N6         0.1615   14.0659   11.6152 N.pl3     2 RES2    0.0000
     41 C15        2.6873   10.7904   11.7540 C.ar      2 RES2    0.0000
     42 C16        1.3763   10.6385   12.2349 C.ar      2 RES2    0.0000
     43 H17        1.0859    9.8105   12.5984 H         2 RES2    0.0000
     44 C17        0.5324   11.6975   12.1704 C.ar      2 RES2    0.0000
     45 H18       -0.3637   11.6248   12.4811 H         2 RES2    0.0000
     46 C18        1.0071   12.8956   11.6416 C.ar      2 RES2    0.0000
     47 C19        2.2951   12.9833   11.2021 C.ar      2 RES2    0.0000
     48 H19        2.5996   13.8081   10.8419 H         2 RES2    0.0000
     49 C20        3.3765    8.4584   12.2845 C.3       2 RES2    0.0000
     50 H20        2.5254    8.0904   11.9110 H         2 RES2    0.0000
     51 C21        4.5425    7.5929   11.8036 C.3       2 RES2    0.0000
     52 H21        4.4538    6.6901   12.1737 H         2 RES2    0.0000
     53 H22        5.3887    7.9866   12.1027 H         2 RES2    0.0000
     54 H23        4.5324    7.5469   10.8253 H         2 RES2    0.0000
     55 C22        3.0123    8.3268   18.1243 C.3       2 RES2    0.0000
     56 H24        2.2039    8.8017   18.4102 H         2 RES2    0.0000
     57 H25        3.7989    8.7515   18.5258 H         2 RES2    0.0000
     58 H26        2.9611    7.3918   18.4135 H         2 RES2    0.0000
     59 C23        3.2868    8.4594   13.7998 C.ar      2 RES2    0.0000
     60 C24        3.6346    9.5538   14.5649 C.ar      2 RES2    0.0000
     61 H27        3.9258   10.3518   14.1418 H         2 RES2    0.0000
     62 C25        3.5581    9.4928   15.9546 C.ar      2 RES2    0.0000
     63 H28        3.8173   10.2523   16.4636 H         2 RES2    0.0000
     64 C26        3.1241    8.3824   16.6024 C.ar      2 RES2    0.0000
     65 C27        2.7842    7.2838   15.8323 C.ar      2 RES2    0.0000
     66 H29        2.4881    6.4901   16.2620 H         2 RES2    0.0000
     67 C28        2.8668    7.3170   14.4508 C.ar      2 RES2    0.0000
     68 H30        2.6305    6.5478   13.9468 H         2 RES2    0.0000
     69 O5         3.7438   15.1966    9.0274 O.2       3 RES3    0.0000
     70 O6         5.1401   16.8172    8.6903 O.2       3 RES3    0.0000
     71 N7         7.7950   14.4189    6.8131 N.ar      3 RES3    0.0000
     72 N8         8.4207   12.3276    6.0943 N.3       3 RES3    0.0000
     73 H31        8.2945   11.4568    6.1075 H         3 RES3    0.0000
     74 N9         4.8154   15.6298    8.5961 N.pl3     3 RES3    0.0000
     75 C29        7.4986   13.1031    6.6942 C.ar      3 RES3    0.0000
     76 C30        6.2962   12.5565    7.1949 C.ar      3 RES3    0.0000
     77 H32        6.1111   11.6301    7.0941 H         3 RES3    0.0000
     78 C31        5.4051   13.3663    7.8244 C.ar      3 RES3    0.0000
     79 H33        4.5875   13.0218    8.1615 H         3 RES3    0.0000
     80 C32        5.7221   14.7099    7.9583 C.ar      3 RES3    0.0000
     81 C33        6.9069   15.1891    7.4444 C.ar      3 RES3    0.0000
     82 H34        7.1012   16.1144    7.5452 H         3 RES3    0.0000
     83 C34        9.6084   12.8239    5.4251 C.3       3 RES3    0.0000
     84 H35        9.9590   13.5941    5.9588 H         3 RES3    0.0000
     85 C35       10.6836   11.7446    5.4102 C.3       3 RES3    0.0000
     86 H36       11.4625   12.0666    4.9095 H         3 RES3    0.0000
     87 H37       10.3310   10.9369    4.9822 H         3 RES3    0.0000
     88 H38       10.9498   11.5370    6.3306 H         3 RES3    0.0000
     89 C36        8.4785   14.7387    0.0281 C.3       3 RES3    0.0000
     90 H39        9.1063   14.3258   -0.6032 H         3 RES3    0.0000
     91 H40        8.5749   15.7133   -0.0099 H         3 RES3    0.0000
     92 H41        7.5627   14.4916   -0.2148 H         3 RES3    0.0000
     93 C37        9.3051   13.3331    4.0238 C.ar      3 RES3    0.0000
     94 C38        9.7485   14.5644    3.6040 C.ar      3 RES3    0.0000
     95 H42       10.2433   15.1131    4.2022 H         3 RES3    0.0000
     96 C39        9.4820   15.0190    2.3135 C.ar      3 RES3    0.0000
     97 H43        9.7958   15.8759    2.0491 H         3 RES3    0.0000
     98 C40        8.7776   14.2574    1.4228 C.ar      3 RES3    0.0000
     99 C41        8.3425   13.0165    1.8409 C.ar      3 RES3    0.0000
    100 H44        7.8667   12.4602    1.2344 H         3 RES3    0.0000
    101 C42        8.5874   12.5650    3.1314 C.ar      3 RES3    0.0000
    102 H45        8.2572   11.7178    3.4024 H         3 RES3    0.0000
@<TRIPOS>BOND
     1    1    6 2
     2    2    6 2
     3    3    7 ar
     4    4    5 1
     5    6   12 1
     6    7    4 1
     7    8    7 ar
     8    9    8 1
     9   10    8 ar
    10   11   10 1
    11   12   10 ar
    12   13    3 ar
    13   14   13 1
    14   15    4 1
    15   16   15 1
    16   17   15 1
    17   18   17 1
    18   19   17 1
    19   20   17 1
    20   21   22 1
    21   23   21 1
    22   24   21 1
    23   25   15 1
    24   26   25 ar
    25   27   26 1
    26   28   26 ar
    27   29   28 1
    28   30   21 1
    29   31   30 ar
    30   32   31 1
    31   33   25 ar
    32   34   33 1
    33   35   40 2
    34   36   40 2
    35   37   41 ar
    36   38   39 1
    37   40   46 1
    38   41   38 1
    39   42   41 ar
    40   43   42 1
    41   44   42 ar
    42   45   44 1
    43   46   44 ar
    44   47   37 ar
    45   48   47 1
    46   49   38 1
    47   50   49 1
    48   51   49 1
    49   52   51 1
    50   53   51 1
    51   54   51 1
    52   55   56 1
    53   57   55 1
    54   58   55 1
    55   59   49 1
    56   60   59 ar
    57   61   60 1
    58   62   60 ar
    59   63   62 1
    60   64   55 1
    61   65   64 ar
    62   66   65 1
    63   67   59 ar
    64   68   67 1
    65   69   74 2
    66   70   74 2
    67   71   75 ar
    68   72   73 1
    69   74   80 1
    70   75   72 1
    71   76   75 ar
    72   77   76 1
    73   78   76 ar
    74   79   78 1
    75   80   78 ar
    76   81   71 ar
    77   82   81 1
    78   83   72 1
    79   84   83 1
    80   85   83 1
    81   86   85 1
    82   87   85 1
    83   88   85 1
    84   89   90 1
    85   91   89 1
    86   92   89 1
    87   93   83 1
    88   94   93 ar
    89   95   94 1
    90   96   94 ar
    91   97   96 1
    92   98   89 1
    93   99   98 ar
    94  100   99 1
    95  101   93 ar
    96  102  101 1
    97   12   13 ar
    98   28   30 ar
    99   31   33 ar
   100   46   47 ar
   101   62   64 ar
   102   65   67 ar
   103   80   81 ar
   104   96   98 ar
   105   99  101 ar
@<TRIPOS>SUBSTRUCTURE
     1 RES1 1
     2 RES2 35
     3 RES3 69

@<TRIPOS>CRYSIN
  11.4150   10.6973   16.9350  90.0000 102.6380  90.0000   4 1

