# MOL2 file generated by ConQuest
# Please check atom types

@<TRIPOS>MOLECULE
RAJQAV
    34    37     1
SMALL
NO_CHARGES
****
Generated from CSD

@<TRIPOS>ATOM
      1 O1         4.0625    2.5601    2.2304 O.3       1 RES1    0.0000
      2 O2         0.5703    4.7506    1.3902 O.3       1 RES1    0.0000
      3 O3         3.0298    4.1926    4.0421 O.3       1 RES1    0.0000
      4 N1         4.3841    1.7627    1.1001 N.2       1 RES1    0.0000
      5 N2         2.5272    2.9711    0.6918 N.2       1 RES1    0.0000
      6 C1         4.2915   -0.1112   -2.7005 C.ar      1 RES1    0.0000
      7 H1         4.9422   -0.7290   -2.9466 H         1 RES1    0.0000
      8 C2         3.2749    0.2009   -3.5766 C.ar      1 RES1    0.0000
      9 H2         3.2467   -0.1925   -4.4186 H         1 RES1    0.0000
     10 C3         2.3011    1.0991   -3.1990 C.ar      1 RES1    0.0000
     11 H3         1.6060    1.2972   -3.7856 H         1 RES1    0.0000
     12 C4         2.3450    1.7084   -1.9584 C.ar      1 RES1    0.0000
     13 H4         1.6857    2.3169   -1.7110 H         1 RES1    0.0000
     14 C5         3.3776    1.4084   -1.0851 C.ar      1 RES1    0.0000
     15 C6         4.3466    0.4860   -1.4695 C.ar      1 RES1    0.0000
     16 H5         5.0383    0.2729   -0.8847 H         1 RES1    0.0000
     17 C7         3.4502    2.0430    0.2423 C.2       1 RES1    0.0000
     18 C8         2.9561    3.2309    1.8933 C.2       1 RES1    0.0000
     19 C9         2.3478    4.1263    2.8388 C.2       1 RES1    0.0000
     20 C10        2.5911    5.1085    4.9736 C.ar      1 RES1    0.0000
     21 C11        3.3842    5.2403    6.1014 C.ar      1 RES1    0.0000
     22 H6         4.1514    4.7235    6.1957 H         1 RES1    0.0000
     23 C12        3.0311    6.1403    7.0815 C.ar      1 RES1    0.0000
     24 H7         3.5664    6.2441    7.8355 H         1 RES1    0.0000
     25 C13        1.8717    6.8927    6.9399 C.ar      1 RES1    0.0000
     26 H8         1.6231    7.4946    7.6042 H         1 RES1    0.0000
     27 C14        1.0943    6.7441    5.8187 C.ar      1 RES1    0.0000
     28 H9         0.3215    7.2544    5.7356 H         1 RES1    0.0000
     29 C15        1.4298    5.8525    4.8035 C.ar      1 RES1    0.0000
     30 C16        0.5970    5.7282    3.5512 C.3       1 RES1    0.0000
     31 H10       -0.2842    5.3964    3.7830 H         1 RES1    0.0000
     32 H11        0.4894    6.6048    3.1500 H         1 RES1    0.0000
     33 C17        1.2209    4.8104    2.5650 C.2       1 RES1    0.0000
     34 H12        0.9404    4.1964    0.8339 H         1 RES1    0.0000
@<TRIPOS>BOND
     1    1    4 1
     2    2   33 1
     3    3   19 1
     4    4   17 2
     5    5   17 1
     6    6    7 1
     7    8    6 ar
     8    9    8 1
     9   10    8 ar
    10   11   10 1
    11   12   10 ar
    12   13   12 1
    13   14   12 ar
    14   15    6 ar
    15   16   15 1
    16   17   14 1
    17   18    1 1
    18   19   18 1
    19   20    3 1
    20   21   20 ar
    21   22   21 1
    22   23   21 ar
    23   24   23 1
    24   25   23 ar
    25   26   25 1
    26   27   25 ar
    27   28   27 1
    28   29   20 ar
    29   30   29 1
    30   31   30 1
    31   32   30 1
    32   33   19 2
    33   34    2 1
    34    5   18 2
    35   14   15 ar
    36   27   29 ar
    37   30   33 1
@<TRIPOS>SUBSTRUCTURE
     1 RES1 1

@<TRIPOS>CRYSIN
   5.6750    9.3460   25.4400  90.0000  92.0600  90.0000 231 1

