# MOL2 file generated by ConQuest
# Please check atom types

@<TRIPOS>MOLECULE
RAKBIQ
   184   192     4
SMALL
NO_CHARGES
****
Generated from CSD

@<TRIPOS>ATOM
      1 O1         6.1581    8.9261    7.7549 O.3       1 RES1    0.0000
      2 O2         6.8953   10.4171    9.1912 O.2       1 RES1    0.0000
      3 O3         2.3872    9.2154    9.0064 O.2       1 RES1    0.0000
      4 O4         3.8694    8.3136    7.6683 O.3       1 RES1    0.0000
      5 O5         4.7217    9.3227   12.7444 O.2       1 RES1    0.0000
      6 O6         2.5876    8.9673   12.8718 O.2       1 RES1    0.0000
      7 O7         2.6679    6.9870   16.3421 O.3       2 RES2    0.0000
      8 O8         1.7315    6.1648   14.5286 O.2       2 RES2    0.0000
      9 O9         6.2789    5.6030   15.4870 O.2       2 RES2    0.0000
     10 O10        4.9738    6.8319   16.7537 O.3       2 RES2    0.0000
     11 O11        5.2837    6.5669   11.6930 O.2       2 RES2    0.0000
     12 O12        3.3055    6.8255   10.8646 O.2       2 RES2    0.0000
     13 O13        8.6196    2.6596   10.2426 O.3       3 RES3    0.0000
     14 O14        7.5267    3.6937   11.8484 O.2       3 RES3    0.0000
     15 O15       12.1429    4.1893   11.2966 O.2       3 RES3    0.0000
     16 O16       10.9258    2.9781    9.9330 O.3       3 RES3    0.0000
     17 O17       10.2142    3.3327   15.3378 O.2       3 RES3    0.0000
     18 O18        8.1366    2.9627   14.9479 O.2       3 RES3    0.0000
     19 O19        7.6038    0.9648   18.7151 O.3       4 RES4    0.0000
     20 O20        6.7881   -0.3178   17.1386 O.2       4 RES4    0.0000
     21 O21       11.3784    0.4642   17.5910 O.2       4 RES4    0.0000
     22 O22        9.9116    1.4269   18.9203 O.3       4 RES4    0.0000
     23 O23        7.7749    0.4335   13.2134 O.2       4 RES4    0.0000
     24 O24        9.8128    0.6856   13.8391 O.2       4 RES4    0.0000
     25 N1         3.5703    9.5513   12.4143 N.pl3     1 RES1    0.0000
     26 N2         4.1017    6.2296   11.5757 N.pl3     2 RES2    0.0000
     27 N3         9.1513    3.6419   14.8459 N.pl3     3 RES3    0.0000
     28 N4         8.7137    0.1152   13.8939 N.pl3     4 RES4    0.0000
     29 C1         5.2204    7.8628    7.4363 C.3       1 RES1    0.0000
     30 C2         5.5183    6.6306    8.2609 C.3       1 RES1    0.0000
     31 C3         6.9002    6.0342    7.8888 C.3       1 RES1    0.0000
     32 C4         7.0014    5.7684    6.3900 C.3       1 RES1    0.0000
     33 C5         6.7251    7.0378    5.5999 C.3       1 RES1    0.0000
     34 C6         5.3572    7.6207    5.9491 C.3       1 RES1    0.0000
     35 C7         5.9893    9.6723    8.8663 C.2       1 RES1    0.0000
     36 C8         4.7034    9.5242    9.6258 C.3       1 RES1    0.0000
     37 C9         3.5393    9.0399    8.7579 C.2       1 RES1    0.0000
     38 C10        4.4160   10.8260   10.4440 C.3       1 RES1    0.0000
     39 C11        3.2944   10.6975   11.4661 C.3       1 RES1    0.0000
     40 C12        3.1549   11.9471   12.3213 C.3       1 RES1    0.0000
     41 C13        4.2235   12.0551    9.5544 C.ar      1 RES1    0.0000
     42 C14        3.1331   12.2412    8.7426 C.ar      1 RES1    0.0000
     43 C15        3.0080   13.3945    7.9563 C.ar      1 RES1    0.0000
     44 C16        3.9999   14.3563    7.9741 C.ar      1 RES1    0.0000
     45 C17        5.0691   14.1912    8.7885 C.ar      1 RES1    0.0000
     46 C18        5.2094   13.0572    9.5940 C.ar      1 RES1    0.0000
     47 C19        3.8273    7.6804   16.8570 C.3       2 RES2    0.0000
     48 C20        3.5968    7.9286   18.3391 C.3       2 RES2    0.0000
     49 C21        2.4797    8.9147   18.5762 C.3       2 RES2    0.0000
     50 C22        2.6885   10.2121   17.8332 C.3       2 RES2    0.0000
     51 C23        2.8658    9.9416   16.3345 C.3       2 RES2    0.0000
     52 C24        4.0264    8.9834   16.1012 C.3       2 RES2    0.0000
     53 C25        2.7475    6.4254   15.1097 C.2       2 RES2    0.0000
     54 C26        4.1126    6.1607   14.5502 C.3       2 RES2    0.0000
     55 C27        5.2234    6.1599   15.6042 C.2       2 RES2    0.0000
     56 C28        4.2420    4.8726   13.6709 C.3       2 RES2    0.0000
     57 C29        3.5903    5.0040   12.3047 C.3       2 RES2    0.0000
     58 C30        3.9355    3.8333   11.3922 C.3       2 RES2    0.0000
     59 C31        3.7274    3.6272   14.4024 C.ar      2 RES2    0.0000
     60 C32        2.3947    3.2512   14.3986 C.ar      2 RES2    0.0000
     61 C33        1.9590    2.1416   15.1148 C.ar      2 RES2    0.0000
     62 C34        2.8558    1.3870   15.8221 C.ar      2 RES2    0.0000
     63 C35        4.2045    1.7156   15.8132 C.ar      2 RES2    0.0000
     64 C36        4.6505    2.8304   15.0957 C.ar      2 RES2    0.0000
     65 C37        9.8413    2.0413    9.7838 C.3       3 RES3    0.0000
     66 C38       10.1243    0.7603   10.5281 C.3       3 RES3    0.0000
     67 C39       11.3650    0.0821    9.9368 C.3       3 RES3    0.0000
     68 C40       11.2009   -0.1827    8.4635 C.3       3 RES3    0.0000
     69 C41       10.8994    1.1171    7.7205 C.3       3 RES3    0.0000
     70 C42        9.6803    1.8318    8.2953 C.3       3 RES3    0.0000
     71 C43        8.6013    3.3551   11.4139 C.2       3 RES3    0.0000
     72 C44        9.9145    3.6557   12.0472 C.3       3 RES3    0.0000
     73 C45       11.0742    3.6430   11.1016 C.2       3 RES3    0.0000
     74 C46        9.9985    4.9372   12.9190 C.3       3 RES3    0.0000
     75 C47        9.0477    4.9611   14.1169 C.3       3 RES3    0.0000
     76 C48        9.4446    6.0595   15.1237 C.3       3 RES3    0.0000
     77 C49        9.7949    6.2255   12.1008 C.ar      3 RES3    0.0000
     78 C50       10.9081    7.0297   11.8370 C.ar      3 RES3    0.0000
     79 C51       10.7634    8.1858   11.0685 C.ar      3 RES3    0.0000
     80 C52        9.5356    8.5385   10.5753 C.ar      3 RES3    0.0000
     81 C53        8.4291    7.7739   10.8735 C.ar      3 RES3    0.0000
     82 C54        8.5624    6.6105   11.6229 C.ar      3 RES3    0.0000
     83 C55        8.5842    1.9551   19.1153 C.3       4 RES4    0.0000
     84 C56        8.3828    2.1707   20.5936 C.3       4 RES4    0.0000
     85 C57        7.0263    2.8117   20.8918 C.3       4 RES4    0.0000
     86 C58        6.8584    4.1212   20.1093 C.3       4 RES4    0.0000
     87 C59        7.0393    3.8758   18.6157 C.3       4 RES4    0.0000
     88 C60        8.3957    3.2405   18.3238 C.3       4 RES4    0.0000
     89 C61        7.7401    0.2889   17.5668 C.2       4 RES4    0.0000
     90 C62        9.0713    0.3519   16.8799 C.3       4 RES4    0.0000
     91 C63       10.2095    0.7402   17.8013 C.2       4 RES4    0.0000
     92 C64        9.4609   -0.9152   16.0375 C.3       4 RES4    0.0000
     93 C65        8.5510   -1.0958   14.8077 C.3       4 RES4    0.0000
     94 C66        8.9391   -2.2933   13.9411 C.3       4 RES4    0.0000
     95 C67        9.5772   -2.2032   16.8493 C.ar      4 RES4    0.0000
     96 C68        8.4531   -2.8994   17.2750 C.ar      4 RES4    0.0000
     97 C69        8.5635   -4.0848   18.0256 C.ar      4 RES4    0.0000
     98 C70        9.7728   -4.5677   18.3404 C.ar      4 RES4    0.0000
     99 C71       10.8857   -3.9124   17.9249 C.ar      4 RES4    0.0000
    100 C72       10.7640   -2.7249   17.1705 C.ar      4 RES4    0.0000
    101 H1         4.8134    5.9519    8.1067 H         1 RES1    0.0000
    102 H2         5.5095    6.8675    9.2218 H         1 RES1    0.0000
    103 H3         7.6131    6.6637    8.1602 H         1 RES1    0.0000
    104 H4         7.0359    5.1869    8.3820 H         1 RES1    0.0000
    105 H5         7.9071    5.4348    6.1746 H         1 RES1    0.0000
    106 H6         6.3471    5.0715    6.1339 H         1 RES1    0.0000
    107 H7         6.7594    6.8351    4.6313 H         1 RES1    0.0000
    108 H8         7.4275    7.7071    5.7974 H         1 RES1    0.0000
    109 H9         5.2328    8.4753    5.4648 H         1 RES1    0.0000
    110 H10        4.6502    6.9950    5.6521 H         1 RES1    0.0000
    111 H11        4.8627    8.8029   10.3000 H         1 RES1    0.0000
    112 H12        5.2458   11.0023   10.9729 H         1 RES1    0.0000
    113 H13        2.4325   10.5292   10.9882 H         1 RES1    0.0000
    114 H14        3.9847   12.0957   12.8208 H         1 RES1    0.0000
    115 H15        2.4117   11.8313   12.9495 H         1 RES1    0.0000
    116 H16        2.9783   12.7199   11.7452 H         1 RES1    0.0000
    117 H17        2.4527   11.5786    8.7133 H         1 RES1    0.0000
    118 H18        2.2408   13.5155    7.4096 H         1 RES1    0.0000
    119 H19        3.9325   15.1259    7.4210 H         1 RES1    0.0000
    120 H20        5.7400   14.8631    8.8140 H         1 RES1    0.0000
    121 H21        5.9640   12.9630   10.1636 H         1 RES1    0.0000
    122 H22        3.3752    7.0708   18.7826 H         2 RES2    0.0000
    123 H23        4.4304    8.2741   18.7457 H         2 RES2    0.0000
    124 H24        2.4152    9.1050   19.5460 H         2 RES2    0.0000
    125 H25        1.6237    8.5113   18.2882 H         2 RES2    0.0000
    126 H26        3.4921   10.6707   18.1849 H         2 RES2    0.0000
    127 H27        1.9085   10.8043   17.9734 H         2 RES2    0.0000
    128 H28        2.0330    9.5504   15.9674 H         2 RES2    0.0000
    129 H29        3.0397   10.7946   15.8616 H         2 RES2    0.0000
    130 H30        4.1053    8.7927   15.1327 H         2 RES2    0.0000
    131 H31        4.8687    9.4095   16.3994 H         2 RES2    0.0000
    132 H32        4.3138    6.9284   13.9411 H         2 RES2    0.0000
    133 H33        5.2179    4.7293   13.5116 H         2 RES2    0.0000
    134 H34        2.5982    5.0656   12.4105 H         2 RES2    0.0000
    135 H35        4.9064    3.7938   11.2647 H         2 RES2    0.0000
    136 H36        3.4973    3.9552   10.5243 H         2 RES2    0.0000
    137 H37        3.6259    2.9986   11.8000 H         2 RES2    0.0000
    138 H38        1.7685    3.7598   13.8965 H         2 RES2    0.0000
    139 H39        1.0382    1.9078   15.1135 H         2 RES2    0.0000
    140 H40        2.5546    0.6357   16.3204 H         2 RES2    0.0000
    141 H41        4.8248    1.1829   16.2962 H         2 RES2    0.0000
    142 H42        5.5747    3.0481   15.0791 H         2 RES2    0.0000
    143 H43        9.3462    0.1525   10.4568 H         3 RES3    0.0000
    144 H44       10.2760    0.9559   11.4865 H         3 RES3    0.0000
    145 H45       12.1538    0.6628   10.0795 H         3 RES3    0.0000
    146 H46       11.5269   -0.7739   10.4070 H         3 RES3    0.0000
    147 H47       10.4604   -0.8250    8.3221 H         3 RES3    0.0000
    148 H48       12.0303   -0.5854    8.1041 H         3 RES3    0.0000
    149 H49       11.6856    1.7161    7.7792 H         3 RES3    0.0000
    150 H50       10.7393    0.9173    6.7647 H         3 RES3    0.0000
    151 H51        9.5684    2.7086    7.8480 H         3 RES3    0.0000
    152 H52        8.8687    1.2922    8.1220 H         3 RES3    0.0000
    153 H53       10.0811    2.8983   12.6781 H         3 RES3    0.0000
    154 H54       10.9277    4.9752   13.2873 H         3 RES3    0.0000
    155 H55        8.1096    5.1059   13.8060 H         3 RES3    0.0000
    156 H56       10.3622    5.9075   15.4296 H         3 RES3    0.0000
    157 H57        8.8359    6.0343   15.8909 H         3 RES3    0.0000
    158 H58        9.3862    6.9367   14.6892 H         3 RES3    0.0000
    159 H59       11.7609    6.7912   12.1823 H         3 RES3    0.0000
    160 H60       11.5209    8.7289   10.8850 H         3 RES3    0.0000
    161 H61        9.4473    9.3110   10.0298 H         3 RES3    0.0000
    162 H62        7.5730    8.0420   10.5638 H         3 RES3    0.0000
    163 H63        7.7971    6.0790   11.8077 H         3 RES3    0.0000
    164 H64        9.1030    2.7542   20.9403 H         4 RES4    0.0000
    165 H65        8.4435    1.3009   21.0613 H         4 RES4    0.0000
    166 H66        6.9538    2.9945   21.8630 H         4 RES4    0.0000
    167 H67        6.3023    2.1825   20.6433 H         4 RES4    0.0000
    168 H68        5.9570    4.4940   20.2776 H         4 RES4    0.0000
    169 H69        7.5271    4.7819   20.4203 H         4 RES4    0.0000
    170 H70        6.9675    4.7347   18.1289 H         4 RES4    0.0000
    171 H71        6.3200    3.2790   18.2894 H         4 RES4    0.0000
    172 H72        8.4655    3.0423   17.3565 H         4 RES4    0.0000
    173 H73        9.1148    3.8779   18.5583 H         4 RES4    0.0000
    174 H74        8.9963    1.0997   16.2198 H         4 RES4    0.0000
    175 H75       10.3766   -0.7343   15.6768 H         4 RES4    0.0000
    176 H76        7.5975   -1.1791   15.0982 H         4 RES4    0.0000
    177 H77        8.9030   -3.1111   14.4801 H         4 RES4    0.0000
    178 H78        9.8485   -2.1672   13.5982 H         4 RES4    0.0000
    179 H79        8.3137   -2.3683   13.1904 H         4 RES4    0.0000
    180 H80        7.5915   -2.5689   17.0532 H         4 RES4    0.0000
    181 H81        7.7803   -4.5422   18.3098 H         4 RES4    0.0000
    182 H82        9.8500   -5.3642   18.8515 H         4 RES4    0.0000
    183 H83       11.7446   -4.2516   18.1429 H         4 RES4    0.0000
    184 H84       11.5538   -2.2821   16.8825 H         4 RES4    0.0000
@<TRIPOS>BOND
     1    1   29 1
     2    2   35 2
     3    3   37 2
     4    4   29 1
     5    5   25 2
     6    6   25 2
     7    7   47 1
     8    8   53 2
     9    9   55 2
    10   10   47 1
    11   11   26 2
    12   12   26 2
    13   13   65 1
    14   14   71 2
    15   15   73 2
    16   16   65 1
    17   17   27 2
    18   18   27 2
    19   19   83 1
    20   20   89 2
    21   21   91 2
    22   22   83 1
    23   23   28 2
    24   24   28 2
    25   25   39 1
    26   26   57 1
    27   27   75 1
    28   28   93 1
    29   29   30 1
    30   30   31 1
    31   31   32 1
    32   32   33 1
    33   33   34 1
    34   34   29 1
    35   35    1 1
    36   36   35 1
    37   37    4 1
    38   38   36 1
    39   39   38 1
    40   40   39 1
    41   41   38 1
    42   42   41 ar
    43   43   42 ar
    44   44   43 ar
    45   45   44 ar
    46   46   41 ar
    47   47   48 1
    48   48   49 1
    49   49   50 1
    50   50   51 1
    51   51   52 1
    52   52   47 1
    53   53    7 1
    54   54   53 1
    55   55   10 1
    56   56   54 1
    57   57   56 1
    58   58   57 1
    59   59   56 1
    60   60   59 ar
    61   61   60 ar
    62   62   61 ar
    63   63   62 ar
    64   64   59 ar
    65   65   66 1
    66   66   67 1
    67   67   68 1
    68   68   69 1
    69   69   70 1
    70   70   65 1
    71   71   13 1
    72   72   71 1
    73   73   16 1
    74   74   72 1
    75   75   74 1
    76   76   75 1
    77   77   74 1
    78   78   77 ar
    79   79   78 ar
    80   80   79 ar
    81   81   80 ar
    82   82   77 ar
    83   83   84 1
    84   84   85 1
    85   85   86 1
    86   86   87 1
    87   87   88 1
    88   88   83 1
    89   89   19 1
    90   90   89 1
    91   91   22 1
    92   92   90 1
    93   93   92 1
    94   94   93 1
    95   95   92 1
    96   96   95 ar
    97   97   96 ar
    98   98   97 ar
    99   99   98 ar
   100  100   95 ar
   101  101   30 1
   102  102   30 1
   103  103   31 1
   104  104   31 1
   105  105   32 1
   106  106   32 1
   107  107   33 1
   108  108   33 1
   109  109   34 1
   110  110   34 1
   111  111   36 1
   112  112   38 1
   113  113   39 1
   114  114   40 1
   115  115   40 1
   116  116   40 1
   117  117   42 1
   118  118   43 1
   119  119   44 1
   120  120   45 1
   121  121   46 1
   122  122   48 1
   123  123   48 1
   124  124   49 1
   125  125   49 1
   126  126   50 1
   127  127   50 1
   128  128   51 1
   129  129   51 1
   130  130   52 1
   131  131   52 1
   132  132   54 1
   133  133   56 1
   134  134   57 1
   135  135   58 1
   136  136   58 1
   137  137   58 1
   138  138   60 1
   139  139   61 1
   140  140   62 1
   141  141   63 1
   142  142   64 1
   143  143   66 1
   144  144   66 1
   145  145   67 1
   146  146   67 1
   147  147   68 1
   148  148   68 1
   149  149   69 1
   150  150   69 1
   151  151   70 1
   152  152   70 1
   153  153   72 1
   154  154   74 1
   155  155   75 1
   156  156   76 1
   157  157   76 1
   158  158   76 1
   159  159   78 1
   160  160   79 1
   161  161   80 1
   162  162   81 1
   163  163   82 1
   164  164   84 1
   165  165   84 1
   166  166   85 1
   167  167   85 1
   168  168   86 1
   169  169   86 1
   170  170   87 1
   171  171   87 1
   172  172   88 1
   173  173   88 1
   174  174   90 1
   175  175   92 1
   176  176   93 1
   177  177   94 1
   178  178   94 1
   179  179   94 1
   180  180   96 1
   181  181   97 1
   182  182   98 1
   183  183   99 1
   184  184  100 1
   185   36   37 1
   186   45   46 ar
   187   54   55 1
   188   63   64 ar
   189   72   73 1
   190   81   82 ar
   191   90   91 1
   192   99  100 ar
@<TRIPOS>SUBSTRUCTURE
     1 RES1 1
     2 RES2 7
     3 RES3 13
     4 RES4 19

@<TRIPOS>CRYSIN
  11.3125   12.0218   13.7304 102.1790 107.1080  93.2270   1 1

