# MOL2 file generated by ConQuest
# Please check atom types

@<TRIPOS>MOLECULE
RAKMUM
    33    34     1
SMALL
NO_CHARGES
****
Generated from CSD

@<TRIPOS>ATOM
      1 O1         5.1751    2.2890    5.7633 O.2       1 RES1    0.0000
      2 O2         6.2868    2.2358    7.5894 O.2       1 RES1    0.0000
      3 N1         1.3061    0.9397   11.7383 N.3       1 RES1    0.0000
      4 N2         0.2268    1.2662    9.3402 N.3       1 RES1    0.0000
      5 N3         5.2189    2.1355    6.9876 N.pl3     1 RES1    0.0000
      6 C1         2.5730    0.9453   11.0509 C.ar      1 RES1    0.0000
      7 C2         3.7200    0.6018   11.7252 C.ar      1 RES1    0.0000
      8 C3         4.9589    0.6884   11.1032 C.ar      1 RES1    0.0000
      9 C4         5.0739    1.1453    9.8328 C.ar      1 RES1    0.0000
     10 C5         3.9325    1.4842    9.0675 C.ar      1 RES1    0.0000
     11 C6         2.6371    1.3435    9.6729 C.ar      1 RES1    0.0000
     12 C7         1.4488    1.5169    8.8485 C.ar      1 RES1    0.0000
     13 C8         1.6033    1.9149    7.5209 C.ar      1 RES1    0.0000
     14 C9         2.8399    2.0926    6.9681 C.ar      1 RES1    0.0000
     15 C10        3.9912    1.8948    7.6931 C.ar      1 RES1    0.0000
     16 C11       -0.9825    1.3314    8.5598 C.3       1 RES1    0.0000
     17 C12        0.9951    2.2539   12.2940 C.3       1 RES1    0.0000
     18 C13        1.1551   -0.0997   12.7545 C.3       1 RES1    0.0000
     19 H1         3.6508    0.3179   12.6531 H         1 RES1    0.0000
     20 H2         5.7091    0.4479   11.5574 H         1 RES1    0.0000
     21 H3         5.9259    1.2353    9.4572 H         1 RES1    0.0000
     22 H4         0.8165    2.0516    6.9728 H         1 RES1    0.0000
     23 H5         2.8921    2.3695    6.0581 H         1 RES1    0.0000
     24 H6         1.0401    2.9257   11.5747 H         1 RES1    0.0000
     25 H7         1.6816    2.4851   13.0042 H         1 RES1    0.0000
     26 H8         0.1437    2.2250   12.6783 H         1 RES1    0.0000
     27 H9         0.2437   -0.0867   13.0892 H         1 RES1    0.0000
     28 H10        1.7718    0.0433   13.5238 H         1 RES1    0.0000
     29 H11        1.3673   -0.9463   12.3461 H         1 RES1    0.0000
     30 H12        0.1921    0.9897   10.1908 H         1 RES1    0.0000
     31 H13       -1.1401    2.2250    8.2481 H         1 RES1    0.0000
     32 H14       -0.9460    0.7080    7.7931 H         1 RES1    0.0000
     33 H15       -1.7261    1.0908    9.1455 H         1 RES1    0.0000
@<TRIPOS>BOND
     1    1    5 2
     2    2    5 2
     3    3    6 1
     4    4   12 1
     5    5   15 1
     6    6    7 ar
     7    7    8 ar
     8    8    9 ar
     9    9   10 ar
    10   10   11 ar
    11   11    6 ar
    12   12   11 ar
    13   13   12 ar
    14   14   13 ar
    15   15   10 ar
    16   16    4 1
    17   17    3 1
    18   18    3 1
    19   19    7 1
    20   20    8 1
    21   21    9 1
    22   22   13 1
    23   23   14 1
    24   24   17 1
    25   25   17 1
    26   26   17 1
    27   27   18 1
    28   28   18 1
    29   29   18 1
    30   30    4 1
    31   31   16 1
    32   32   16 1
    33   33   16 1
    34   14   15 ar
@<TRIPOS>SUBSTRUCTURE
     1 RES1 1

@<TRIPOS>CRYSIN
  10.4860    7.2240   16.3260  90.0000 105.3500  90.0000 231 1

