# MOL2 file generated by ConQuest
# Please check atom types

@<TRIPOS>MOLECULE
RAKNAT
    33    34     1
SMALL
NO_CHARGES
****
Generated from CSD

@<TRIPOS>ATOM
      1 O1        10.0995    8.3971   -4.0220 O.2       1 RES1    0.0000
      2 O2        10.4619    6.3287   -4.2165 O.2       1 RES1    0.0000
      3 N1         8.2317    6.2327    1.6491 N.3       1 RES1    0.0000
      4 N2         9.8270    8.2137    2.5720 N.3       1 RES1    0.0000
      5 N3        10.1415    7.2706   -3.5470 N.pl3     1 RES1    0.0000
      6 C1         8.8408    6.4774    0.4043 C.ar      1 RES1    0.0000
      7 C2         8.7408    5.5498   -0.6113 C.ar      1 RES1    0.0000
      8 C3         9.2190    5.8366   -1.8844 C.ar      1 RES1    0.0000
      9 C4         9.7628    7.0461   -2.1536 C.ar      1 RES1    0.0000
     10 C5         9.9769    8.0329   -1.1447 C.ar      1 RES1    0.0000
     11 C6         9.5695    7.6948    0.1918 C.ar      1 RES1    0.0000
     12 C7         9.9891    8.5701    1.2711 C.ar      1 RES1    0.0000
     13 C8        10.6245    9.7661    0.9574 C.ar      1 RES1    0.0000
     14 C9        10.9133   10.0919   -0.3518 C.ar      1 RES1    0.0000
     15 C10       10.6339    9.2650   -1.3824 C.ar      1 RES1    0.0000
     16 C11       10.4657    8.9071    3.6641 C.3       1 RES1    0.0000
     17 C12        7.1120    7.1371    1.9433 C.3       1 RES1    0.0000
     18 C13        7.9006    4.8538    1.9737 C.3       1 RES1    0.0000
     19 H1         8.3239    4.7206   -0.4564 H         1 RES1    0.0000
     20 H2         9.1137    5.1748   -2.5575 H         1 RES1    0.0000
     21 H3        10.8533   10.3735    1.6828 H         1 RES1    0.0000
     22 H4        11.3505   10.9591   -0.5799 H         1 RES1    0.0000
     23 H5        10.8372    9.4891   -2.2057 H         1 RES1    0.0000
     24 H6         7.3479    8.0311    1.6543 H         1 RES1    0.0000
     25 H7         6.3219    6.8360    1.4451 H         1 RES1    0.0000
     26 H8         6.9691    7.0511    2.8902 H         1 RES1    0.0000
     27 H9         7.7349    4.8282    2.9378 H         1 RES1    0.0000
     28 H10        7.1509    4.5653    1.4166 H         1 RES1    0.0000
     29 H11        8.7098    4.2904    1.7779 H         1 RES1    0.0000
     30 H12        9.5866    7.3618    2.7191 H         1 RES1    0.0000
     31 H13       10.1857    9.8118    3.8125 H         1 RES1    0.0000
     32 H14       11.4796    8.9274    3.5367 H         1 RES1    0.0000
     33 H15       10.2004    8.4135    4.4970 H         1 RES1    0.0000
@<TRIPOS>BOND
     1    1    5 2
     2    2    5 2
     3    3    6 1
     4    4   12 1
     5    5    9 1
     6    6    7 ar
     7    7    8 ar
     8    8    9 ar
     9    9   10 ar
    10   10   11 ar
    11   11    6 ar
    12   12   11 ar
    13   13   12 ar
    14   14   13 ar
    15   15   10 ar
    16   16    4 1
    17   17    3 1
    18   18    3 1
    19   19    7 1
    20   20    8 1
    21   21   13 1
    22   22   14 1
    23   23   15 1
    24   24   17 1
    25   25   17 1
    26   26   17 1
    27   27   18 1
    28   28   18 1
    29   29   18 1
    30   30    4 1
    31   31   16 1
    32   32   16 1
    33   33   16 1
    34   14   15 ar
@<TRIPOS>SUBSTRUCTURE
     1 RES1 1

@<TRIPOS>CRYSIN
  10.8090   11.9510    9.8300  90.0000 104.7200  90.0000 231 1

