# MOL2 file generated by ConQuest
# Please check atom types

@<TRIPOS>MOLECULE
RAKNUP
    93    98     1
SMALL
USER_CHARGES
****
Generated from CSD

@<TRIPOS>ATOM
      1 C1         0.8568    8.6880    6.4878 C.2       1 RES1    0.0000
      2 C2         1.4677    7.6032    5.9536 C.2       1 RES1    0.0000
      3 H1         1.3590    7.4106    5.0506 H         1 RES1    0.0000
      4 C3         2.2611    6.7685    6.7541 C.2       1 RES1    0.0000
      5 C4         2.4087    7.0250    8.1160 C.2       1 RES1    0.0000
      6 H2         2.9049    6.4419    8.6439 H         1 RES1    0.0000
      7 C5         1.8318    8.1204    8.6743 C.2       1 RES1   -1.0000
      8 C6         1.0059    9.1603    7.9225 C.3       1 RES1    0.0000
      9 C7         3.1119   10.4295    7.4660 C.3       1 RES1    0.0000
     10 H3         3.2423    9.5401    7.0757 H         1 RES1    0.0000
     11 C8         4.1610   10.5683    8.5688 C.3       1 RES1    0.0000
     12 H4         4.0068    9.8977    9.2528 H         1 RES1    0.0000
     13 H5         4.0885   11.4427    8.9810 H         1 RES1    0.0000
     14 C9         5.5604   10.3897    7.9785 C.3       1 RES1    0.0000
     15 H6         6.2201   10.5381    8.6738 H         1 RES1    0.0000
     16 H7         5.6590    9.4760    7.6646 H         1 RES1    0.0000
     17 C10        5.8275   11.3453    6.8251 C.3       1 RES1    0.0000
     18 H8         6.6945   11.1492    6.4369 H         1 RES1    0.0000
     19 H9         5.8470   12.2567    7.1578 H         1 RES1    0.0000
     20 C11        4.7490   11.2197    5.7493 C.3       1 RES1    0.0000
     21 H10        4.7988   10.3406    5.3445 H         1 RES1    0.0000
     22 H11        4.9084   11.8777    5.0550 H         1 RES1    0.0000
     23 C12        3.3500   11.4289    6.3360 C.3       1 RES1    0.0000
     24 H12        3.2702   12.3340    6.6764 H         1 RES1    0.0000
     25 H13        2.6829   11.3066    5.6428 H         1 RES1    0.0000
     26 C13        1.2265   11.5908    8.5242 C.2       1 RES1    0.0000
     27 C14       -0.8935   12.8411    8.9416 C.3       1 RES1    0.0000
     28 H14       -1.8102   12.6222    9.2084 H         1 RES1    0.0000
     29 C15       -0.4250   13.9565    9.8793 C.3       1 RES1    0.0000
     30 H15        0.4547   14.2661    9.6121 H         1 RES1    0.0000
     31 H16       -0.3681   13.6229   10.7888 H         1 RES1    0.0000
     32 C16       -1.4320   15.1141    9.8073 C.3       1 RES1    0.0000
     33 H17       -2.2986   14.8078   10.1156 H         1 RES1    0.0000
     34 H18       -1.1424   15.8298   10.3929 H         1 RES1    0.0000
     35 C17       -1.5587   15.6433    8.3799 C.3       1 RES1    0.0000
     36 H19       -2.2403   16.3315    8.3522 H         1 RES1    0.0000
     37 H20       -0.7174   16.0433    8.1104 H         1 RES1    0.0000
     38 C18       -1.9238   14.5345    7.4051 C.3       1 RES1    0.0000
     39 H21       -1.9054   14.8878    6.5012 H         1 RES1    0.0000
     40 H22       -2.8276   14.2340    7.5881 H         1 RES1    0.0000
     41 C19       -0.9709   13.3377    7.4948 C.3       1 RES1    0.0000
     42 H23       -1.2890   12.6222    6.9204 H         1 RES1    0.0000
     43 H24       -0.0875   13.5989    7.1910 H         1 RES1    0.0000
     44 C20       -0.7557   10.3537    9.1948 C.2       1 RES1    0.0000
     45 C21       -1.9550   11.1070   11.2447 C.3       1 RES1    0.0000
     46 H25       -1.3782   11.8964   11.1714 H         1 RES1    0.0000
     47 C22       -3.3856   11.5860   11.4443 C.3       1 RES1    0.0000
     48 H26       -3.9853   10.8236   11.4764 H         1 RES1    0.0000
     49 H27       -3.6498   12.1499   10.7001 H         1 RES1    0.0000
     50 C23       -3.4806   12.3730   12.7461 C.3       1 RES1    0.0000
     51 H28       -2.9223   13.1640   12.6864 H         1 RES1    0.0000
     52 H29       -4.3964   12.6623   12.8827 H         1 RES1    0.0000
     53 C24       -3.0350   11.5252   13.9286 C.3       1 RES1    0.0000
     54 H30       -3.6287   10.7649   14.0250 H         1 RES1    0.0000
     55 H31       -3.0839   12.0512   14.7425 H         1 RES1    0.0000
     56 C25       -1.6026   11.0339   13.7246 C.3       1 RES1    0.0000
     57 H32       -1.3529   10.4580   14.4642 H         1 RES1    0.0000
     58 H33       -1.0002   11.7950   13.7211 H         1 RES1    0.0000
     59 C26       -1.4511   10.2646   12.4128 C.3       1 RES1    0.0000
     60 H34       -0.5191   10.0391   12.2738 H         1 RES1    0.0000
     61 H35       -1.9575    9.4387   12.4601 H         1 RES1    0.0000
     62 C27       -1.0381    7.9187    8.6538 C.3       1 RES1    0.0000
     63 H36       -0.4957    7.3225    8.0971 H         1 RES1    0.0000
     64 C28       -1.0756    7.2422   10.0302 C.3       1 RES1    0.0000
     65 H37       -0.2000    7.2878   10.4461 H         1 RES1    0.0000
     66 H38       -1.7119    7.6961   10.6058 H         1 RES1    0.0000
     67 C29       -1.4899    5.7838    9.8372 C.3       1 RES1    0.0000
     68 H39       -0.8233    5.3291    9.3004 H         1 RES1    0.0000
     69 H40       -1.5305    5.3451   10.7012 H         1 RES1    0.0000
     70 C30       -2.8502    5.6803    9.1507 C.3       1 RES1    0.0000
     71 H41       -3.0529    4.7474    8.9777 H         1 RES1    0.0000
     72 H42       -3.5353    6.0309    9.7418 H         1 RES1    0.0000
     73 C31       -2.8762    6.4547    7.8346 C.3       1 RES1    0.0000
     74 H43       -3.7781    6.4392    7.4761 H         1 RES1    0.0000
     75 H44       -2.2964    6.0122    7.1955 H         1 RES1    0.0000
     76 C32       -2.4252    7.9109    7.9959 C.3       1 RES1    0.0000
     77 H45       -3.0581    8.3953    8.5496 H         1 RES1    0.0000
     78 H46       -2.3833    8.3446    7.1289 H         1 RES1    0.0000
     79 N1        -0.0104    9.4579    5.6311 N.pl3     1 RES1    0.0000
     80 N2         2.8848    5.6328    6.1718 N.pl3     1 RES1    0.0000
     81 N3         2.0179    8.3523   10.0802 N.pl3     1 RES1    0.0000
     82 N4         1.7055   10.4572    7.9735 N.am      1 RES1    0.0000
     83 N5        -0.1018   11.5465    9.0298 N.am      1 RES1    0.0000
     84 N6        -1.8505   10.3420    9.9676 N.3       1 RES1    0.0000
     85 N7        -0.3393    9.2487    8.5832 N.pl3     1 RES1    1.0000
     86 O1        -0.5063   10.4938    6.0898 O.2       1 RES1    0.0000
     87 O2        -0.2384    9.0560    4.4882 O.2       1 RES1    0.0000
     88 O3         2.6942    5.3675    4.9801 O.2       1 RES1    0.0000
     89 O4         3.6232    4.9419    6.8861 O.2       1 RES1    0.0000
     90 O5         2.6435    7.5181   10.7495 O.2       1 RES1    0.0000
     91 O6         1.5355    9.3741   10.5907 O.2       1 RES1    0.0000
     92 O7         1.8564   12.6262    8.5894 O.2       1 RES1    0.0000
     93 H47       -2.2707    9.5748    9.9914 H         1 RES1    0.0000
@<TRIPOS>BOND
     1    1    2 un
     2    2    3 1
     3    4    2 un
     4    5    4 un
     5    6    5 1
     6    7    5 un
     7    8    1 1
     8    9   10 1
     9   11    9 1
    10   12   11 1
    11   13   11 1
    12   14   11 1
    13   15   14 1
    14   16   14 1
    15   17   14 1
    16   18   17 1
    17   19   17 1
    18   20   17 1
    19   21   20 1
    20   22   20 1
    21   23    9 1
    22   24   23 1
    23   25   23 1
    24   26   82 1
    25   27   28 1
    26   29   27 1
    27   30   29 1
    28   31   29 1
    29   32   29 1
    30   33   32 1
    31   34   32 1
    32   35   32 1
    33   36   35 1
    34   37   35 1
    35   38   35 1
    36   39   38 1
    37   40   38 1
    38   41   27 1
    39   42   41 1
    40   43   41 1
    41   44   83 1
    42   45   46 1
    43   47   45 1
    44   48   47 1
    45   49   47 1
    46   50   47 1
    47   51   50 1
    48   52   50 1
    49   53   50 1
    50   54   53 1
    51   55   53 1
    52   56   53 1
    53   57   56 1
    54   58   56 1
    55   59   45 1
    56   60   59 1
    57   61   59 1
    58   62   63 1
    59   64   62 1
    60   65   64 1
    61   66   64 1
    62   67   64 1
    63   68   67 1
    64   69   67 1
    65   70   67 1
    66   71   70 1
    67   72   70 1
    68   73   70 1
    69   74   73 1
    70   75   73 1
    71   76   62 1
    72   77   76 1
    73   78   76 1
    74   79    1 1
    75   80    4 1
    76   81    7 1
    77   82    8 1
    78   83   26 1
    79   84   44 1
    80   85    8 1
    81   86   79 2
    82   87   79 2
    83   88   80 2
    84   89   80 2
    85   90   81 2
    86   91   81 2
    87   92   26 2
    88   93   84 1
    89    7    8 1
    90    9   82 1
    91   20   23 1
    92   27   83 1
    93   38   41 1
    94   44   85 2
    95   45   84 1
    96   56   59 1
    97   62   85 1
    98   73   76 1
@<TRIPOS>SUBSTRUCTURE
     1 RES1 1

@<TRIPOS>CRYSIN
  10.9266   26.6855   11.9495  90.0000 111.8580  90.0000 231 1

