# MOL2 file generated by ConQuest
# Please check atom types

@<TRIPOS>MOLECULE
RAKWIJ02
    90   100     2
SMALL
NO_CHARGES
****
Generated from CSD

@<TRIPOS>ATOM
      1 O1         5.6092    1.8294    4.3413 O.2       1 RES1    0.0000
      2 O2         5.5867    3.4755    2.9816 O.2       1 RES1    0.0000
      3 O3         1.4899   -0.5341    0.0353 O.2       1 RES1    0.0000
      4 O4         3.4054   -1.1795    0.8103 O.2       1 RES1    0.0000
      5 N1         5.0535    2.5389    3.5344 N.pl3     1 RES1    0.0000
      6 N2         2.4488   -0.4208    0.7909 N.pl3     1 RES1    0.0000
      7 C1         3.7721    4.5124    5.0637 C.ar      1 RES1    0.0000
      8 C2         4.3317    5.6649    4.5677 C.ar      1 RES1    0.0000
      9 C3         5.4653    6.1553    5.2475 C.ar      1 RES1    0.0000
     10 H1         5.9342    6.8961    4.9361 H         1 RES1    0.0000
     11 C4         5.8546    5.4832    6.4064 C.ar      1 RES1    0.0000
     12 H2         6.6646    5.7192    6.7984 H         1 RES1    0.0000
     13 C5         5.1093    4.4879    7.0083 C.ar      1 RES1    0.0000
     14 H3         5.3545    4.1367    7.8332 H         1 RES1    0.0000
     15 C6         3.9757    4.0272    6.3379 C.ar      1 RES1    0.0000
     16 C7         2.6950    3.4197    6.7353 C.ar      1 RES1    0.0000
     17 C8         2.2583    2.9170    7.9627 C.ar      1 RES1    0.0000
     18 H4         2.8575    2.8025    8.6640 H         1 RES1    0.0000
     19 C9         0.9326    2.5923    8.1207 C.ar      1 RES1    0.0000
     20 H5         0.6399    2.2612    8.9387 H         1 RES1    0.0000
     21 C10        0.0361    2.7452    7.1044 C.ar      1 RES1    0.0000
     22 H6        -0.8560    2.5172    7.2371 H         1 RES1    0.0000
     23 C11        0.4454    3.2383    5.8734 C.ar      1 RES1    0.0000
     24 H7        -0.1655    3.3316    5.1788 H         1 RES1    0.0000
     25 C12        1.7595    3.5884    5.6888 C.ar      1 RES1    0.0000
     26 C13        2.4799    4.1127    4.4258 C.3       1 RES1    0.0000
     27 C14        2.1666    5.4009    3.6481 C.ar      1 RES1    0.0000
     28 C15        1.0324    5.7786    2.9643 C.ar      1 RES1    0.0000
     29 H8         0.2727    5.2411    2.9710 H         1 RES1    0.0000
     30 C16        1.0454    6.9897    2.2584 C.ar      1 RES1    0.0000
     31 H9         0.2853    7.2647    1.7980 H         1 RES1    0.0000
     32 C17        2.1800    7.7771    2.2428 C.ar      1 RES1    0.0000
     33 H10        2.1755    8.5711    1.7595 H         1 RES1    0.0000
     34 C18        3.3156    7.4118    2.9267 C.ar      1 RES1    0.0000
     35 H11        4.0680    7.9588    2.9132 H         1 RES1    0.0000
     36 C19        3.3298    6.2239    3.6335 C.ar      1 RES1    0.0000
     37 C20        2.5528    2.9324    3.4326 C.ar      1 RES1    0.0000
     38 C21        3.6835    2.1859    3.1094 C.ar      1 RES1    0.0000
     39 C22        3.6548    1.0712    2.2941 C.ar      1 RES1    0.0000
     40 H12        4.4228    0.5707    2.1419 H         1 RES1    0.0000
     41 C23        2.4602    0.7228    1.7153 C.ar      1 RES1    0.0000
     42 C24        1.3079    1.4323    1.9558 C.ar      1 RES1    0.0000
     43 H13        0.5081    1.1954    1.5442 H         1 RES1    0.0000
     44 C25        1.3650    2.5018    2.8222 C.ar      1 RES1    0.0000
     45 H14        0.5786    2.9599    3.0112 H         1 RES1    0.0000
     46 O5        12.9335    2.0596    4.6662 O.2       2 RES2    0.0000
     47 O6        13.3836    3.3128    2.9725 O.2       2 RES2    0.0000
     48 O7         9.2084   -0.6392    0.1049 O.2       2 RES2    0.0000
     49 O8        11.1146   -1.2092    0.9586 O.2       2 RES2    0.0000
     50 N3        12.6371    2.5963    3.6145 N.pl3     2 RES2    0.0000
     51 N4        10.1470   -0.4655    0.8744 N.pl3     2 RES2    0.0000
     52 C26       11.3915    4.9678    4.4753 C.ar      2 RES2    0.0000
     53 C27       11.6885    6.0675    3.7093 C.ar      2 RES2    0.0000
     54 C28       12.8507    6.7630    4.0622 C.ar      2 RES2    0.0000
     55 H15       13.1563    7.4760    3.5495 H         2 RES2    0.0000
     56 C29       13.5300    6.3585    5.1958 C.ar      2 RES2    0.0000
     57 H16       14.3577    6.7449    5.3716 H         2 RES2    0.0000
     58 C30       13.0482    5.4069    6.0900 C.ar      2 RES2    0.0000
     59 H17       13.4798    5.2442    6.8981 H         2 RES2    0.0000
     60 C31       11.8929    4.7040    5.7314 C.ar      2 RES2    0.0000
     61 C32       10.8320    3.9431    6.4404 C.ar      2 RES2    0.0000
     62 C33       10.7613    3.4917    7.7378 C.ar      2 RES2    0.0000
     63 H18       11.4971    3.5583    8.3024 H         2 RES2    0.0000
     64 C34        9.5705    2.9350    8.1899 C.ar      2 RES2    0.0000
     65 H19        9.5139    2.6313    9.0673 H         2 RES2    0.0000
     66 C35        8.4771    2.8251    7.3681 C.ar      2 RES2    0.0000
     67 H20        7.6898    2.4540    7.6967 H         2 RES2    0.0000
     68 C36        8.5348    3.2637    6.0455 C.ar      2 RES2    0.0000
     69 H21        7.8011    3.1712    5.4825 H         2 RES2    0.0000
     70 C37        9.6993    3.8349    5.5912 C.ar      2 RES2    0.0000
     71 C38       10.0777    4.3206    4.1769 C.3       2 RES2    0.0000
     72 C39        9.4455    5.4673    3.3523 C.ar      2 RES2    0.0000
     73 C40        8.1471    5.6689    2.9366 C.ar      2 RES2    0.0000
     74 H22        7.4711    5.0915    3.2104 H         2 RES2    0.0000
     75 C41        7.8578    6.7465    2.1019 C.ar      2 RES2    0.0000
     76 H23        6.9817    6.8899    1.8237 H         2 RES2    0.0000
     77 C42        8.8508    7.5974    1.6867 C.ar      2 RES2    0.0000
     78 H24        8.6429    8.2966    1.1087 H         2 RES2    0.0000
     79 C43       10.1549    7.4327    2.1128 C.ar      2 RES2    0.0000
     80 H25       10.8188    8.0236    1.8398 H         2 RES2    0.0000
     81 C44       10.4591    6.3752    2.9524 C.ar      2 RES2    0.0000
     82 C45       10.1566    3.0535    3.2922 C.ar      2 RES2    0.0000
     83 C46       11.2956    2.2871    3.0555 C.ar      2 RES2    0.0000
     84 C47       11.3016    1.1394    2.2952 C.ar      2 RES2    0.0000
     85 H26       12.0851    0.6524    2.1724 H         2 RES2    0.0000
     86 C48       10.1230    0.7313    1.7227 C.ar      2 RES2    0.0000
     87 C49        8.9557    1.4334    1.9092 C.ar      2 RES2    0.0000
     88 H27        8.1626    1.1506    1.5136 H         2 RES2    0.0000
     89 C50        8.9879    2.5684    2.6964 C.ar      2 RES2    0.0000
     90 H28        8.1940    3.0324    2.8376 H         2 RES2    0.0000
@<TRIPOS>BOND
     1    1    5 2
     2    2    5 2
     3    3    6 2
     4    4    6 2
     5    5   38 1
     6    6   41 1
     7    7    8 ar
     8    8    9 ar
     9    9   10 1
    10   11    9 ar
    11   12   11 1
    12   13   11 ar
    13   14   13 1
    14   15    7 ar
    15   16   15 1
    16   17   16 ar
    17   18   17 1
    18   19   17 ar
    19   20   19 1
    20   21   19 ar
    21   22   21 1
    22   23   21 ar
    23   24   23 1
    24   25   16 ar
    25   26    7 1
    26   27   26 1
    27   28   27 ar
    28   29   28 1
    29   30   28 ar
    30   31   30 1
    31   32   30 ar
    32   33   32 1
    33   34   32 ar
    34   35   34 1
    35   36    8 1
    36   37   26 1
    37   38   37 ar
    38   39   38 ar
    39   40   39 1
    40   41   39 ar
    41   42   41 ar
    42   43   42 1
    43   44   37 ar
    44   45   44 1
    45   46   50 2
    46   47   50 2
    47   48   51 2
    48   49   51 2
    49   50   83 1
    50   51   86 1
    51   52   53 ar
    52   53   54 ar
    53   54   55 1
    54   56   54 ar
    55   57   56 1
    56   58   56 ar
    57   59   58 1
    58   60   52 ar
    59   61   60 1
    60   62   61 ar
    61   63   62 1
    62   64   62 ar
    63   65   64 1
    64   66   64 ar
    65   67   66 1
    66   68   66 ar
    67   69   68 1
    68   70   61 ar
    69   71   52 1
    70   72   71 1
    71   73   72 ar
    72   74   73 1
    73   75   73 ar
    74   76   75 1
    75   77   75 ar
    76   78   77 1
    77   79   77 ar
    78   80   79 1
    79   81   53 1
    80   82   71 1
    81   83   82 ar
    82   84   83 ar
    83   85   84 1
    84   86   84 ar
    85   87   86 ar
    86   88   87 1
    87   89   82 ar
    88   90   89 1
    89   13   15 ar
    90   23   25 ar
    91   25   26 1
    92   27   36 ar
    93   34   36 ar
    94   42   44 ar
    95   58   60 ar
    96   68   70 ar
    97   70   71 1
    98   72   81 ar
    99   79   81 ar
   100   87   89 ar
@<TRIPOS>SUBSTRUCTURE
     1 RES1 1
     2 RES2 46

@<TRIPOS>CRYSIN
  15.3830   15.4240   17.0260  90.0000 109.3100  90.0000  14 1

