# MOL2 file generated by ConQuest
# Please check atom types

@<TRIPOS>MOLECULE
RAKWIJ01
    90   100     2
SMALL
NO_CHARGES
****
Generated from CSD

@<TRIPOS>ATOM
      1 O1         5.5228    1.8851    4.4271 O.2       1 RES1    0.0000
      2 O2         5.5929    3.4504    2.9935 O.2       1 RES1    0.0000
      3 O3         1.4966   -0.5605    0.0693 O.2       1 RES1    0.0000
      4 O4         3.4114   -1.1798    0.8417 O.2       1 RES1    0.0000
      5 N1         5.0225    2.5525    3.5640 N.pl3     1 RES1    0.0000
      6 N2         2.4511   -0.4302    0.8193 N.pl3     1 RES1    0.0000
      7 C1         3.7434    4.5918    5.0009 C.ar      1 RES1    0.0000
      8 C2         4.2655    5.7274    4.4672 C.ar      1 RES1    0.0000
      9 C3         5.4021    6.2874    5.0813 C.ar      1 RES1    0.0000
     10 H1         5.8405    7.0320    4.7389 H         1 RES1    0.0000
     11 C4         5.8220    5.6390    6.2419 C.ar      1 RES1    0.0000
     12 H2         6.6345    5.9011    6.6100 H         1 RES1    0.0000
     13 C5         5.1325    4.6477    6.8833 C.ar      1 RES1    0.0000
     14 H3         5.4228    4.3235    7.7047 H         1 RES1    0.0000
     15 C6         3.9767    4.1311    6.2709 C.ar      1 RES1    0.0000
     16 C7         2.7250    3.4997    6.7049 C.ar      1 RES1    0.0000
     17 C8         2.3435    3.0049    7.9539 C.ar      1 RES1    0.0000
     18 H4         2.9572    2.9180    8.6467 H         1 RES1    0.0000
     19 C9         1.0310    2.6543    8.1227 C.ar      1 RES1    0.0000
     20 H5         0.7583    2.3285    8.9506 H         1 RES1    0.0000
     21 C10        0.1222    2.7613    7.1421 C.ar      1 RES1    0.0000
     22 H6        -0.7584    2.5100    7.2997 H         1 RES1    0.0000
     23 C11        0.4836    3.2391    5.9060 C.ar      1 RES1    0.0000
     24 H7        -0.1466    3.2965    5.2244 H         1 RES1    0.0000
     25 C12        1.7726    3.6299    5.6791 C.ar      1 RES1    0.0000
     26 C13        2.4433    4.1514    4.3927 C.3       1 RES1    0.0000
     27 C14        2.0843    5.4156    3.6090 C.ar      1 RES1    0.0000
     28 C15        0.9238    5.7522    2.9546 C.ar      1 RES1    0.0000
     29 H8         0.1748    5.2015    3.0012 H         1 RES1    0.0000
     30 C16        0.8907    6.9576    2.2071 C.ar      1 RES1    0.0000
     31 H9         0.1168    7.2120    1.7586 H         1 RES1    0.0000
     32 C17        2.0236    7.7503    2.1540 C.ar      1 RES1    0.0000
     33 H10        2.0069    8.5322    1.6493 H         1 RES1    0.0000
     34 C18        3.1696    7.4137    2.8228 C.ar      1 RES1    0.0000
     35 H11        3.9086    7.9768    2.7826 H         1 RES1    0.0000
     36 C19        3.2391    6.2533    3.5510 C.ar      1 RES1    0.0000
     37 C20        2.5234    2.9560    3.4174 C.ar      1 RES1    0.0000
     38 C21        3.6594    2.2073    3.1095 C.ar      1 RES1    0.0000
     39 C22        3.6404    1.0920    2.3061 C.ar      1 RES1    0.0000
     40 H12        4.4147    0.5988    2.1573 H         1 RES1    0.0000
     41 C23        2.4528    0.7254    1.7310 C.ar      1 RES1    0.0000
     42 C24        1.2977    1.4272    1.9660 C.ar      1 RES1    0.0000
     43 H13        0.4994    1.1759    1.5609 H         1 RES1    0.0000
     44 C25        1.3463    2.5097    2.8120 C.ar      1 RES1    0.0000
     45 H14        0.5573    2.9676    2.9899 H         1 RES1    0.0000
     46 O5        12.9785    2.0355    4.6643 O.2       2 RES2    0.0000
     47 O6        13.3919    3.3218    2.9961 O.2       2 RES2    0.0000
     48 O7         9.2291   -0.6301    0.1217 O.2       2 RES2    0.0000
     49 O8        11.1390   -1.1993    0.9484 O.2       2 RES2    0.0000
     50 N3        12.6686    2.5854    3.6313 N.pl3     2 RES2    0.0000
     51 N4        10.1713   -0.4584    0.8814 N.pl3     2 RES2    0.0000
     52 C26       11.4140    4.9300    4.5492 C.ar      2 RES2    0.0000
     53 C27       11.7191    6.0439    3.8017 C.ar      2 RES2    0.0000
     54 C28       12.8895    6.7249    4.1875 C.ar      2 RES2    0.0000
     55 H15       13.2205    7.4369    3.6908 H         2 RES2    0.0000
     56 C29       13.5219    6.2921    5.3289 C.ar      2 RES2    0.0000
     57 H16       14.3449    6.6768    5.5282 H         2 RES2    0.0000
     58 C30       13.0457    5.3380    6.2066 C.ar      2 RES2    0.0000
     59 H17       13.4653    5.1596    7.0167 H         2 RES2    0.0000
     60 C31       11.8802    4.6492    5.8031 C.ar      2 RES2    0.0000
     61 C32       10.8014    3.8922    6.4911 C.ar      2 RES2    0.0000
     62 C33       10.6970    3.4470    7.7723 C.ar      2 RES2    0.0000
     63 H18       11.4212    3.5028    8.3526 H         2 RES2    0.0000
     64 C34        9.4961    2.9102    8.1982 C.ar      2 RES2    0.0000
     65 H19        9.4199    2.6124    9.0759 H         2 RES2    0.0000
     66 C35        8.4157    2.8079    7.3623 C.ar      2 RES2    0.0000
     67 H20        7.6202    2.4402    7.6758 H         2 RES2    0.0000
     68 C36        8.5042    3.2515    6.0442 C.ar      2 RES2    0.0000
     69 H21        7.7809    3.1724    5.4655 H         2 RES2    0.0000
     70 C37        9.6799    3.8027    5.6234 C.ar      2 RES2    0.0000
     71 C38       10.1010    4.2957    4.2223 C.3       2 RES2    0.0000
     72 C39        9.4970    5.4615    3.3942 C.ar      2 RES2    0.0000
     73 C40        8.2109    5.6731    2.9530 C.ar      2 RES2    0.0000
     74 H22        7.5281    5.0914    3.1989 H         2 RES2    0.0000
     75 C41        7.9420    6.7637    2.1364 C.ar      2 RES2    0.0000
     76 H23        7.0720    6.9172    1.8454 H         2 RES2    0.0000
     77 C42        8.9384    7.6060    1.7586 C.ar      2 RES2    0.0000
     78 H24        8.7404    8.3134    1.1879 H         2 RES2    0.0000
     79 C43       10.2276    7.4416    2.1958 C.ar      2 RES2    0.0000
     80 H25       10.8948    8.0373    1.9419 H         2 RES2    0.0000
     81 C44       10.5132    6.3619    3.0301 C.ar      2 RES2    0.0000
     82 C45       10.1833    3.0393    3.3278 C.ar      2 RES2    0.0000
     83 C46       11.3212    2.2776    3.0824 C.ar      2 RES2    0.0000
     84 C47       11.3236    1.1300    2.3137 C.ar      2 RES2    0.0000
     85 H26       12.1043    0.6407    2.1910 H         2 RES2    0.0000
     86 C48       10.1455    0.7305    1.7366 C.ar      2 RES2    0.0000
     87 C49        8.9836    1.4343    1.9271 C.ar      2 RES2    0.0000
     88 H27        8.1910    1.1619    1.5255 H         2 RES2    0.0000
     89 C50        9.0202    2.5561    2.7279 C.ar      2 RES2    0.0000
     90 H28        8.2267    3.0157    2.8758 H         2 RES2    0.0000
@<TRIPOS>BOND
     1    1    5 2
     2    2    5 2
     3    3    6 2
     4    4    6 2
     5    5   38 1
     6    6   41 1
     7    7    8 ar
     8    8    9 ar
     9    9   10 1
    10   11    9 ar
    11   12   11 1
    12   13   11 ar
    13   14   13 1
    14   15    7 ar
    15   16   15 1
    16   17   16 ar
    17   18   17 1
    18   19   17 ar
    19   20   19 1
    20   21   19 ar
    21   22   21 1
    22   23   21 ar
    23   24   23 1
    24   25   16 ar
    25   26    7 1
    26   27   26 1
    27   28   27 ar
    28   29   28 1
    29   30   28 ar
    30   31   30 1
    31   32   30 ar
    32   33   32 1
    33   34   32 ar
    34   35   34 1
    35   36    8 1
    36   37   26 1
    37   38   37 ar
    38   39   38 ar
    39   40   39 1
    40   41   39 ar
    41   42   41 ar
    42   43   42 1
    43   44   37 ar
    44   45   44 1
    45   46   50 2
    46   47   50 2
    47   48   51 2
    48   49   51 2
    49   50   83 1
    50   51   86 1
    51   52   53 ar
    52   53   54 ar
    53   54   55 1
    54   56   54 ar
    55   57   56 1
    56   58   56 ar
    57   59   58 1
    58   60   52 ar
    59   61   60 1
    60   62   61 ar
    61   63   62 1
    62   64   62 ar
    63   65   64 1
    64   66   64 ar
    65   67   66 1
    66   68   66 ar
    67   69   68 1
    68   70   61 ar
    69   71   52 1
    70   72   71 1
    71   73   72 ar
    72   74   73 1
    73   75   73 ar
    74   76   75 1
    75   77   75 ar
    76   78   77 1
    77   79   77 ar
    78   80   79 1
    79   81   53 1
    80   82   71 1
    81   83   82 ar
    82   84   83 ar
    83   85   84 1
    84   86   84 ar
    85   87   86 ar
    86   88   87 1
    87   89   82 ar
    88   90   89 1
    89   13   15 ar
    90   23   25 ar
    91   25   26 1
    92   27   36 ar
    93   34   36 ar
    94   42   44 ar
    95   58   60 ar
    96   68   70 ar
    97   70   71 1
    98   72   81 ar
    99   79   81 ar
   100   87   89 ar
@<TRIPOS>SUBSTRUCTURE
     1 RES1 1
     2 RES2 46

@<TRIPOS>CRYSIN
  15.4440   15.5130   17.1110  90.0000 110.0400  90.0000  14 1

