# MOL2 file generated by ConQuest
# Please check atom types

@<TRIPOS>MOLECULE
RAKWIJ03
    90   100     2
SMALL
NO_CHARGES
****
Generated from CSD

@<TRIPOS>ATOM
      1 O1         5.6182    1.8202    4.3271 O.2       1 RES1    0.0000
      2 O2         5.5827    3.4780    2.9802 O.2       1 RES1    0.0000
      3 O3         1.4906   -0.5333    0.0292 O.2       1 RES1    0.0000
      4 O4         3.4066   -1.1809    0.8038 O.2       1 RES1    0.0000
      5 N1         5.0552    2.5339    3.5289 N.pl3     1 RES1    0.0000
      6 N2         2.4487   -0.4213    0.7876 N.pl3     1 RES1    0.0000
      7 C1         3.7770    4.5086    5.0664 C.ar      1 RES1    0.0000
      8 C2         4.3369    5.6640    4.5705 C.ar      1 RES1    0.0000
      9 C3         5.4681    6.1428    5.2522 C.ar      1 RES1    0.0000
     10 H1         5.9455    6.8885    4.9383 H         1 RES1    0.0000
     11 C4         5.8576    5.4704    6.4151 C.ar      1 RES1    0.0000
     12 H2         6.6761    5.7078    6.8134 H         1 RES1    0.0000
     13 C5         5.1073    4.4798    7.0082 C.ar      1 RES1    0.0000
     14 H3         5.3510    4.1263    7.8441 H         1 RES1    0.0000
     15 C6         3.9769    4.0153    6.3361 C.ar      1 RES1    0.0000
     16 C7         2.6898    3.4090    6.7338 C.ar      1 RES1    0.0000
     17 C8         2.2547    2.9079    7.9610 C.ar      1 RES1    0.0000
     18 H4         2.8596    2.7915    8.6709 H         1 RES1    0.0000
     19 C9         0.9291    2.5865    8.1154 C.ar      1 RES1    0.0000
     20 H5         0.6303    2.2489    8.9406 H         1 RES1    0.0000
     21 C10        0.0318    2.7454    7.0963 C.ar      1 RES1    0.0000
     22 H6        -0.8712    2.5186    7.2308 H         1 RES1    0.0000
     23 C11        0.4414    3.2371    5.8654 C.ar      1 RES1    0.0000
     24 H7        -0.1757    3.3310    5.1631 H         1 RES1    0.0000
     25 C12        1.7566    3.5847    5.6851 C.ar      1 RES1    0.0000
     26 C13        2.4836    4.1078    4.4266 C.3       1 RES1    0.0000
     27 C14        2.1726    5.3991    3.6483 C.ar      1 RES1    0.0000
     28 C15        1.0416    5.7807    2.9615 C.ar      1 RES1    0.0000
     29 H8         0.2744    5.2377    2.9620 H         1 RES1    0.0000
     30 C16        1.0579    6.9936    2.2616 C.ar      1 RES1    0.0000
     31 H9         0.2901    7.2739    1.7981 H         1 RES1    0.0000
     32 C17        2.1901    7.7805    2.2474 C.ar      1 RES1    0.0000
     33 H10        2.1861    8.5841    1.7612 H         1 RES1    0.0000
     34 C18        3.3247    7.4140    2.9297 C.ar      1 RES1    0.0000
     35 H11        4.0860    7.9660    2.9155 H         1 RES1    0.0000
     36 C19        3.3354    6.2226    3.6389 C.ar      1 RES1    0.0000
     37 C20        2.5552    2.9297    3.4303 C.ar      1 RES1    0.0000
     38 C21        3.6852    2.1819    3.1071 C.ar      1 RES1    0.0000
     39 C22        3.6561    1.0703    2.2903 C.ar      1 RES1    0.0000
     40 H12        4.4336    0.5657    2.1352 H         1 RES1    0.0000
     41 C23        2.4629    0.7217    1.7119 C.ar      1 RES1    0.0000
     42 C24        1.3054    1.4320    1.9528 C.ar      1 RES1    0.0000
     43 H13        0.4962    1.1930    1.5380 H         1 RES1    0.0000
     44 C25        1.3669    2.5000    2.8182 C.ar      1 RES1    0.0000
     45 H14        0.5732    2.9657    3.0086 H         1 RES1    0.0000
     46 O5        12.9265    2.0619    4.6628 O.2       2 RES2    0.0000
     47 O6        13.3764    3.3135    2.9686 O.2       2 RES2    0.0000
     48 O7         9.2046   -0.6401    0.1040 O.2       2 RES2    0.0000
     49 O8        11.1098   -1.2098    0.9552 O.2       2 RES2    0.0000
     50 N3        12.6307    2.5971    3.6133 N.pl3     2 RES2    0.0000
     51 N4        10.1440   -0.4664    0.8714 N.pl3     2 RES2    0.0000
     52 C26       11.3854    4.9695    4.4657 C.ar      2 RES2    0.0000
     53 C27       11.6801    6.0723    3.7005 C.ar      2 RES2    0.0000
     54 C28       12.8471    6.7686    4.0473 C.ar      2 RES2    0.0000
     55 H15       13.1593    7.4866    3.5255 H         2 RES2    0.0000
     56 C29       13.5255    6.3594    5.1883 C.ar      2 RES2    0.0000
     57 H16       14.3622    6.7498    5.3685 H         2 RES2    0.0000
     58 C30       13.0445    5.4108    6.0794 C.ar      2 RES2    0.0000
     59 H17       13.4819    5.2454    6.8953 H         2 RES2    0.0000
     60 C31       11.8874    4.7084    5.7237 C.ar      2 RES2    0.0000
     61 C32       10.8297    3.9481    6.4323 C.ar      2 RES2    0.0000
     62 C33       10.7607    3.4956    7.7309 C.ar      2 RES2    0.0000
     63 H18       11.5051    3.5637    8.3001 H         2 RES2    0.0000
     64 C34        9.5704    2.9365    8.1864 C.ar      2 RES2    0.0000
     65 H19        9.5134    2.6296    9.0739 H         2 RES2    0.0000
     66 C35        8.4794    2.8249    7.3639 C.ar      2 RES2    0.0000
     67 H20        7.6843    2.4477    7.6948 H         2 RES2    0.0000
     68 C36        8.5340    3.2651    6.0415 C.ar      2 RES2    0.0000
     69 H21        7.7906    3.1691    5.4745 H         2 RES2    0.0000
     70 C37        9.6927    3.8398    5.5846 C.ar      2 RES2    0.0000
     71 C38       10.0727    4.3232    4.1667 C.3       2 RES2    0.0000
     72 C39        9.4368    5.4677    3.3467 C.ar      2 RES2    0.0000
     73 C40        8.1358    5.6705    2.9313 C.ar      2 RES2    0.0000
     74 H22        7.4534    5.0866    3.2076 H         2 RES2    0.0000
     75 C41        7.8457    6.7472    2.0991 C.ar      2 RES2    0.0000
     76 H23        6.9599    6.8947    1.8206 H         2 RES2    0.0000
     77 C42        8.8430    7.6003    1.6782 C.ar      2 RES2    0.0000
     78 H24        8.6341    8.3066    1.0933 H         2 RES2    0.0000
     79 C43       10.1434    7.4320    2.1025 C.ar      2 RES2    0.0000
     80 H25       10.8141    8.0276    1.8238 H         2 RES2    0.0000
     81 C44       10.4511    6.3789    2.9423 C.ar      2 RES2    0.0000
     82 C45       10.1510    3.0549    3.2857 C.ar      2 RES2    0.0000
     83 C46       11.2937    2.2901    3.0553 C.ar      2 RES2    0.0000
     84 C47       11.2958    1.1388    2.2934 C.ar      2 RES2    0.0000
     85 H26       12.0863    0.6458    2.1689 H         2 RES2    0.0000
     86 C48       10.1182    0.7326    1.7215 C.ar      2 RES2    0.0000
     87 C49        8.9476    1.4343    1.9047 C.ar      2 RES2    0.0000
     88 H27        8.1458    1.1483    1.5059 H         2 RES2    0.0000
     89 C50        8.9820    2.5670    2.6894 C.ar      2 RES2    0.0000
     90 H28        8.1794    3.0366    2.8320 H         2 RES2    0.0000
@<TRIPOS>BOND
     1    1    5 2
     2    2    5 2
     3    3    6 2
     4    4    6 2
     5    5   38 1
     6    6   41 1
     7    7    8 ar
     8    8    9 ar
     9    9   10 1
    10   11    9 ar
    11   12   11 1
    12   13   11 ar
    13   14   13 1
    14   15    7 ar
    15   16   15 1
    16   17   16 ar
    17   18   17 1
    18   19   17 ar
    19   20   19 1
    20   21   19 ar
    21   22   21 1
    22   23   21 ar
    23   24   23 1
    24   25   16 ar
    25   26    7 1
    26   27   26 1
    27   28   27 ar
    28   29   28 1
    29   30   28 ar
    30   31   30 1
    31   32   30 ar
    32   33   32 1
    33   34   32 ar
    34   35   34 1
    35   36    8 1
    36   37   26 1
    37   38   37 ar
    38   39   38 ar
    39   40   39 1
    40   41   39 ar
    41   42   41 ar
    42   43   42 1
    43   44   37 ar
    44   45   44 1
    45   46   50 2
    46   47   50 2
    47   48   51 2
    48   49   51 2
    49   50   83 1
    50   51   86 1
    51   52   53 ar
    52   53   54 ar
    53   54   55 1
    54   56   54 ar
    55   57   56 1
    56   58   56 ar
    57   59   58 1
    58   60   52 ar
    59   61   60 1
    60   62   61 ar
    61   63   62 1
    62   64   62 ar
    63   65   64 1
    64   66   64 ar
    65   67   66 1
    66   68   66 ar
    67   69   68 1
    68   70   61 ar
    69   71   52 1
    70   72   71 1
    71   73   72 ar
    72   74   73 1
    73   75   73 ar
    74   76   75 1
    75   77   75 ar
    76   78   77 1
    77   79   77 ar
    78   80   79 1
    79   81   53 1
    80   82   71 1
    81   83   82 ar
    82   84   83 ar
    83   85   84 1
    84   86   84 ar
    85   87   86 ar
    86   88   87 1
    87   89   82 ar
    88   90   89 1
    89   13   15 ar
    90   23   25 ar
    91   25   26 1
    92   27   36 ar
    93   34   36 ar
    94   42   44 ar
    95   58   60 ar
    96   68   70 ar
    97   70   71 1
    98   72   81 ar
    99   79   81 ar
   100   87   89 ar
@<TRIPOS>SUBSTRUCTURE
     1 RES1 1
     2 RES2 46

@<TRIPOS>CRYSIN
  15.3720   15.4140   17.0040  90.0000 109.2400  90.0000  14 1

