# MOL2 file generated by ConQuest
# Please check atom types

@<TRIPOS>MOLECULE
RALPAW01
    48    50     1
SMALL
NO_CHARGES
****
Generated from CSD

@<TRIPOS>ATOM
      1 O1        -0.5776   13.0364    9.8577 O.2       1 RES1    0.0000
      2 N1         1.1416   10.3445    5.9839 N.2       1 RES1    0.0000
      3 N2         3.8993    9.4494    6.1533 N.2       1 RES1    0.0000
      4 N3        -0.7927   13.9950    9.1390 N.pl3     1 RES1    0.0000
      5 O2         7.5131   12.4328    4.3925 O.2       1 RES1    0.0000
      6 N4         7.8696   12.7291    5.5277 N.pl3     1 RES1    0.0000
      7 O3         8.8195   13.4690    5.7318 O.2       1 RES1    0.0000
      8 C1         0.5903   12.6752    5.9343 C.ar      1 RES1    0.0000
      9 C2         0.1769   12.7592    7.2559 C.ar      1 RES1    0.0000
     10 H1         0.2317   12.0145    7.8109 H         1 RES1    0.0000
     11 C3         1.1155   11.4299    5.3460 C.2       1 RES1    0.0000
     12 H2         1.4376   11.4457    4.4738 H         1 RES1    0.0000
     13 C4         6.1663   11.2302    6.4222 C.ar      1 RES1    0.0000
     14 H3         5.9943   10.9371    5.5548 H         1 RES1    0.0000
     15 C5        -0.3088   13.9332    7.7343 C.ar      1 RES1    0.0000
     16 C6         1.6292    9.1705    5.2790 C.3       1 RES1    0.0000
     17 H4         1.9724    9.4446    4.4037 H         1 RES1    0.0000
     18 C7         5.4459   10.7058    7.5031 C.ar      1 RES1    0.0000
     19 C8         2.7604    8.5209    6.0778 C.3       1 RES1    0.0000
     20 H5         2.4436    8.3260    6.9850 H         1 RES1    0.0000
     21 C9         7.1270   12.1729    6.6533 C.ar      1 RES1    0.0000
     22 C10        0.4838   13.8286    5.1403 C.ar      1 RES1    0.0000
     23 H6         0.7605   13.7970    4.2538 H         1 RES1    0.0000
     24 C11        4.3375    9.7805    7.3007 C.2       1 RES1    0.0000
     25 H7         3.9269    9.4129    8.0500 H         1 RES1    0.0000
     26 O4        -1.3532   14.9900    9.5121 O.2       1 RES1    0.0000
     27 C12       -0.4404   15.0629    6.9467 C.ar      1 RES1    0.0000
     28 H8        -0.8029   15.8456    7.2943 H         1 RES1    0.0000
     29 C13        7.4067   12.6340    7.9304 C.ar      1 RES1    0.0000
     30 H9         8.0572   13.2852    8.0660 H         1 RES1    0.0000
     31 C14        5.7243   11.1558    8.7850 C.ar      1 RES1    0.0000
     32 H10        5.2472   10.8151    9.5073 H         1 RES1    0.0000
     33 C15        3.2107    7.2249    5.4161 C.3       1 RES1    0.0000
     34 H11        3.8970    6.8129    5.9630 H         1 RES1    0.0000
     35 H12        3.6002    7.4293    4.5520 H         1 RES1    0.0000
     36 C16       -0.0216   14.9995    5.6441 C.ar      1 RES1    0.0000
     37 H13       -0.0812   15.7521    5.1004 H         1 RES1    0.0000
     38 C17        0.4967    8.1787    5.0797 C.3       1 RES1    0.0000
     39 H14        0.0972    7.9759    5.9407 H         1 RES1    0.0000
     40 H15       -0.1854    8.5843    4.5233 H         1 RES1    0.0000
     41 C18        0.9589    6.8937    4.4356 C.3       1 RES1    0.0000
     42 H16        1.2761    7.0823    3.5379 H         1 RES1    0.0000
     43 H17        0.2105    6.2821    4.3654 H         1 RES1    0.0000
     44 C19        6.7024   12.1064    8.9987 C.ar      1 RES1    0.0000
     45 H18        6.8894   12.3932    9.8628 H         1 RES1    0.0000
     46 C20        2.0660    6.2378    5.2264 C.3       1 RES1    0.0000
     47 H19        2.3866    5.4519    4.7560 H         1 RES1    0.0000
     48 H20        1.7287    5.9558    6.0921 H         1 RES1    0.0000
@<TRIPOS>BOND
     1    1    4 2
     2    2   11 2
     3    3   19 1
     4    4   15 1
     5    5    6 2
     6    6    7 2
     7    8    9 ar
     8    9   10 1
     9   11    8 1
    10   12   11 1
    11   13   14 1
    12   15    9 ar
    13   16    2 1
    14   17   16 1
    15   18   13 ar
    16   19   16 1
    17   20   19 1
    18   21    6 1
    19   22    8 ar
    20   23   22 1
    21   24    3 2
    22   25   24 1
    23   26    4 2
    24   27   15 ar
    25   28   27 1
    26   29   21 ar
    27   30   29 1
    28   31   18 ar
    29   32   31 1
    30   33   19 1
    31   34   33 1
    32   35   33 1
    33   36   22 ar
    34   37   36 1
    35   38   16 1
    36   39   38 1
    37   40   38 1
    38   41   38 1
    39   42   41 1
    40   43   41 1
    41   44   29 ar
    42   45   44 1
    43   46   33 1
    44   47   46 1
    45   48   46 1
    46   13   21 ar
    47   18   24 1
    48   27   36 ar
    49   31   44 ar
    50   41   46 1
@<TRIPOS>SUBSTRUCTURE
     1 RES1 1

