# MOL2 file generated by ConQuest
# Please check atom types

@<TRIPOS>MOLECULE
RALSAB
    57    59     1
SMALL
NO_CHARGES
****
Generated from CSD

@<TRIPOS>ATOM
      1 O1        12.0668    1.5821    4.8455 O.3       1 RES1    0.0000
      2 O2        12.2026    3.9486    3.6783 O.2       1 RES1    0.0000
      3 O3        10.7018    0.3241    1.9080 O.2       1 RES1    0.0000
      4 N1        11.3381    0.9528    5.9441 N.3       1 RES1    0.0000
      5 C1        11.2133    1.7797    3.7152 C.3       1 RES1    0.0000
      6 C2        11.3014    3.2477    3.2609 C.2       1 RES1    0.0000
      7 C3        10.3097    3.7797    2.2813 C.ar      1 RES1    0.0000
      8 C4         9.1458    3.1037    1.9283 C.ar      1 RES1    0.0000
      9 C5         8.2650    3.6786    1.0179 C.ar      1 RES1    0.0000
     10 C6         8.5421    4.9116    0.4619 C.ar      1 RES1    0.0000
     11 C7         9.6864    5.5863    0.8116 C.ar      1 RES1    0.0000
     12 C8        10.5655    5.0279    1.7252 C.ar      1 RES1    0.0000
     13 C9        11.5956    0.8664    2.5328 C.2       1 RES1    0.0000
     14 C10       13.0335    0.7019    2.1482 C.ar      1 RES1    0.0000
     15 C11       13.3292   -0.1815    1.1039 C.ar      1 RES1    0.0000
     16 C12       14.6455   -0.3340    0.6808 C.ar      1 RES1    0.0000
     17 C13       15.6640    0.3893    1.2741 C.ar      1 RES1    0.0000
     18 C14       15.3786    1.2661    2.3051 C.ar      1 RES1    0.0000
     19 C15       14.0688    1.4236    2.7415 C.ar      1 RES1    0.0000
     20 C16       11.2330    1.9663    7.0345 C.3       1 RES1    0.0000
     21 C17       10.5756    1.2652    8.2281 C.3       1 RES1    0.0000
     22 C18       11.2656   -0.0107    8.6387 C.3       1 RES1    0.0000
     23 C19       11.3296   -0.9403    7.4551 C.3       1 RES1    0.0000
     24 C20       12.0338   -0.3373    6.2257 C.3       1 RES1    0.0000
     25 C21       10.2782    3.0550    6.5345 C.3       1 RES1    0.0000
     26 C22       12.5595    2.6311    7.4456 C.3       1 RES1    0.0000
     27 C23       13.5593   -0.2367    6.4510 C.3       1 RES1    0.0000
     28 C24       11.7914   -1.2504    5.0313 C.3       1 RES1    0.0000
     29 H1        10.2797    1.5836    3.9813 H         1 RES1    0.0000
     30 H2         8.9570    2.2632    2.3037 H         1 RES1    0.0000
     31 H3         7.4790    3.2249    0.7805 H         1 RES1    0.0000
     32 H4         7.9460    5.2902   -0.1580 H         1 RES1    0.0000
     33 H5         9.8721    6.4259    0.4315 H         1 RES1    0.0000
     34 H6        11.3428    5.4964    1.9712 H         1 RES1    0.0000
     35 H7        12.6410   -0.6689    0.6897 H         1 RES1    0.0000
     36 H8        14.8449   -0.9345   -0.0141 H         1 RES1    0.0000
     37 H9        16.5492    0.2854    0.9762 H         1 RES1    0.0000
     38 H10       16.0697    1.7552    2.7104 H         1 RES1    0.0000
     39 H11       13.8790    2.0216    3.4414 H         1 RES1    0.0000
     40 H12       10.5686    1.8805    8.9907 H         1 RES1    0.0000
     41 H13        9.6440    1.0623    8.0016 H         1 RES1    0.0000
     42 H14       12.1725    0.1881    8.9554 H         1 RES1    0.0000
     43 H15       10.7700   -0.4363    9.3692 H         1 RES1    0.0000
     44 H16       10.4177   -1.1935    7.2034 H         1 RES1    0.0000
     45 H17       11.8021   -1.7568    7.7210 H         1 RES1    0.0000
     46 H18        9.4117    2.6624    6.3416 H         1 RES1    0.0000
     47 H19       10.6375    3.4559    5.7274 H         1 RES1    0.0000
     48 H20       10.1801    3.7371    7.2176 H         1 RES1    0.0000
     49 H21       12.9416    3.0905    6.6811 H         1 RES1    0.0000
     50 H22       13.1786    1.9523    7.7575 H         1 RES1    0.0000
     51 H23       12.3950    3.2695    8.1572 H         1 RES1    0.0000
     52 H24       13.7339    0.1056    7.3425 H         1 RES1    0.0000
     53 H25       13.9439    0.3646    5.7934 H         1 RES1    0.0000
     54 H26       13.9582   -1.1159    6.3581 H         1 RES1    0.0000
     55 H27       12.1495   -0.8372    4.2301 H         1 RES1    0.0000
     56 H28       10.8382   -1.3931    4.9221 H         1 RES1    0.0000
     57 H29       12.2300   -2.1016    5.1803 H         1 RES1    0.0000
@<TRIPOS>BOND
     1    1    4 1
     2    2    6 2
     3    3   13 2
     4    4   20 1
     5    5    1 1
     6    6    5 1
     7    7    6 1
     8    8    7 ar
     9    9    8 ar
    10   10    9 ar
    11   11   10 ar
    12   12    7 ar
    13   13    5 1
    14   14   13 1
    15   15   14 ar
    16   16   15 ar
    17   17   16 ar
    18   18   17 ar
    19   19   14 ar
    20   20   21 1
    21   21   22 1
    22   22   23 1
    23   23   24 1
    24   24    4 1
    25   25   20 1
    26   26   20 1
    27   27   24 1
    28   28   24 1
    29   29    5 1
    30   30    8 1
    31   31    9 1
    32   32   10 1
    33   33   11 1
    34   34   12 1
    35   35   15 1
    36   36   16 1
    37   37   17 1
    38   38   18 1
    39   39   19 1
    40   40   21 1
    41   41   21 1
    42   42   22 1
    43   43   22 1
    44   44   23 1
    45   45   23 1
    46   46   25 1
    47   47   25 1
    48   48   25 1
    49   49   26 1
    50   50   26 1
    51   51   26 1
    52   52   27 1
    53   53   27 1
    54   54   27 1
    55   55   28 1
    56   56   28 1
    57   57   28 1
    58   11   12 ar
    59   18   19 ar
@<TRIPOS>SUBSTRUCTURE
     1 RES1 1

@<TRIPOS>CRYSIN
  21.7890    8.2479   21.5880  90.0000  33.1010  90.0000  14 1

