# MOL2 file generated by ConQuest
# Please check atom types

@<TRIPOS>MOLECULE
RAMKIZ01
    64    66     1
SMALL
NO_CHARGES
****
Generated from CSD

@<TRIPOS>ATOM
      1 O1         4.3247    4.4050   11.0157 O.2       1 RES1    0.0000
      2 O2         3.8453    2.4515   11.8472 O.2       1 RES1    0.0000
      3 N1         4.1418    3.1924   10.9007 N.pl3     1 RES1    0.0000
      4 C1         4.3006    2.5646    9.5740 C.ar      1 RES1    0.0000
      5 C2         4.6817    3.3708    8.5225 C.ar      1 RES1    0.0000
      6 H1         4.8402    4.2998    8.6474 H         1 RES1    0.0000
      7 C3         4.8267    2.7824    7.2738 C.ar      1 RES1    0.0000
      8 H2         5.0832    3.3152    6.5302 H         1 RES1    0.0000
      9 C4         4.6024    1.4294    7.0992 C.ar      1 RES1    0.0000
     10 C5         4.2105    0.6348    8.1862 C.ar      1 RES1    0.0000
     11 H3         4.0459   -0.2942    8.0741 H         1 RES1    0.0000
     12 C6         4.0701    1.2348    9.4278 C.ar      1 RES1    0.0000
     13 H4         3.8119    0.7135   10.1785 H         1 RES1    0.0000
     14 N2         4.7719    0.9529    5.7682 N.2       1 RES1    0.0000
     15 N3         4.5672   -0.2979    5.6646 N.2       1 RES1    0.0000
     16 C7         4.7411   -0.8039    4.3691 C.ar      1 RES1    0.0000
     17 C8         4.6557   -2.1707    4.2371 C.ar      1 RES1    0.0000
     18 H5         4.4259   -2.6943    4.9963 H         1 RES1    0.0000
     19 C9         4.8951   -2.8032    3.0352 C.ar      1 RES1    0.0000
     20 H6         4.8408   -3.7507    2.9799 H         1 RES1    0.0000
     21 C10        5.2180   -2.0572    1.8901 C.ar      1 RES1    0.0000
     22 C11        5.1578   -0.6498    2.0107 C.ar      1 RES1    0.0000
     23 C12        4.9569   -0.0278    3.2112 C.ar      1 RES1    0.0000
     24 H7         4.9638    0.9220    3.2651 H         1 RES1    0.0000
     25 O3         5.2890    0.0514    0.8244 O.3       1 RES1    0.0000
     26 C13        4.6771    1.3550    0.7804 C.3       1 RES1    0.0000
     27 H8         4.6635    1.6773   -0.1447 H         1 RES1    0.0000
     28 H9         5.1928    1.9761    1.3353 H         1 RES1    0.0000
     29 H10        3.7599    1.2974    1.1196 H         1 RES1    0.0000
     30 N4         5.5200   -2.6612    0.6683 N.3       1 RES1    0.0000
     31 C14        6.6280   -2.1453   -0.1518 C.3       1 RES1    0.0000
     32 H11        7.3120   -2.8542   -0.2469 H         1 RES1    0.0000
     33 H12        7.0488   -1.3854    0.3235 H         1 RES1    0.0000
     34 C15        6.2110   -1.6840   -1.5325 C.3       1 RES1    0.0000
     35 H13        5.5884   -0.9174   -1.4587 H         1 RES1    0.0000
     36 H14        7.0056   -1.3923   -2.0462 H         1 RES1    0.0000
     37 O4         5.5720   -2.7647   -2.1994 O.3       1 RES1    0.0000
     38 C16        5.1803   -2.4511   -3.5248 C.3       1 RES1    0.0000
     39 H15        5.9813   -2.3213   -4.0938 H         1 RES1    0.0000
     40 H16        4.6508   -1.6147   -3.5333 H         1 RES1    0.0000
     41 C17        4.3500   -3.5955   -4.0569 C.3       1 RES1    0.0000
     42 H17        4.1853   -3.4751   -5.0261 H         1 RES1    0.0000
     43 H18        4.8302   -4.4527   -3.9278 H         1 RES1    0.0000
     44 O5         3.1139   -3.6191   -3.3517 O.3       1 RES1    0.0000
     45 C18        2.3703   -4.7863   -3.6440 C.3       1 RES1    0.0000
     46 H19        2.9048   -5.5902   -3.4240 H         1 RES1    0.0000
     47 H20        2.1526   -4.8118   -4.6103 H         1 RES1    0.0000
     48 C19        1.1022   -4.7770   -2.8337 C.3       1 RES1    0.0000
     49 H21        0.6053   -3.9407   -3.0239 H         1 RES1    0.0000
     50 H22        0.5346   -5.5369   -3.1161 H         1 RES1    0.0000
     51 O6         1.3381   -4.8683   -1.4218 O.3       1 RES1    0.0000
     52 O7         3.5961   -5.7829    0.3647 O.3       1 RES1    0.0000
     53 C20        1.5940   -6.1972   -0.9890 C.3       1 RES1    0.0000
     54 H23        2.1990   -6.6466   -1.6318 H         1 RES1    0.0000
     55 H24        0.7454   -6.7068   -0.9592 H         1 RES1    0.0000
     56 C21        2.2262   -6.1879    0.3789 C.3       1 RES1    0.0000
     57 H25        1.7166   -5.5717    0.9635 H         1 RES1    0.0000
     58 H26        2.1637   -7.0961    0.7677 H         1 RES1    0.0000
     59 C22        3.8012   -4.3737    0.3420 C.3       1 RES1    0.0000
     60 H27        3.2943   -3.9453    1.0770 H         1 RES1    0.0000
     61 H28        3.4804   -3.9986   -0.5165 H         1 RES1    0.0000
     62 C23        5.2683   -4.1036    0.5037 C.3       1 RES1    0.0000
     63 H29        5.6077   -4.5894    1.2970 H         1 RES1    0.0000
     64 H30        5.7548   -4.4365   -0.2909 H         1 RES1    0.0000
@<TRIPOS>BOND
     1    1    3 2
     2    2    3 2
     3    3    4 1
     4    4    5 ar
     5    5    6 1
     6    7    5 ar
     7    8    7 1
     8    9    7 ar
     9   10    9 ar
    10   11   10 1
    11   12    4 ar
    12   13   12 1
    13   14    9 1
    14   15   14 2
    15   16   15 1
    16   17   16 ar
    17   18   17 1
    18   19   17 ar
    19   20   19 1
    20   21   19 ar
    21   22   21 ar
    22   23   16 ar
    23   24   23 1
    24   25   22 1
    25   26   25 1
    26   27   26 1
    27   28   26 1
    28   29   26 1
    29   30   21 1
    30   31   30 1
    31   32   31 1
    32   33   31 1
    33   34   31 1
    34   35   34 1
    35   36   34 1
    36   37   34 1
    37   38   37 1
    38   39   38 1
    39   40   38 1
    40   41   38 1
    41   42   41 1
    42   43   41 1
    43   44   41 1
    44   45   44 1
    45   46   45 1
    46   47   45 1
    47   48   45 1
    48   49   48 1
    49   50   48 1
    50   51   48 1
    51   52   56 1
    52   53   51 1
    53   54   53 1
    54   55   53 1
    55   56   53 1
    56   57   56 1
    57   58   56 1
    58   59   52 1
    59   60   59 1
    60   61   59 1
    61   62   30 1
    62   63   62 1
    63   64   62 1
    64   10   12 ar
    65   22   23 ar
    66   59   62 1
@<TRIPOS>SUBSTRUCTURE
     1 RES1 1

@<TRIPOS>CRYSIN
   7.2110   23.1670   14.3290  90.0000  97.9880  90.0000 231 1

