# MOL2 file generated by ConQuest
# Please check atom types

@<TRIPOS>MOLECULE
RAMVUW
    10    10     1
SMALL
NO_CHARGES
****
Generated from CSD

@<TRIPOS>ATOM
      1 N1         1.6740    1.2434    4.9823 N.3       1 RES1    0.0000
      2 N2         2.3789    0.9406    3.8775 N.2       1 RES1    0.0000
      3 N3         2.1081    1.8507    2.9859 N.2       1 RES1    0.0000
      4 C1         1.2339    2.7041    3.5388 C.2       1 RES1    0.0000
      5 C2         0.9431    2.3333    4.8179 C.2       1 RES1    0.0000
      6 N4         0.7223    3.8204    2.8179 N.pl3     1 RES1    0.0000
      7 O1         1.1099    3.9943    1.6749 O.2       1 RES1    0.0000
      8 O2        -0.0867    4.5326    3.3960 O.2       1 RES1    0.0000
      9 H1         1.7492    0.7497    5.6381 H         1 RES1    0.0000
     10 H2         0.4289    2.7000    5.4892 H         1 RES1    0.0000
@<TRIPOS>BOND
     1    1    2 1
     2    2    3 2
     3    3    4 1
     4    4    5 2
     5    5    1 1
     6    6    4 1
     7    7    6 2
     8    8    6 2
     9    9    1 1
    10   10    5 1
@<TRIPOS>SUBSTRUCTURE
     1 RES1 1

@<TRIPOS>CRYSIN
   7.7164    5.8568   10.1259  90.0000 101.3990  90.0000  14 1

