# MOL2 file generated by ConQuest
# Please check atom types

@<TRIPOS>MOLECULE
RANZEM
    42    42     2
SMALL
NO_CHARGES
****
Generated from CSD

@<TRIPOS>ATOM
      1 N1         2.9467    4.2377   14.5541 N.pl3     1 RES1    0.0000
      2 C1         1.7769    3.3416   14.4721 C.3       1 RES1    0.0000
      3 H1         1.0470    3.8640   14.1355 H         1 RES1    0.0000
      4 H2         2.0292    2.6217   13.8277 H         1 RES1    0.0000
      5 C2         1.4844    2.7491   15.8216 C.2       1 RES1    0.0000
      6 H3         1.0760    3.3048   16.4284 H         1 RES1    0.0000
      7 C3         1.7539    1.5071   16.1327 C.2       1 RES1    0.0000
      8 H4         1.5727    1.1215   17.0288 H         1 RES1    0.0000
      9 H5         2.1436    0.8857   15.4868 H         1 RES1    0.0000
     10 C4         2.9451    5.5780   14.8948 C.2       1 RES1    0.0000
     11 C5         1.7008    6.3744   15.0637 C.3       1 RES1    0.0000
     12 H6         1.2101    6.4558   14.2074 H         1 RES1    0.0000
     13 H7         1.9122    7.2939   15.3714 H         1 RES1    0.0000
     14 H8         1.0116    5.9609   15.6541 H         1 RES1    0.0000
     15 N2         4.1744    6.0318   15.0456 N.2       1 RES1    0.0000
     16 C6         4.9658    4.9387   14.8168 C.2       1 RES1    0.0000
     17 N3         6.3872    5.0132   14.9523 N.pl3     1 RES1    0.0000
     18 O1         7.0405    3.9912   14.6973 O.2       1 RES1    0.0000
     19 O2         6.8916    6.0737   15.3219 O.2       1 RES1    0.0000
     20 C7         4.2458    3.8219   14.5108 C.2       1 RES1    0.0000
     21 H9         4.5235    2.9140   14.2810 H         1 RES1    0.0000
     22 N4         4.3841    4.1995   11.1992 N.pl3     2 RES2    0.0000
     23 C8         3.1972    3.4236   10.7901 C.3       2 RES2    0.0000
     24 H10        2.4482    3.7743   11.2923 H         2 RES2    0.0000
     25 H11        3.3950    2.4778   11.0599 H         2 RES2    0.0000
     26 C9         2.9922    3.5169    9.3058 C.2       2 RES2    0.0000
     27 H12        3.7843    3.2329    8.7519 H         2 RES2    0.0000
     28 C10        1.8937    3.9733    8.7531 C.2       2 RES2    0.0000
     29 H13        1.1359    4.2703    9.2938 H         2 RES2    0.0000
     30 H14        1.8091    4.0300    7.7819 H         2 RES2    0.0000
     31 C11        4.4277    5.5578   11.4512 C.2       2 RES2    0.0000
     32 C12        3.2241    6.4239   11.4019 C.3       2 RES2    0.0000
     33 H15        2.8873    6.5178   10.4762 H         2 RES2    0.0000
     34 H16        3.4637    7.3116   11.6954 H         2 RES2    0.0000
     35 H17        2.4861    6.0506   11.9345 H         2 RES2    0.0000
     36 N5         5.6563    5.9568   11.7235 N.2       2 RES2    0.0000
     37 C13        6.4002    4.8096   11.6260 C.2       2 RES2    0.0000
     38 N6         7.8048    4.8031   11.8785 N.pl3     2 RES2    0.0000
     39 O3         8.4116    3.7361   11.7056 O.2       2 RES2    0.0000
     40 O4         8.3484    5.8462   12.2530 O.2       2 RES2    0.0000
     41 C14        5.6489    3.7152   11.3030 C.2       2 RES2    0.0000
     42 H18        5.9044    2.8000   11.1452 H         2 RES2    0.0000
@<TRIPOS>BOND
     1    1    2 1
     2    2    3 1
     3    4    2 1
     4    5    2 1
     5    6    5 1
     6    7    5 2
     7    8    7 1
     8    9    7 1
     9   10    1 1
    10   11   10 1
    11   12   11 1
    12   13   11 1
    13   14   11 1
    14   15   10 2
    15   16   15 1
    16   17   16 1
    17   18   17 2
    18   19   17 2
    19   20    1 1
    20   21   20 1
    21   22   23 1
    22   23   24 1
    23   25   23 1
    24   26   23 1
    25   27   26 1
    26   28   26 2
    27   29   28 1
    28   30   28 1
    29   31   22 1
    30   32   31 1
    31   33   32 1
    32   34   32 1
    33   35   32 1
    34   36   31 2
    35   37   36 1
    36   38   37 1
    37   39   38 2
    38   40   38 2
    39   41   22 1
    40   42   41 1
    41   16   20 2
    42   37   41 2
@<TRIPOS>SUBSTRUCTURE
     1 RES1 1
     2 RES2 22

@<TRIPOS>CRYSIN
   8.6150   11.0715   16.7959  90.0000  95.2880  90.0000 231 1

