# MOL2 file generated by ConQuest
# Please check atom types

@<TRIPOS>MOLECULE
RAPDOD
    22    23     1
SMALL
NO_CHARGES
****
Generated from CSD

@<TRIPOS>ATOM
      1 N1        -0.8868    1.4411    9.5654 N.ar      1 RES1    0.0000
      2 C1         0.3867    1.8388    9.4962 C.ar      1 RES1    0.0000
      3 C2         0.7995    2.6635    8.4532 C.ar      1 RES1    0.0000
      4 C3        -0.0791    3.0742    7.4719 C.ar      1 RES1    0.0000
      5 H1         0.2150    3.6104    6.7444 H         1 RES1    0.0000
      6 C4        -1.3907    2.6849    7.5790 C.ar      1 RES1    0.0000
      7 H2        -2.0356    2.9621    6.9393 H         1 RES1    0.0000
      8 C5        -1.7482    1.8786    8.6433 C.ar      1 RES1    0.0000
      9 H3        -2.6589    1.6217    8.7237 H         1 RES1    0.0000
     10 N2         2.1677    3.1872    8.3594 N.pl3     1 RES1    0.0000
     11 O1         2.8149    2.8907    7.3604 O.2       1 RES1    0.0000
     12 O2         2.5544    3.9301    9.2490 O.2       1 RES1    0.0000
     13 N3         2.5970    1.1807   10.2065 N.ar      1 RES1    0.0000
     14 C6         1.3078    1.3241   10.5489 C.ar      1 RES1    0.0000
     15 C7         0.8144    1.0061   11.8086 C.ar      1 RES1    0.0000
     16 H4        -0.1045    1.1314   12.0143 H         1 RES1    0.0000
     17 C8         1.6885    0.5046   12.7561 C.ar      1 RES1    0.0000
     18 H5         1.3780    0.2579   13.6191 H         1 RES1    0.0000
     19 C9         3.0239    0.3710   12.4224 C.ar      1 RES1    0.0000
     20 H6         3.6510    0.0438   13.0568 H         1 RES1    0.0000
     21 C10        3.4285    0.7207   11.1502 C.ar      1 RES1    0.0000
     22 H7         4.3482    0.6299   10.9307 H         1 RES1    0.0000
@<TRIPOS>BOND
     1    1    2 ar
     2    2    3 ar
     3    3    4 ar
     4    4    5 1
     5    6    4 ar
     6    7    6 1
     7    8    1 ar
     8    9    8 1
     9   10    3 1
    10   11   10 2
    11   12   10 2
    12   13   14 ar
    13   14    2 1
    14   15   14 ar
    15   16   15 1
    16   17   15 ar
    17   18   17 1
    18   19   17 ar
    19   20   19 1
    20   21   13 ar
    21   22   21 1
    22    6    8 ar
    23   19   21 ar
@<TRIPOS>SUBSTRUCTURE
     1 RES1 1

@<TRIPOS>CRYSIN
   7.4647   10.1931   11.7396  90.0000  90.0000  90.0000  19 1

