# MOL2 file generated by ConQuest
# Please check atom types

@<TRIPOS>MOLECULE
RAPFIY01
    22    22     1
SMALL
NO_CHARGES
****
Generated from CSD

@<TRIPOS>ATOM
      1 O1        -1.6731   12.5471    1.9476 O.2       1 RES1    0.0000
      2 O2        -0.9559   10.6120    2.8545 O.3       1 RES1    0.0000
      3 O3         2.4042   10.5229    6.2542 O.2       1 RES1    0.0000
      4 O4         3.2473   12.3497    7.0393 O.2       1 RES1    0.0000
      5 O5         1.7562   16.6056    5.3198 O.2       1 RES1    0.0000
      6 O6         0.1343   16.6719    3.8838 O.2       1 RES1    0.0000
      7 N1         2.4779   11.7358    6.3016 N.pl3     1 RES1    0.0000
      8 N2         0.9325   16.0695    4.5929 N.pl3     1 RES1    0.0000
      9 C1        -0.0379   12.5859    3.6827 C.ar      1 RES1    0.0000
     10 C2         0.7644   11.8413    4.5519 C.ar      1 RES1    0.0000
     11 C3         1.6149   12.5216    5.4020 C.ar      1 RES1    0.0000
     12 C4         1.7069   13.9055    5.4402 C.ar      1 RES1    0.0000
     13 C5         0.8821   14.5966    4.5721 C.ar      1 RES1    0.0000
     14 C6         0.0211   13.9769    3.6933 C.ar      1 RES1    0.0000
     15 C7        -0.9756   11.9269    2.7233 C.2       1 RES1    0.0000
     16 C8        -1.8348    9.8423    1.9761 C.3       1 RES1    0.0000
     17 H1         0.7260   10.8916    4.5583 H         1 RES1    0.0000
     18 H2         2.3032   14.3524    6.0292 H         1 RES1    0.0000
     19 H3        -0.5215   14.4891    3.1054 H         1 RES1    0.0000
     20 H4        -2.7653   10.1088    2.1311 H         1 RES1    0.0000
     21 H5        -1.7322    8.8860    2.1672 H         1 RES1    0.0000
     22 H6        -1.5965   10.0152    1.0422 H         1 RES1    0.0000
@<TRIPOS>BOND
     1    1   15 2
     2    2   15 1
     3    3    7 2
     4    4    7 2
     5    5    8 2
     6    6    8 2
     7    7   11 1
     8    8   13 1
     9    9   10 ar
    10   10   11 ar
    11   11   12 ar
    12   12   13 ar
    13   13   14 ar
    14   14    9 ar
    15   15    9 1
    16   16    2 1
    17   17   10 1
    18   18   12 1
    19   19   14 1
    20   20   16 1
    21   21   16 1
    22   22   16 1
@<TRIPOS>SUBSTRUCTURE
     1 RES1 1

@<TRIPOS>CRYSIN
   4.5664   18.7270   10.8416  90.0000 101.7870  90.0000 231 1

