# MOL2 file generated by ConQuest
# Please check atom types

@<TRIPOS>MOLECULE
RAPLAY
    34    36     1
SMALL
NO_CHARGES
****
Generated from CSD

@<TRIPOS>ATOM
      1 C1         2.9879    4.0587    8.8371 C.ar      1 RES1    0.0000
      2 C2         2.8069    3.4066   10.0724 C.ar      1 RES1    0.0000
      3 C3         2.9297    2.0318   10.1806 C.ar      1 RES1    0.0000
      4 H1         2.8073    1.6203   11.0059 H         1 RES1    0.0000
      5 C4         3.2288    1.2744    9.0832 C.ar      1 RES1    0.0000
      6 H2         3.3045    0.3508    9.1601 H         1 RES1    0.0000
      7 C5         3.4177    1.8880    7.8569 C.ar      1 RES1    0.0000
      8 C6         3.2871    3.2566    7.7435 C.ar      1 RES1    0.0000
      9 H3         3.4028    3.6533    6.9100 H         1 RES1    0.0000
     10 C7         2.8769    5.5091    8.5868 C.2       1 RES1    0.0000
     11 H4         2.6955    6.0534    9.3199 H         1 RES1    0.0000
     12 C8         2.9128    7.4158    7.3311 C.ar      1 RES1    0.0000
     13 C9         3.0267    7.8484    5.9817 C.ar      1 RES1    0.0000
     14 C10        3.2074    6.9509    4.9105 C.ar      1 RES1    0.0000
     15 H5         3.2673    6.0385    5.0795 H         1 RES1    0.0000
     16 C11        3.2959    7.4071    3.6317 C.ar      1 RES1    0.0000
     17 H6         3.4052    6.8046    2.9324 H         1 RES1    0.0000
     18 C12        3.2241    8.7807    3.3597 C.ar      1 RES1    0.0000
     19 H7         3.2780    9.0819    2.4821 H         1 RES1    0.0000
     20 C13        3.0749    9.6707    4.3679 C.ar      1 RES1    0.0000
     21 H8         3.0478   10.5794    4.1743 H         1 RES1    0.0000
     22 C14        2.9604    9.2443    5.7081 C.ar      1 RES1    0.0000
     23 C15        2.7848   10.1480    6.7748 C.ar      1 RES1    0.0000
     24 H9         2.7414   11.0604    6.5995 H         1 RES1    0.0000
     25 C16        2.6795    9.7092    8.0473 C.ar      1 RES1    0.0000
     26 H10        2.5611   10.3203    8.7389 H         1 RES1    0.0000
     27 C17        2.7475    8.3393    8.3332 C.ar      1 RES1    0.0000
     28 H11        2.6802    8.0517    9.2138 H         1 RES1    0.0000
     29 N1         2.5053    4.1517   11.2770 N.pl3     1 RES1    0.0000
     30 N2         2.9956    6.0281    7.5630 N.2       1 RES1    0.0000
     31 O1         3.7272    1.1005    6.8006 O.3       1 RES1    0.0000
     32 H12        3.8137    1.5645    6.1308 H         1 RES1    0.0000
     33 O2         2.2623    3.5232   12.3078 O.2       1 RES1    0.0000
     34 O3         2.5035    5.3641   11.2647 O.2       1 RES1    0.0000
@<TRIPOS>BOND
     1    1    2 ar
     2    2    3 ar
     3    3    4 1
     4    5    3 ar
     5    6    5 1
     6    7    5 ar
     7    8    1 ar
     8    9    8 1
     9   10    1 1
    10   11   10 1
    11   12   13 ar
    12   13   14 ar
    13   14   15 1
    14   16   14 ar
    15   17   16 1
    16   18   16 ar
    17   19   18 1
    18   20   18 ar
    19   21   20 1
    20   22   13 ar
    21   23   22 ar
    22   24   23 1
    23   25   23 ar
    24   26   25 1
    25   27   12 ar
    26   28   27 1
    27   29    2 1
    28   30   10 2
    29   31    7 1
    30   32   31 1
    31   33   29 2
    32   34   29 2
    33    7    8 ar
    34   12   30 1
    35   20   22 ar
    36   25   27 ar
@<TRIPOS>SUBSTRUCTURE
     1 RES1 1

@<TRIPOS>CRYSIN
   7.2641   12.3968   16.1786  90.0000 108.2000  90.0000  14 1

