# MOL2 file generated by ConQuest
# Please check atom types

@<TRIPOS>MOLECULE
RAPMOL
    42    45     1
SMALL
NO_CHARGES
****
Generated from CSD

@<TRIPOS>ATOM
      1 O1         6.5831    9.0899    7.9503 O.2       1 RES1    0.0000
      2 O2        -1.3552    6.9259   13.1614 O.2       1 RES1    0.0000
      3 O3         0.2999    5.9883   14.1501 O.2       1 RES1    0.0000
      4 N1         5.3504    7.4938    6.9436 N.am      1 RES1    0.0000
      5 N2         3.8588    5.7683    6.0870 N.pl3     1 RES1    0.0000
      6 N3         2.5732    5.3190    6.3094 N.2       1 RES1    0.0000
      7 N4        -0.1841    6.6276   13.2272 N.pl3     1 RES1    0.0000
      8 C1         4.1674    6.7662    6.9425 C.2       1 RES1    0.0000
      9 C2         3.1025    6.9862    7.7647 C.2       1 RES1    0.0000
     10 C3         3.1537    8.0888    8.7918 C.3       1 RES1    0.0000
     11 H1         2.7812    8.9186    8.3751 H         1 RES1    0.0000
     12 C4         4.6340    8.3483    9.1290 C.3       1 RES1    0.0000
     13 H2         4.6982    9.2169    9.5990 H         1 RES1    0.0000
     14 H3         4.9366    7.6484    9.7603 H         1 RES1    0.0000
     15 C5         5.5878    8.3721    7.9535 C.2       1 RES1    0.0000
     16 C6         2.1297    6.0542    7.3321 C.2       1 RES1    0.0000
     17 C7         4.6712    5.1786    5.0656 C.ar      1 RES1    0.0000
     18 C8         5.9558    4.7777    5.3784 C.ar      1 RES1    0.0000
     19 H4         6.2723    4.8447    6.2717 H         1 RES1    0.0000
     20 C9         6.7811    4.2788    4.3827 C.ar      1 RES1    0.0000
     21 H5         7.6715    4.0186    4.5857 H         1 RES1    0.0000
     22 C10        6.3043    4.1629    3.1017 C.ar      1 RES1    0.0000
     23 H6         6.8704    3.8259    2.4170 H         1 RES1    0.0000
     24 C11        5.0135    4.5310    2.7989 C.ar      1 RES1    0.0000
     25 H7         4.6916    4.4325    1.9101 H         1 RES1    0.0000
     26 C12        4.1793    5.0447    3.7810 C.ar      1 RES1    0.0000
     27 H8         3.2878    5.2989    3.5743 H         1 RES1    0.0000
     28 C13        0.7700    5.7896    7.8867 C.3       1 RES1    0.0000
     29 H9         0.3524    5.0542    7.3919 H         1 RES1    0.0000
     30 H10        0.2193    6.5959    7.8003 H         1 RES1    0.0000
     31 H11        0.8448    5.5452    8.8334 H         1 RES1    0.0000
     32 C14        2.3244    7.7668   10.0286 C.ar      1 RES1    0.0000
     33 C15        1.1054    8.3959   10.2132 C.ar      1 RES1    0.0000
     34 H12        0.8383    9.0828    9.6131 H         1 RES1    0.0000
     35 C16        0.2697    8.0410   11.2582 C.ar      1 RES1    0.0000
     36 H13       -0.5728    8.4628   11.3746 H         1 RES1    0.0000
     37 C17        0.6958    7.0558   12.1266 C.ar      1 RES1    0.0000
     38 C18        1.9131    6.4361   11.9964 C.ar      1 RES1    0.0000
     39 H14        2.1937    5.7782   12.6215 H         1 RES1    0.0000
     40 C19        2.7208    6.7944   10.9332 C.ar      1 RES1    0.0000
     41 H15        3.5613    6.3664   10.8203 H         1 RES1    0.0000
     42 H16        5.9632    7.5193    6.2346 H         1 RES1    0.0000
@<TRIPOS>BOND
     1    1   15 2
     2    2    7 2
     3    3    7 2
     4    4    8 1
     5    5    6 1
     6    6   16 2
     7    7   37 1
     8    8    5 1
     9    9    8 2
    10   10    9 1
    11   11   10 1
    12   12   10 1
    13   13   12 1
    14   14   12 1
    15   15    4 1
    16   16    9 1
    17   17    5 1
    18   18   17 ar
    19   19   18 1
    20   20   18 ar
    21   21   20 1
    22   22   20 ar
    23   23   22 1
    24   24   22 ar
    25   25   24 1
    26   26   17 ar
    27   27   26 1
    28   28   16 1
    29   29   28 1
    30   30   28 1
    31   31   28 1
    32   32   10 1
    33   33   32 ar
    34   34   33 1
    35   35   33 ar
    36   36   35 1
    37   37   35 ar
    38   38   37 ar
    39   39   38 1
    40   40   32 ar
    41   41   40 1
    42   42    4 1
    43   12   15 1
    44   24   26 ar
    45   38   40 ar
@<TRIPOS>SUBSTRUCTURE
     1 RES1 1

@<TRIPOS>CRYSIN
   7.8460   16.7580   12.9400  90.0000  98.3740  90.0000  14 1

