# MOL2 file generated by ConQuest
# Please check atom types

@<TRIPOS>MOLECULE
RAQQAE
    21    22     1
SMALL
NO_CHARGES
****
Generated from CSD

@<TRIPOS>ATOM
      1 O1         1.6419    7.4662    8.8548 O.3       1 RES1    0.0000
      2 O2        -1.7121    4.7201   11.2357 O.2       1 RES1    0.0000
      3 N1         1.5433    7.9032   10.1867 N.2       1 RES1    0.0000
      4 N2        -0.0939    6.1336   10.3605 N.am      1 RES1    0.0000
      5 H1        -0.0659    5.8253    9.5580 H         1 RES1    0.0000
      6 C1         2.5624    8.3273    8.1766 C.3       1 RES1    0.0000
      7 H2         2.2725    9.2384    8.2639 H         1 RES1    0.0000
      8 H3         2.5964    8.0907    7.2468 H         1 RES1    0.0000
      9 H4         3.4357    8.2307    8.5637 H         1 RES1    0.0000
     10 C2         0.6813    7.1946   10.8170 C.2       1 RES1    0.0000
     11 C3         0.3369    7.3981   12.2304 C.ar      1 RES1    0.0000
     12 C4        -0.6202    6.4483   12.5675 C.ar      1 RES1    0.0000
     13 C5        -1.1478    6.3724   13.8456 C.ar      1 RES1    0.0000
     14 H5        -1.7884    5.7349   14.0647 H         1 RES1    0.0000
     15 C6        -0.6843    7.2862   14.7890 C.ar      1 RES1    0.0000
     16 H6        -1.0155    7.2581   15.6568 H         1 RES1    0.0000
     17 C7        -0.9113    5.6386   11.3524 C.2       1 RES1    0.0000
     18 C8         0.7955    8.3176   13.1657 C.ar      1 RES1    0.0000
     19 H7         1.4308    8.9593   12.9414 H         1 RES1    0.0000
     20 C9         0.2683    8.2410   14.4475 C.ar      1 RES1    0.0000
     21 H8         0.5590    8.8435   15.0932 H         1 RES1    0.0000
@<TRIPOS>BOND
     1    1    3 1
     2    2   17 2
     3    3   10 2
     4    4    5 1
     5    6    1 1
     6    7    6 1
     7    8    6 1
     8    9    6 1
     9   10    4 1
    10   11   10 1
    11   12   11 ar
    12   13   12 ar
    13   14   13 1
    14   15   13 ar
    15   16   15 1
    16   17    4 1
    17   18   11 ar
    18   19   18 1
    19   20   15 ar
    20   21   20 1
    21   12   17 1
    22   18   20 ar
@<TRIPOS>SUBSTRUCTURE
     1 RES1 1

@<TRIPOS>CRYSIN
   4.5290    9.7267   19.0996  90.0000  96.5320  90.0000  14 1

