# MOL2 file generated by ConQuest
# Please check atom types

@<TRIPOS>MOLECULE
RAQROR
    29    33     1
SMALL
USER_CHARGES
****
Generated from CSD

@<TRIPOS>ATOM
      1 O1        -1.4798    7.1643    5.7807 O.2       1 RES1   -1.0000
      2 O2        -2.3216    5.0751    6.3082 O.3       1 RES1    0.0000
      3 O3         3.8824    5.8894    9.1600 O.2       1 RES1   -1.0000
      4 O4         2.6587    7.3430    7.8346 O.3       1 RES1    0.0000
      5 O5        -1.8388    2.5060    9.4843 O.2       1 RES1    0.0000
      6 O6        -0.3881    3.3242   10.8365 O.2       1 RES1    0.0000
      7 N1        -1.3109    6.1270    6.4112 N.pl3     1 RES1    1.0000
      8 N2        -1.8994    4.0052    7.0638 N.2       1 RES1    0.0000
      9 N3         2.8230    6.0709    8.5659 N.pl3     1 RES1    1.0000
     10 N4         1.4249    7.3447    7.2483 N.2       1 RES1    0.0000
     11 N5        -0.8013    3.0852    9.7222 N.pl3     1 RES1    0.0000
     12 C1         0.0580    3.4494    8.4912 C.3       1 RES1    0.0000
     13 C2         1.4466    4.0290    8.9307 C.3       1 RES1    0.0000
     14 H1         1.4946    4.0517    9.8946 H         1 RES1    0.0000
     15 C3         1.7097    5.3890    8.3830 C.2       1 RES1    0.0000
     16 C4         0.8815    6.1987    7.5851 C.2       1 RES1    0.0000
     17 C5        -0.3826    5.6499    7.2153 C.2       1 RES1    0.0000
     18 C6        -0.7741    4.3518    7.6132 C.2       1 RES1    0.0000
     19 C7         0.4447    2.1131    7.7434 C.3       1 RES1    0.0000
     20 H2        -0.2774    1.8270    7.1673 H         1 RES1    0.0000
     21 C8         1.0330    1.1897    8.7880 C.2       1 RES1    0.0000
     22 H3         0.5450    0.4705    9.1265 H         1 RES1    0.0000
     23 C9         2.1948    1.6864    9.1483 C.2       1 RES1    0.0000
     24 H4         2.7806    1.3808    9.8458 H         1 RES1    0.0000
     25 C10        2.4354    2.9490    8.3581 C.3       1 RES1    0.0000
     26 H5         3.3310    3.2726    8.3732 H         1 RES1    0.0000
     27 C11        1.7255    2.5966    7.0495 C.3       1 RES1    0.0000
     28 H6         1.6065    3.3340    6.4385 H         1 RES1    0.0000
     29 H7         2.1335    1.8826    6.5532 H         1 RES1    0.0000
@<TRIPOS>BOND
     1    1    7 1
     2    2    7 1
     3    3    9 1
     4    4    9 1
     5    5   11 2
     6    6   11 2
     7    7   17 2
     8    8    2 1
     9    9   15 2
    10   10    4 1
    11   11   12 1
    12   12   13 1
    13   13   14 1
    14   15   13 1
    15   16   10 2
    16   17   16 1
    17   18    8 2
    18   19   12 1
    19   20   19 1
    20   21   19 1
    21   22   21 1
    22   23   21 2
    23   24   23 1
    24   25   13 1
    25   26   25 1
    26   27   19 1
    27   28   27 1
    28   29   27 1
    29   12   18 1
    30   15   16 1
    31   17   18 1
    32   23   25 1
    33   25   27 1
@<TRIPOS>SUBSTRUCTURE
     1 RES1 1

@<TRIPOS>CRYSIN
   7.3592    8.1394   11.1410 101.9600  98.0900 108.6000   2 1

