# MOL2 file generated by ConQuest
# Please check atom types

@<TRIPOS>MOLECULE
RAQRIL
    18    20     1
SMALL
USER_CHARGES
****
Generated from CSD

@<TRIPOS>ATOM
      1 N1         5.3739   12.6999    2.7893 N.pl3     1 RES1    1.0000
      2 O1         5.3988   11.9086    1.5668 O.3       1 RES1    0.0000
      3 N2         4.2447   11.1517    1.5232 N.2       1 RES1    0.0000
      4 C1         2.2978   10.9275    3.0822 C.2       1 RES1    0.0000
      5 C2         1.7943   11.2916    4.2677 C.2       1 RES1    0.0000
      6 H1         0.9918   10.9371    4.5756 H         1 RES1    0.0000
      7 C3         2.5184   12.2324    5.0394 C.2       1 RES1    0.0000
      8 C4         3.7377   12.8302    4.6451 C.2       1 RES1    0.0000
      9 C5         4.2405   12.4106    3.3843 C.2       1 RES1    0.0000
     10 C6         3.5650   11.4372    2.6041 C.2       1 RES1    0.0000
     11 N3         2.2354   12.6899    6.2469 N.pl3     1 RES1    1.0000
     12 O2         3.3160   13.6281    6.5912 O.3       1 RES1    0.0000
     13 N4         4.2128   13.6426    5.5454 N.2       1 RES1    0.0000
     14 O3         1.3636   12.5359    7.0816 O.2       1 RES1   -1.0000
     15 O4         6.3254   13.4395    3.0276 O.2       1 RES1   -1.0000
     16 N5         1.5841    9.9350    2.2878 N.pl3     1 RES1    0.0000
     17 O5         0.4737    9.6016    2.6769 O.2       1 RES1    0.0000
     18 O6         2.1224    9.4962    1.3121 O.2       1 RES1    0.0000
@<TRIPOS>BOND
     1    1    2 1
     2    2    3 1
     3    3   10 2
     4    4    5 2
     5    5    6 1
     6    7    5 1
     7    8    7 1
     8    9    1 2
     9   10    4 1
    10   11    7 2
    11   12   11 1
    12   13    8 2
    13   14   11 1
    14   15    1 1
    15   16    4 1
    16   17   16 2
    17   18   16 2
    18    8    9 1
    19    9   10 1
    20   12   13 1
@<TRIPOS>SUBSTRUCTURE
     1 RES1 1

@<TRIPOS>CRYSIN
   6.9358   19.1610    6.4957  90.0000  90.0000  90.0000  33 1

