# MOL2 file generated by ConQuest
# Please check atom types

@<TRIPOS>MOLECULE
RAQSAE
    40    43     1
SMALL
USER_CHARGES
****
Generated from CSD

@<TRIPOS>ATOM
      1 O1         2.4288    4.4471   11.6065 O.2       1 RES1   -1.0000
      2 N1         2.1058    3.3364   11.2235 N.pl3     1 RES1    1.0000
      3 O2         0.9648    2.6856   11.8833 O.3       1 RES1    0.0000
      4 N2         0.7819    1.4650   11.2972 N.2       1 RES1    0.0000
      5 O3         4.8982    1.4363    6.4175 O.2       1 RES1   -1.0000
      6 N3         4.4815    1.8911    7.4657 N.pl3     1 RES1    1.0000
      7 O4         5.1533    3.0794    8.0154 O.3       1 RES1    0.0000
      8 N4         4.4982    3.4506    9.1617 N.2       1 RES1    0.0000
      9 C1         1.8839    0.1471    9.5014 C.3       1 RES1    0.0000
     10 O5         3.9916   -0.9234    9.8232 O.2       1 RES1    0.0000
     11 N5         2.8905   -0.7501   10.2880 N.pl3     1 RES1    0.0000
     12 C2         2.5005    0.5082    8.1265 C.3       1 RES1    0.0000
     13 O6         2.4990   -1.2044   11.3324 O.2       1 RES1    0.0000
     14 C3         3.5026    1.6108    8.2956 C.2       1 RES1    0.0000
     15 O7         1.0840   -1.8259    8.6058 O.3       1 RES1    0.0000
     16 C4         3.5303    2.5905    9.3085 C.2       1 RES1    0.0000
     17 O8        -2.6199    0.7967    8.2768 O.2       1 RES1    0.0000
     18 C5         2.5107    2.4900   10.3086 C.2       1 RES1    0.0000
     19 O9        -0.8281    1.4646    6.7321 O.2       1 RES1    0.0000
     20 C6         1.6815    1.3526   10.3755 C.2       1 RES1    0.0000
     21 C7         0.6174   -0.6981    9.3315 C.3       1 RES1    0.0000
     22 C8        -0.4182    0.1022    8.5952 C.3       1 RES1    0.0000
     23 C9        -0.0120    0.8285    7.4719 C.2       1 RES1    0.0000
     24 C10        1.4205    0.9282    7.0883 C.3       1 RES1    0.0000
     25 C11        0.1350   -2.8808    8.4916 C.3       1 RES1    0.0000
     26 C12        0.7248   -3.9226    7.6070 C.3       1 RES1    0.0000
     27 C13       -1.7590    0.1398    8.9850 C.2       1 RES1    0.0000
     28 C14       -2.3153   -0.5044   10.1984 C.3       1 RES1    0.0000
     29 H1         2.9517   -0.3135    7.7741 H         1 RES1    0.0000
     30 H2         0.1709   -0.9747   10.1863 H         1 RES1    0.0000
     31 H3         1.5958    1.8824    6.8474 H         1 RES1    0.0000
     32 H4         1.5505    0.3534    6.2777 H         1 RES1    0.0000
     33 H5        -0.0541   -3.2689    9.3979 H         1 RES1    0.0000
     34 H6        -0.7180   -2.5351    8.0986 H         1 RES1    0.0000
     35 H7         0.0862   -4.6840    7.5000 H         1 RES1    0.0000
     36 H8         1.5814   -4.2607    8.0024 H         1 RES1    0.0000
     37 H9         0.9175   -3.5269    6.7032 H         1 RES1    0.0000
     38 H10       -3.3008   -0.3306   10.2512 H         1 RES1    0.0000
     39 H11       -1.8679   -0.1439   11.0133 H         1 RES1    0.0000
     40 H12       -2.1634   -1.4977   10.1491 H         1 RES1    0.0000
@<TRIPOS>BOND
     1    1    2 1
     2    2    3 1
     3    3    4 1
     4    4   20 2
     5    5    6 1
     6    6    7 1
     7    7    8 1
     8    8   16 2
     9    9   11 1
    10   10   11 2
    11   11   13 2
    12   12    9 1
    13   14    6 2
    14   15   21 1
    15   16   14 1
    16   17   27 2
    17   18    2 2
    18   19   23 2
    19   20    9 1
    20   21    9 1
    21   22   21 1
    22   23   22 1
    23   24   12 1
    24   25   15 1
    25   26   25 1
    26   27   22 1
    27   28   27 1
    28   29   12 1
    29   30   21 1
    30   31   24 1
    31   32   24 1
    32   33   25 1
    33   34   25 1
    34   35   26 1
    35   36   26 1
    36   37   26 1
    37   38   28 1
    38   39   28 1
    39   40   28 1
    40   12   14 1
    41   16   18 1
    42   18   20 1
    43   23   24 1
@<TRIPOS>SUBSTRUCTURE
     1 RES1 1

@<TRIPOS>CRYSIN
   9.6980   14.2500   12.1230  90.0000  97.5000  90.0000  14 2

