# MOL2 file generated by ConQuest
# Please check atom types

@<TRIPOS>MOLECULE
RAQVAJ
    52    54     1
SMALL
NO_CHARGES
****
Generated from CSD

@<TRIPOS>ATOM
      1 N1         0.9768   12.6987    4.5227 N.pl3     1 RES1    0.0000
      2 N2         1.8245   12.1759    5.4405 N.2       1 RES1    0.0000
      3 N3         1.7999   17.3132    8.0666 N.pl3     1 RES1    0.0000
      4 O1         3.7957   11.8143    7.2223 O.3       1 RES1    0.0000
      5 O2         3.8801   13.9862    7.6776 O.2       1 RES1    0.0000
      6 O3         2.9798   17.6260    8.0460 O.2       1 RES1    0.0000
      7 O4         0.9176   17.9538    8.6124 O.2       1 RES1    0.0000
      8 O5         0.2971   14.8169    3.6685 O.3       1 RES1    0.0000
      9 O6         1.8976   14.3960    2.1287 O.2       1 RES1    0.0000
     10 C1         2.3517   13.2340    6.0598 C.2       1 RES1    0.0000
     11 C2         1.8697   14.4568    5.5498 C.2       1 RES1    0.0000
     12 C3         1.0144   14.0544    4.5675 C.2       1 RES1    0.0000
     13 C4         0.2557   11.8274    3.6488 C.ar      1 RES1    0.0000
     14 C5         0.7687   10.5786    3.3916 C.ar      1 RES1    0.0000
     15 H1         1.5604   10.3052    3.7949 H         1 RES1    0.0000
     16 C6         0.0977    9.7347    2.5266 C.ar      1 RES1    0.0000
     17 H2         0.4410    8.8897    2.3492 H         1 RES1    0.0000
     18 C7        -1.0679   10.1326    1.9306 C.ar      1 RES1    0.0000
     19 H3        -1.5120    9.5629    1.3453 H         1 RES1    0.0000
     20 C8        -1.5808   11.3819    2.2013 C.ar      1 RES1    0.0000
     21 H4        -2.3712   11.6537    1.7926 H         1 RES1    0.0000
     22 C9        -0.9338   12.2322    3.0707 C.ar      1 RES1    0.0000
     23 H5        -1.2929   13.0670    3.2670 H         1 RES1    0.0000
     24 C10        3.4033   13.0601    7.0834 C.2       1 RES1    0.0000
     25 C11        4.9041   11.5955    8.1499 C.3       1 RES1    0.0000
     26 H6         4.6138   11.7271    9.0660 H         1 RES1    0.0000
     27 H7         5.6330   12.2083    7.9626 H         1 RES1    0.0000
     28 C12        5.3373   10.1757    7.9330 C.3       1 RES1    0.0000
     29 H8         4.6227    9.5823    8.1768 H         1 RES1    0.0000
     30 H9         6.1070    9.9902    8.4753 H         1 RES1    0.0000
     31 H10        5.5586   10.0484    7.0081 H         1 RES1    0.0000
     32 C13        1.4173   16.0455    7.3657 C.3       1 RES1    0.0000
     33 H11        0.4647   16.0576    7.1838 H         1 RES1    0.0000
     34 H12        1.5988   15.2916    7.9492 H         1 RES1    0.0000
     35 C14        2.1736   15.8580    6.0589 C.3       1 RES1    0.0000
     36 H13        3.1280   15.8785    6.2785 H         1 RES1    0.0000
     37 C15        1.9366   16.9554    5.0291 C.ar      1 RES1    0.0000
     38 C16        0.8601   17.8261    5.0721 C.ar      1 RES1    0.0000
     39 H14        0.2269   17.7428    5.7479 H         1 RES1    0.0000
     40 C17        0.7175   18.8253    4.1131 C.ar      1 RES1    0.0000
     41 H15       -0.0057   19.4085    4.1552 H         1 RES1    0.0000
     42 C18        1.6350   18.9511    3.1119 C.ar      1 RES1    0.0000
     43 H16        1.5374   19.6157    2.4684 H         1 RES1    0.0000
     44 C19        2.7005   18.0932    3.0599 C.ar      1 RES1    0.0000
     45 H17        3.3270   18.1765    2.3779 H         1 RES1    0.0000
     46 C20        2.8509   17.1138    4.0064 C.ar      1 RES1    0.0000
     47 H18        3.5841   16.5431    3.9589 H         1 RES1    0.0000
     48 C21        0.8737   14.9244    2.3967 C.2       1 RES1    0.0000
     49 C22        0.0114   15.7642    1.5291 C.3       1 RES1    0.0000
     50 H19        0.2060   15.5786    0.6077 H         1 RES1    0.0000
     51 H20        0.1810   16.6920    1.7110 H         1 RES1    0.0000
     52 H21       -0.9112   15.5678    1.7074 H         1 RES1    0.0000
@<TRIPOS>BOND
     1    1    2 1
     2    2   10 2
     3    3    6 2
     4    4   24 1
     5    5   24 2
     6    7    3 2
     7    8   12 1
     8    9   48 2
     9   10   11 1
    10   11   12 2
    11   12    1 1
    12   13    1 1
    13   14   13 ar
    14   15   14 1
    15   16   14 ar
    16   17   16 1
    17   18   16 ar
    18   19   18 1
    19   20   18 ar
    20   21   20 1
    21   22   13 ar
    22   23   22 1
    23   24   10 1
    24   25    4 1
    25   26   25 1
    26   27   25 1
    27   28   25 1
    28   29   28 1
    29   30   28 1
    30   31   28 1
    31   32    3 1
    32   33   32 1
    33   34   32 1
    34   35   11 1
    35   36   35 1
    36   37   35 1
    37   38   37 ar
    38   39   38 1
    39   40   38 ar
    40   41   40 1
    41   42   40 ar
    42   43   42 1
    43   44   42 ar
    44   45   44 1
    45   46   37 ar
    46   47   46 1
    47   48    8 1
    48   49   48 1
    49   50   49 1
    50   51   49 1
    51   52   49 1
    52   20   22 ar
    53   32   35 1
    54   44   46 ar
@<TRIPOS>SUBSTRUCTURE
     1 RES1 1

@<TRIPOS>CRYSIN
   5.4178   21.5770    9.0649  90.0000  98.6040  90.0000   4 1

