# MOL2 file generated by ConQuest
# Please check atom types

@<TRIPOS>MOLECULE
RARHUP
    50    51     1
SMALL
NO_CHARGES
****
Generated from CSD

@<TRIPOS>ATOM
      1 O1         0.1409    2.3138    0.0310 O.3       1 RES1    0.0000
      2 N1        -0.5895    2.9419    1.1268 N.3       1 RES1    0.0000
      3 C1        -0.2818    2.1454    2.3445 C.3       1 RES1    0.0000
      4 C2        -0.7860    0.6825    2.2005 C.3       1 RES1    0.0000
      5 C3        -2.2526    0.6132    1.7950 C.3       1 RES1    0.0000
      6 C4        -2.5228    1.4340    0.5519 C.3       1 RES1    0.0000
      7 C5        -2.0020    2.8506    0.7247 C.3       1 RES1    0.0000
      8 C6        -0.9313    2.8650    3.5439 C.3       1 RES1    0.0000
      9 C7        -0.4012    4.2693    3.7708 C.3       1 RES1    0.0000
     10 C8         1.1144    4.2940    3.9782 C.3       1 RES1    0.0000
     11 C9         1.7879    3.5841    2.8088 C.3       1 RES1    0.0000
     12 C10        1.2331    2.1849    2.5819 C.3       1 RES1    0.0000
     13 C11        1.7027    5.7020    4.2812 C.3       1 RES1    0.0000
     14 C12        1.0822    6.2398    5.5715 C.3       1 RES1    0.0000
     15 C13        1.4110    6.7046    3.1452 C.3       1 RES1    0.0000
     16 C14        3.2172    5.6191    4.4851 C.3       1 RES1    0.0000
     17 C15       -0.5852   -0.1569    3.4275 C.2       1 RES1    0.0000
     18 C16        0.1874   -1.0677    3.6141 C.2       1 RES1    0.0000
     19 C17        0.7255    3.3383   -0.7558 C.3       1 RES1    0.0000
     20 H1        -0.2804    0.2617    1.4735 H         1 RES1    0.0000
     21 H2        -2.4892   -0.3217    1.6901 H         1 RES1    0.0000
     22 H3        -2.7435    0.9879    2.5427 H         1 RES1    0.0000
     23 H4        -2.0513    1.0141   -0.1855 H         1 RES1    0.0000
     24 H5        -3.4759    1.4289    0.3710 H         1 RES1    0.0000
     25 H6        -2.5146    3.3110    1.4079 H         1 RES1    0.0000
     26 H7        -2.0595    3.3484   -0.1060 H         1 RES1    0.0000
     27 H8        -1.8852    2.9648    3.3975 H         1 RES1    0.0000
     28 H9        -0.7834    2.3742    4.3676 H         1 RES1    0.0000
     29 H10       -0.6340    4.8061    2.9978 H         1 RES1    0.0000
     30 H11       -0.8335    4.6346    4.5589 H         1 RES1    0.0000
     31 H12        1.2970    3.7332    4.7616 H         1 RES1    0.0000
     32 H13        1.6272    4.1160    2.0139 H         1 RES1    0.0000
     33 H14        2.7414    3.5446    2.9839 H         1 RES1    0.0000
     34 H15        1.4017    1.6694    3.3860 H         1 RES1    0.0000
     35 H16        1.6800    1.7672    1.8295 H         1 RES1    0.0000
     36 H17        1.6304    6.9480    5.9160 H         1 RES1    0.0000
     37 H18        0.2034    6.5787    5.3838 H         1 RES1    0.0000
     38 H19        1.0219    5.5364    6.2225 H         1 RES1    0.0000
     39 H20        0.4604    6.8018    3.0508 H         1 RES1    0.0000
     40 H21        1.8012    7.5569    3.3503 H         1 RES1    0.0000
     41 H22        1.7814    6.3716    2.3249 H         1 RES1    0.0000
     42 H23        3.6479    5.4351    3.6464 H         1 RES1    0.0000
     43 H24        3.5373    6.4543    4.8319 H         1 RES1    0.0000
     44 H25        3.4162    4.9168    5.1073 H         1 RES1    0.0000
     45 H26       -1.0992    0.0919    4.1614 H         1 RES1    0.0000
     46 H27        0.7305   -1.3655    2.9217 H         1 RES1    0.0000
     47 H28        0.2325   -1.4753    4.4494 H         1 RES1    0.0000
     48 H29        1.2043    2.9393   -1.4851 H         1 RES1    0.0000
     49 H30        0.0413    3.9166   -1.1003 H         1 RES1    0.0000
     50 H31        1.3329    3.8491   -0.2154 H         1 RES1    0.0000
@<TRIPOS>BOND
     1    1    2 1
     2    2    3 1
     3    3    4 1
     4    4    5 1
     5    5    6 1
     6    6    7 1
     7    7    2 1
     8    8    3 1
     9    9    8 1
    10   10    9 1
    11   11   10 1
    12   12    3 1
    13   13   10 1
    14   14   13 1
    15   15   13 1
    16   16   13 1
    17   17    4 1
    18   18   17 2
    19   19    1 1
    20   20    4 1
    21   21    5 1
    22   22    5 1
    23   23    6 1
    24   24    6 1
    25   25    7 1
    26   26    7 1
    27   27    8 1
    28   28    8 1
    29   29    9 1
    30   30    9 1
    31   31   10 1
    32   32   11 1
    33   33   11 1
    34   34   12 1
    35   35   12 1
    36   36   14 1
    37   37   14 1
    38   38   14 1
    39   39   15 1
    40   40   15 1
    41   41   15 1
    42   42   16 1
    43   43   16 1
    44   44   16 1
    45   45   17 1
    46   46   18 1
    47   47   18 1
    48   48   19 1
    49   49   19 1
    50   50   19 1
    51   11   12 1
@<TRIPOS>SUBSTRUCTURE
     1 RES1 1

@<TRIPOS>CRYSIN
   7.2083   10.2330   12.0030 104.7400  93.9800 100.5900   2 1

