# MOL2 file generated by ConQuest
# Please check atom types

@<TRIPOS>MOLECULE
RASYUF
    29    30     1
SMALL
NO_CHARGES
****
Generated from CSD

@<TRIPOS>ATOM
      1 O1        -1.9594    0.1353    9.8042 O.3       1 RES1    0.0000
      2 O2        -3.4409    1.2191   11.0717 O.2       1 RES1    0.0000
      3 N1         0.3038    2.3256    8.2719 N.ar      1 RES1    0.0000
      4 N2        -1.4290    1.4285    9.4683 N.3       1 RES1    0.0000
      5 C1        -0.5188    1.2854    8.4151 C.ar      1 RES1    0.0000
      6 C2        -0.5333    0.2094    7.5398 C.ar      1 RES1    0.0000
      7 C3         0.3737    0.2088    6.5036 C.ar      1 RES1    0.0000
      8 C4         1.2656    1.2689    6.3147 C.ar      1 RES1    0.0000
      9 C5         1.1567    2.3019    7.2350 C.ar      1 RES1    0.0000
     10 C6        -3.0690    0.2016   10.5634 C.2       1 RES1    0.0000
     11 C7        -3.7186   -1.1297   10.6856 C.3       1 RES1    0.0000
     12 C8         2.2683    1.2926    5.2170 C.ar      1 RES1    0.0000
     13 C9         2.2651    0.3254    4.2178 C.ar      1 RES1    0.0000
     14 C10        3.2007    0.3453    3.1904 C.ar      1 RES1    0.0000
     15 C11        4.1571    1.3313    3.1323 C.ar      1 RES1    0.0000
     16 C12        4.1779    2.2980    4.1137 C.ar      1 RES1    0.0000
     17 C13        3.2485    2.2753    5.1403 C.ar      1 RES1    0.0000
     18 H1        -1.1582   -0.5027    7.6614 H         1 RES1    0.0000
     19 H2        -1.0763    1.8229   10.2019 H         1 RES1    0.0000
     20 H3         0.3313   -0.5579    5.9198 H         1 RES1    0.0000
     21 H4         1.7350    3.0824    7.1841 H         1 RES1    0.0000
     22 H5        -4.0279   -1.2153   11.5640 H         1 RES1    0.0000
     23 H6        -4.4979   -1.1656   10.1260 H         1 RES1    0.0000
     24 H7        -3.1578   -1.8450   10.3996 H         1 RES1    0.0000
     25 H8         1.5642   -0.3756    4.2261 H         1 RES1    0.0000
     26 H9         3.1553   -0.3425    2.5964 H         1 RES1    0.0000
     27 H10        4.7961    1.3479    2.4167 H         1 RES1    0.0000
     28 H11        4.8850    3.0161    4.0943 H         1 RES1    0.0000
     29 H12        3.3344    2.9443    5.7920 H         1 RES1    0.0000
@<TRIPOS>BOND
     1    1    4 1
     2    2   10 2
     3    3    5 ar
     4    4    5 1
     5    5    6 ar
     6    6    7 ar
     7    7    8 ar
     8    8    9 ar
     9    9    3 ar
    10   10    1 1
    11   11   10 1
    12   12    8 1
    13   13   12 ar
    14   14   13 ar
    15   15   14 ar
    16   16   15 ar
    17   17   12 ar
    18   18    6 1
    19   19    4 1
    20   20    7 1
    21   21    9 1
    22   22   11 1
    23   23   11 1
    24   24   11 1
    25   25   13 1
    26   26   14 1
    27   27   15 1
    28   28   16 1
    29   29   17 1
    30   16   17 ar
@<TRIPOS>SUBSTRUCTURE
     1 RES1 1

@<TRIPOS>CRYSIN
  10.2460    5.5240   19.9730  90.0000  90.4630  90.0000  14 1

