# MOL2 file generated by ConQuest
# Please check atom types

@<TRIPOS>MOLECULE
RASZIU
    34    34     1
SMALL
USER_CHARGES
****
Generated from CSD

@<TRIPOS>ATOM
      1 O1         2.0207    3.1164    4.3483 O.2       1 RES1   -1.0000
      2 O2        -2.5454    3.0656    0.1401 O.2       1 RES1    0.0000
      3 O3        -1.7616    1.0768   -0.1326 O.2       1 RES1    0.0000
      4 N1        -1.7254    2.1877    0.3996 N.pl3     1 RES1    0.0000
      5 N2         3.5022    1.2217    3.2082 N.4       1 RES1    1.0000
      6 N3         5.5665    3.1624    2.9809 N.3       1 RES1    0.0000
      7 C1         1.1446    2.9234    3.4127 C.ar      1 RES1    0.0000
      8 C2         0.1934    3.8995    3.0453 C.ar      1 RES1    0.0000
      9 C3        -0.7212    3.6618    2.0548 C.ar      1 RES1    0.0000
     10 C4        -0.7236    2.4387    1.4014 C.ar      1 RES1    0.0000
     11 C5         0.2031    1.4634    1.7139 C.ar      1 RES1    0.0000
     12 C6         1.1302    1.6844    2.7139 C.ar      1 RES1    0.0000
     13 C7         2.1206    0.6456    3.1173 C.3       1 RES1    0.0000
     14 C8         4.1793    1.4220    1.9128 C.3       1 RES1    0.0000
     15 C9         5.5681    1.9701    2.1552 C.3       1 RES1    0.0000
     16 C10        5.0163    4.3000    2.2726 C.3       1 RES1    0.0000
     17 C11        6.9078    3.4662    3.4411 C.3       1 RES1    0.0000
     18 H1         3.3494    2.0095    3.6741 H         1 RES1    0.0000
     19 H2         3.9839    0.7210    3.7877 H         1 RES1    0.0000
     20 H3         0.1779    4.7333    3.5036 H         1 RES1    0.0000
     21 H4        -1.3608    4.3327    1.8181 H         1 RES1    0.0000
     22 H5         0.2093    0.6409    1.2310 H         1 RES1    0.0000
     23 H6         1.8839    0.2937    3.9581 H         1 RES1    0.0000
     24 H7         2.1163   -0.0534    2.4809 H         1 RES1    0.0000
     25 H8         3.6846    2.0362    1.3825 H         1 RES1    0.0000
     26 H9         4.2331    0.5942    1.4583 H         1 RES1    0.0000
     27 H10        6.0803    1.3018    2.5946 H         1 RES1    0.0000
     28 H11        5.9634    2.1831    1.3257 H         1 RES1    0.0000
     29 H12        5.0110    5.0804    2.8218 H         1 RES1    0.0000
     30 H13        4.1228    4.0991    2.0075 H         1 RES1    0.0000
     31 H14        5.5479    4.4596    1.4961 H         1 RES1    0.0000
     32 H15        6.9111    4.2459    3.9771 H         1 RES1    0.0000
     33 H16        7.4745    3.6050    2.6893 H         1 RES1    0.0000
     34 H17        7.2347    2.7305    3.9581 H         1 RES1    0.0000
@<TRIPOS>BOND
     1    1    7 1
     2    2    4 2
     3    3    4 2
     4    4   10 1
     5    5   13 1
     6    6   15 1
     7    7    8 ar
     8    8    9 ar
     9    9   10 ar
    10   10   11 ar
    11   11   12 ar
    12   12    7 ar
    13   13   12 1
    14   14    5 1
    15   15   14 1
    16   16    6 1
    17   17    6 1
    18   18    5 1
    19   19    5 1
    20   20    8 1
    21   21    9 1
    22   22   11 1
    23   23   13 1
    24   24   13 1
    25   25   14 1
    26   26   14 1
    27   27   15 1
    28   28   15 1
    29   29   16 1
    30   30   16 1
    31   31   16 1
    32   32   17 1
    33   33   17 1
    34   34   17 1
@<TRIPOS>SUBSTRUCTURE
     1 RES1 1

@<TRIPOS>CRYSIN
  19.8180    6.6760   20.0350  90.0000 109.0440  90.0000  15 1

