# MOL2 file generated by ConQuest
# Please check atom types

@<TRIPOS>MOLECULE
RATBUJ
   104    89     3
SMALL
NO_CHARGES
****
Generated from CSD

@<TRIPOS>ATOM
      1 O1         1.9762    3.1165   -2.5857 O.2       1 RES1    0.0000
      2 O2         0.6756   -2.0977   -5.4620 O.2       1 RES1    0.0000
      3 O3         0.1395   -0.0037   -5.4192 O.2       1 RES1    0.0000
      4 N1         5.4985    0.2483   -2.2690 N.3       1 RES1    0.0000
      5 H1         5.6333    1.0753   -2.0734 H         1 RES1    0.0000
      6 N2         3.9562    2.3332   -3.2638 N.am      1 RES1    0.0000
      7 H2         4.7790    2.5341   -3.4110 H         1 RES1    0.0000
      8 N3         0.8725   -0.9183   -5.1397 N.pl3     1 RES1    0.0000
      9 C1         4.4091   -0.0475   -2.9918 C.ar      1 RES1    0.0000
     10 C2         3.5787    0.9987   -3.4873 C.ar      1 RES1    0.0000
     11 C3         2.4291    0.6883   -4.1710 C.ar      1 RES1    0.0000
     12 H3         1.8797    1.3674   -4.4915 H         1 RES1    0.0000
     13 C4         2.0918   -0.6353   -4.3853 C.ar      1 RES1    0.0000
     14 C5         2.8926   -1.6650   -3.9326 C.ar      1 RES1    0.0000
     15 H4         2.6537   -2.5487   -4.0891 H         1 RES1    0.0000
     16 C6         4.0355   -1.3711   -3.2563 C.ar      1 RES1    0.0000
     17 H5         4.5811   -2.0649   -2.9620 H         1 RES1    0.0000
     18 C7         6.4771   -0.7285   -1.7828 C.3       1 RES1    0.0000
     19 H6         5.9907   -1.5172   -1.4642 H         1 RES1    0.0000
     20 C8         7.3887   -1.1611   -2.9341 C.3       1 RES1    0.0000
     21 H7         6.9558   -0.9329   -3.7724 H         1 RES1    0.0000
     22 H8         8.2124   -0.6518   -2.8838 H         1 RES1    0.0000
     23 H9         7.7977   -0.3670   -3.3122 Du        3 SUP3    0.0000
     24 H10        6.8373   -1.5591   -3.6252 Du        3 SUP3    0.0000
     25 C9         7.7327   -2.6181   -2.9583 C.3       1 RES1    0.0000
     26 H11        8.1924   -2.7951   -3.7929 H         1 RES1    0.0000
     27 H12        6.8985   -3.1128   -2.9844 H         1 RES1    0.0000
     28 C10        8.5144   -2.1635   -2.5764 Du        3 SUP3    0.0000
     29 H13        8.8393   -2.4683   -3.4389 Du        3 SUP3    0.0000
     30 H14        9.2215   -1.5993   -2.2243 Du        3 SUP3    0.0000
     31 C11        8.5708   -3.2059   -1.8480 C.3       1 RES1    0.0000
     32 H15        8.8068   -4.1078   -2.1200 H         1 RES1    0.0000
     33 H16        9.3964   -2.6984   -1.8201 H         1 RES1    0.0000
     34 H17        9.5054   -3.4634   -1.8145 Du        3 SUP3    0.0000
     35 H18        8.1140   -3.9052   -2.3435 Du        3 SUP3    0.0000
     36 C12        8.0758   -3.2936   -0.4750 C.3       1 RES1    0.0000
     37 H19        7.1422   -3.5473   -0.5384 H         1 RES1    0.0000
     38 H20        8.5373   -4.0439   -0.0671 H         1 RES1    0.0000
     39 C13        8.1331   -2.2803    0.4247 C.3       1 RES1    0.0000
     40 H21        8.8584   -2.4939    1.0320 H         1 RES1    0.0000
     41 H22        7.3161   -2.3314    0.9445 H         1 RES1    0.0000
     42 H23        9.0839   -2.1580    0.5700 Du        3 SUP3    0.0000
     43 H24        7.7987   -2.6820    1.2407 Du        3 SUP3    0.0000
     44 C14        8.3042   -0.8617    0.0540 C.3       1 RES1    0.0000
     45 H25        9.0782   -0.8106   -0.5328 H         1 RES1    0.0000
     46 H26        8.5335   -0.3797    0.8644 H         1 RES1    0.0000
     47 C15        7.6066   -0.9494    0.4676 Du        3 SUP3    0.0000
     48 H27        6.8392   -0.9987    1.0525 Du        3 SUP3    0.0000
     49 H28        8.2765   -0.4327    0.9501 Du        3 SUP3    0.0000
     50 C16        7.2062   -0.1095   -0.6017 C.3       1 RES1    0.0000
     51 H29        7.5712    0.7394   -0.8979 H         1 RES1    0.0000
     52 H30        6.5430    0.0895    0.0782 H         1 RES1    0.0000
     53 H31        7.9984    0.3323   -0.9445 Du        3 SUP3    0.0000
     54 H32        6.6338    0.5806   -0.2310 Du        3 SUP3    0.0000
     55 C17        3.1621    3.3264   -2.8428 C.2       1 RES1    0.0000
     56 C18        3.7928    4.6482   -2.6639 C.3       1 RES1    0.0000
     57 H33        4.7168    4.5989   -2.9210 H         1 RES1    0.0000
     58 H34        3.7297    4.9093   -1.7437 H         1 RES1    0.0000
     59 H35        3.3427    5.2945   -3.2135 H         1 RES1    0.0000
     60 O4         6.7570    3.0124   -2.7161 O.2       2 RES2    0.0000
     61 O5         5.4163    4.4438    2.9751 O.2       2 RES2    0.0000
     62 O6         4.9749    5.0827    0.9687 O.2       2 RES2    0.0000
     63 N4        10.2842    1.9608   -0.0317 N.3       2 RES2    0.0000
     64 H36       10.4438    2.0137   -0.8756 H         2 RES2    0.0000
     65 N5         8.7743    3.4743   -1.8033 N.am      2 RES2    0.0000
     66 H37        9.5961    3.6678   -1.9691 H         2 RES2    0.0000
     67 N6         5.6858    4.5040    1.7902 N.pl3     2 RES2    0.0000
     68 C19        9.1910    2.5943    0.4247 C.ar      2 RES2    0.0000
     69 C20        8.3902    3.3593   -0.4583 C.ar      2 RES2    0.0000
     70 C21        7.2473    3.9764    0.0112 C.ar      2 RES2    0.0000
     71 H38        6.7198    4.4803   -0.5663 H         2 RES2    0.0000
     72 C22        6.8918    3.8486    1.3264 C.ar      2 RES2    0.0000
     73 C23        7.6524    3.1256    2.2001 C.ar      2 RES2    0.0000
     74 H39        7.4002    3.0617    3.0924 H         2 RES2    0.0000
     75 C24        8.7839    2.4994    1.7623 C.ar      2 RES2    0.0000
     76 H40        9.2913    2.0010    2.3622 H         2 RES2    0.0000
     77 C25       11.2264    1.1867    0.7768 C.3       2 RES2    0.0000
     78 H41       10.7037    0.6664    1.4233 H         2 RES2    0.0000
     79 C26       12.1122    2.1324    1.5648 C.3       2 RES2    0.0000
     80 H42       11.5503    2.8244    1.9449 H         2 RES2    0.0000
     81 H43       12.7209    2.5615    0.9445 Du        3 SUP3    0.0000
     82 C27       12.9474    1.5099    2.7068 C.3       2 RES2    0.0000
     83 H44       13.3106    2.2328    3.2414 H         2 RES2    0.0000
     84 H45       12.3492    1.0005    3.2750 Du        3 SUP3    0.0000
     85 C28       14.0445    0.6426    2.3081 C.3       2 RES2    0.0000
     86 H46       14.8137    0.8581    2.8596 H         2 RES2    0.0000
     87 H47       14.2795    0.8526    1.3916 Du        3 SUP3    0.0000
     88 C29       13.7903   -0.8763    2.4069 C.3       2 RES2    0.0000
     89 H48       14.5203   -1.3328    1.9579 H         2 RES2    0.0000
     90 H49       13.8256   -1.1283    3.3420 H         2 RES2    0.0000
     91 C30       12.4696   -1.4040    1.8219 C.3       2 RES2    0.0000
     92 H50       12.4352   -2.3625    1.9747 H         2 RES2    0.0000
     93 H51       11.7405   -1.0078    2.3212 H         2 RES2    0.0000
     94 C31       12.2288   -1.1684    0.4117 C.3       2 RES2    0.0000
     95 H52       11.4739   -1.7235    0.1602 H         2 RES2    0.0000
     96 H53       12.9990   -1.5117   -0.0671 H         2 RES2    0.0000
     97 C32       11.9603    0.1953   -0.1267 C.3       2 RES2    0.0000
     98 H54       11.4433    0.0986   -0.9408 H         2 RES2    0.0000
     99 H55       12.8108    0.5915   -0.3726 H         2 RES2    0.0000
    100 C33        7.9382    3.3045   -2.8596 C.2       2 RES2    0.0000
    101 C34        8.5689    3.4579   -4.1990 C.3       2 RES2    0.0000
    102 H56        9.4958    3.6861   -4.0928 H         2 RES2    0.0000
    103 H57        8.1216    4.1553   -4.6852 H         2 RES2    0.0000
    104 H58        8.4972    2.6327   -4.6833 H         2 RES2    0.0000
@<TRIPOS>BOND
     1    1   55 2
     2    2    8 2
     3    3    8 2
     4    4    5 1
     5    6    7 1
     6    8   13 1
     7    9    4 1
     8   10    6 1
     9   11   10 ar
    10   12   11 1
    11   13   11 ar
    12   14   13 ar
    13   15   14 1
    14   16    9 ar
    15   17   16 1
    16   18    4 1
    17   19   18 1
    18   20   18 1
    19   21   20 1
    20   22   20 1
    21   25   20 1
    22   26   25 1
    23   27   25 1
    24   31   25 1
    25   32   31 1
    26   33   31 1
    27   36   31 1
    28   37   36 1
    29   38   36 1
    30   39   36 1
    31   40   39 1
    32   41   39 1
    33   44   39 1
    34   45   44 1
    35   46   44 1
    36   50   18 1
    37   51   50 1
    38   52   50 1
    39   55    6 1
    40   56   55 1
    41   57   56 1
    42   58   56 1
    43   59   56 1
    44   60  100 2
    45   61   67 2
    46   62   67 2
    47   63   64 1
    48   65   66 1
    49   67   72 1
    50   68   63 1
    51   69   65 1
    52   70   69 ar
    53   71   70 1
    54   72   70 ar
    55   73   72 ar
    56   74   73 1
    57   75   68 ar
    58   76   75 1
    59   77   63 1
    60   78   77 1
    61   79   77 1
    62   80   79 1
    63   82   79 1
    64   83   82 1
    65   85   82 1
    66   86   85 1
    67   88   85 1
    68   89   88 1
    69   90   88 1
    70   91   88 1
    71   92   91 1
    72   93   91 1
    73   94   91 1
    74   95   94 1
    75   96   94 1
    76   97   77 1
    77   98   97 1
    78   99   97 1
    79  100   65 1
    80  101  100 1
    81  102  101 1
    82  103  101 1
    83  104  101 1
    84    9   10 ar
    85   14   16 ar
    86   44   50 1
    87   68   69 ar
    88   73   75 ar
    89   94   97 1
@<TRIPOS>SUBSTRUCTURE
     1 RES1 1
     2 RES2 60
     3 SUP3 23

@<TRIPOS>CRYSIN
   9.5560   18.2570   18.6290  90.0000  90.0000  90.0000  29 3

