# MOL2 file generated by ConQuest
# Please check atom types

@<TRIPOS>MOLECULE
RATBIZ
    41    44     1
SMALL
NO_CHARGES
****
Generated from CSD

@<TRIPOS>ATOM
      1 O1         1.8674    1.2644   14.7639 O.3       1 RES1    0.0000
      2 N1         2.4821    1.1502   13.4993 N.2       1 RES1    0.0000
      3 C1         1.5724    1.2658   12.6164 C.2       1 RES1    0.0000
      4 N2         0.2418    1.3276   13.1163 N.3       1 RES1    0.0000
      5 O2        -0.3812    2.5951   12.7336 O.3       1 RES1    0.0000
      6 C2        -0.0510    3.5391   13.7609 C.3       1 RES1    0.0000
      7 C3        -0.0886    2.7306   15.0174 C.3       1 RES1    0.0000
      8 C4         0.4313    1.3597   14.5868 C.3       1 RES1    0.0000
      9 O3         1.2066    4.0914   13.5661 O.3       1 RES1    0.0000
     10 C5         1.2892    4.9397   12.4113 C.3       1 RES1    0.0000
     11 C6         2.7060    5.2743   12.1394 C.3       1 RES1    0.0000
     12 C7         1.8236    1.2693   11.1751 C.ar      1 RES1    0.0000
     13 C8         3.0674    1.6447   10.6822 C.ar      1 RES1    0.0000
     14 C9         3.2984    1.6394    9.3203 C.ar      1 RES1    0.0000
     15 C10        2.3079    1.2644    8.4535 C.ar      1 RES1    0.0000
     16 C11        1.0849    0.8837    8.9342 C.ar      1 RES1    0.0000
     17 C12        0.8346    0.8837   10.2920 C.ar      1 RES1    0.0000
     18 C13       -0.2386    0.1880   15.2733 C.ar      1 RES1    0.0000
     19 C14        0.4441   -0.6222   16.1606 C.ar      1 RES1    0.0000
     20 C15       -0.2353   -1.6259   16.8324 C.ar      1 RES1    0.0000
     21 C16       -1.5619   -1.8503   16.6162 C.ar      1 RES1    0.0000
     22 C17       -2.2445   -1.0602   15.7217 C.ar      1 RES1    0.0000
     23 C18       -1.5875   -0.0378   15.0596 C.ar      1 RES1    0.0000
     24 H1        -0.7337    4.1861   13.7114 H         1 RES1    0.0000
     25 H2        -1.0101    2.6455   15.3329 H         1 RES1    0.0000
     26 H3         0.4648    3.1038   15.6975 H         1 RES1    0.0000
     27 H4         0.7402    5.7425   12.6246 H         1 RES1    0.0000
     28 H5         0.8620    4.3981   11.6535 H         1 RES1    0.0000
     29 H6         2.7534    5.8313   11.3345 H         1 RES1    0.0000
     30 H7         3.2528    4.4817   12.0199 H         1 RES1    0.0000
     31 H8         2.9866    5.8373   12.9910 H         1 RES1    0.0000
     32 H9         3.7502    1.9072   11.2854 H         1 RES1    0.0000
     33 H10        4.1442    1.8960    8.9960 H         1 RES1    0.0000
     34 H11        2.4746    1.1966    7.4920 H         1 RES1    0.0000
     35 H12        0.4445    0.5360    8.3825 H         1 RES1    0.0000
     36 H13       -0.0389    0.6166   10.6210 H         1 RES1    0.0000
     37 H14        1.4041   -0.4986   16.3338 H         1 RES1    0.0000
     38 H15        0.2119   -2.1580   17.4662 H         1 RES1    0.0000
     39 H16       -2.0201   -2.5574   17.0823 H         1 RES1    0.0000
     40 H17       -3.1751   -1.2332   15.5432 H         1 RES1    0.0000
     41 H18       -2.0313    0.4859   14.4319 H         1 RES1    0.0000
@<TRIPOS>BOND
     1    1    2 1
     2    2    3 2
     3    3    4 1
     4    4    5 1
     5    5    6 1
     6    6    7 1
     7    7    8 1
     8    8    1 1
     9    9    6 1
    10   10    9 1
    11   11   10 1
    12   12    3 1
    13   13   12 ar
    14   14   13 ar
    15   15   14 ar
    16   16   15 ar
    17   17   12 ar
    18   18    8 1
    19   19   18 ar
    20   20   19 ar
    21   21   20 ar
    22   22   21 ar
    23   23   18 ar
    24   24    6 1
    25   25    7 1
    26   26    7 1
    27   27   10 1
    28   28   10 1
    29   29   11 1
    30   30   11 1
    31   31   11 1
    32   32   13 1
    33   33   14 1
    34   34   15 1
    35   35   16 1
    36   36   17 1
    37   37   19 1
    38   38   20 1
    39   39   21 1
    40   40   22 1
    41   41   23 1
    42    4    8 1
    43   16   17 ar
    44   22   23 ar
@<TRIPOS>SUBSTRUCTURE
     1 RES1 1

@<TRIPOS>CRYSIN
  12.2360    7.4646   18.1300  90.0000 104.7900  90.0000   4 1

