# MOL2 file generated by ConQuest
# Please check atom types

@<TRIPOS>MOLECULE
RATGOJ
    50    54     2
SMALL
NO_CHARGES
****
Generated from CSD

@<TRIPOS>ATOM
      1 O1        -8.5757    2.2215    3.5831 O.3       1 RES1    0.0000
      2 O2        -5.8056    0.4382    3.5504 O.3       1 RES1    0.0000
      3 N1        -5.3265    1.7647    3.5580 N.2       1 RES1    0.0000
      4 C1        -6.2077    2.5455    4.0409 C.2       1 RES1    0.0000
      5 C2        -7.4820    1.8486    4.4175 C.3       1 RES1    0.0000
      6 H1        -7.6931    1.9745    5.3658 H         1 RES1    0.0000
      7 C3        -8.5517    1.3343    2.4833 C.3       1 RES1    0.0000
      8 H2        -7.9095    1.6300    1.8179 H         1 RES1    0.0000
      9 H3        -9.4267    1.2757    2.0690 H         1 RES1    0.0000
     10 C4        -8.1422   -0.0029    3.0675 C.3       1 RES1    0.0000
     11 H4        -8.8984   -0.4617    3.4651 H         1 RES1    0.0000
     12 H5        -7.7373   -0.5739    2.3954 H         1 RES1    0.0000
     13 C5        -7.1402    0.4099    4.1104 C.3       1 RES1    0.0000
     14 H6        -7.1904   -0.1562    4.9088 H         1 RES1    0.0000
     15 C6        -5.9385    3.9774    4.1899 C.ar      1 RES1    0.0000
     16 C7        -4.6840    4.4947    3.9605 C.ar      1 RES1    0.0000
     17 H7        -3.9955    3.9296    3.6961 H         1 RES1    0.0000
     18 C8        -4.4376    5.8426    4.1204 C.ar      1 RES1    0.0000
     19 H8        -3.5836    6.1794    3.9723 H         1 RES1    0.0000
     20 C9        -5.4452    6.6840    4.4970 C.ar      1 RES1    0.0000
     21 H9        -5.2800    7.5946    4.5866 H         1 RES1    0.0000
     22 C10       -6.6878    6.1950    4.7406 C.ar      1 RES1    0.0000
     23 H10       -7.3696    6.7670    5.0101 H         1 RES1    0.0000
     24 C11       -6.9389    4.8412    4.5858 C.ar      1 RES1    0.0000
     25 H11       -7.7931    4.5113    4.7506 H         1 RES1    0.0000
     26 O3         1.5281    2.6724    1.4513 O.3       2 RES2    0.0000
     27 O4        -0.9515    4.5445    2.5235 O.3       2 RES2    0.0000
     28 N2        -1.4120    3.2317    2.7838 N.2       2 RES2    0.0000
     29 C12       -0.8233    2.4030    2.0087 C.2       2 RES2    0.0000
     30 C13        0.2006    3.0404    1.1056 C.3       2 RES2    0.0000
     31 H12        0.0093    2.8618    0.1615 H         2 RES2    0.0000
     32 C14        1.9898    3.6397    2.4038 C.3       2 RES2    0.0000
     33 H13        2.9576    3.6914    2.4038 H         2 RES2    0.0000
     34 H14        1.6847    3.4191    3.2977 H         2 RES2    0.0000
     35 C15        1.3799    4.9388    1.9326 C.3       2 RES2    0.0000
     36 H15        1.3054    5.5752    2.6607 H         2 RES2    0.0000
     37 H16        1.9035    5.3331    1.2178 H         2 RES2    0.0000
     38 C16        0.0316    4.5084    1.4438 C.3       2 RES2    0.0000
     39 H17       -0.2583    5.0306    0.6679 H         2 RES2    0.0000
     40 C17       -1.1221    0.9761    2.0581 C.ar      2 RES2    0.0000
     41 C18       -2.1730    0.4753    2.8131 C.ar      2 RES2    0.0000
     42 H18       -2.7040    1.0610    3.3027 H         2 RES2    0.0000
     43 C19       -2.4410   -0.8687    2.8482 C.ar      2 RES2    0.0000
     44 H19       -3.1461   -1.1879    3.3629 H         2 RES2    0.0000
     45 C20       -1.6685   -1.7501    2.1217 C.ar      2 RES2    0.0000
     46 H20       -1.8523   -2.6607    2.1493 H         2 RES2    0.0000
     47 C21       -0.6332   -1.2825    1.3626 C.ar      2 RES2    0.0000
     48 H21       -0.1164   -1.8789    0.8704 H         2 RES2    0.0000
     49 C22       -0.3488    0.0810    1.3207 C.ar      2 RES2    0.0000
     50 H22        0.3560    0.3933    0.8010 H         2 RES2    0.0000
@<TRIPOS>BOND
     1    1    5 1
     2    2    3 1
     3    3    4 2
     4    4    5 1
     5    5    6 1
     6    7    1 1
     7    8    7 1
     8    9    7 1
     9   10    7 1
    10   11   10 1
    11   12   10 1
    12   13    2 1
    13   14   13 1
    14   15    4 1
    15   16   15 ar
    16   17   16 1
    17   18   16 ar
    18   19   18 1
    19   20   18 ar
    20   21   20 1
    21   22   20 ar
    22   23   22 1
    23   24   15 ar
    24   25   24 1
    25   26   30 1
    26   27   28 1
    27   28   29 2
    28   29   30 1
    29   30   31 1
    30   32   26 1
    31   33   32 1
    32   34   32 1
    33   35   32 1
    34   36   35 1
    35   37   35 1
    36   38   27 1
    37   39   38 1
    38   40   29 1
    39   41   40 ar
    40   42   41 1
    41   43   41 ar
    42   44   43 1
    43   45   43 ar
    44   46   45 1
    45   47   45 ar
    46   48   47 1
    47   49   40 ar
    48   50   49 1
    49    5   13 1
    50   10   13 1
    51   22   24 ar
    52   30   38 1
    53   35   38 1
    54   47   49 ar
@<TRIPOS>SUBSTRUCTURE
     1 RES1 1
     2 RES2 26

@<TRIPOS>CRYSIN
  23.2700    9.7605    8.3697  90.0000  90.0000  90.0000  29 1

