# MOL2 file generated by ConQuest
# Please check atom types

@<TRIPOS>MOLECULE
RATRUZ
    76    82     2
SMALL
NO_CHARGES
****
Generated from CSD

@<TRIPOS>ATOM
      1 C1         7.8573    8.5247    6.1744 C.3       1 RES1    0.0000
      2 O1         8.7497    7.8969    5.2513 O.3       1 RES1    0.0000
      3 N1         8.6548    6.4873    5.6893 N.3       1 RES1    0.0000
      4 C2         9.3752    5.7204    4.6788 C.3       1 RES1    0.0000
      5 H1        10.3082    5.9847    4.6760 H         1 RES1    0.0000
      6 H2         8.9869    5.8930    3.8056 H         1 RES1    0.0000
      7 H3         9.3071    4.7739    4.8812 H         1 RES1    0.0000
      8 C3         7.2989    9.8421    5.6523 C.3       1 RES1    0.0000
      9 H4         7.6279   10.0647    4.7455 H         1 RES1    0.0000
     10 C4         7.7098   10.8754    6.6988 C.3       1 RES1    0.0000
     11 H5         6.9542   11.4945    6.8541 H         1 RES1    0.0000
     12 C5         8.9262   11.6748    6.2961 C.3       1 RES1    0.0000
     13 H6         9.1680   12.2802    7.0139 H         1 RES1    0.0000
     14 H7         8.7276   12.1852    5.4953 H         1 RES1    0.0000
     15 H8         9.6649   11.0727    6.1189 H         1 RES1    0.0000
     16 O2         7.9426   10.1109    7.8966 O.3       1 RES1    0.0000
     17 C6         8.5218    8.8688    7.5024 C.3       1 RES1    0.0000
     18 H9         8.3422    8.1745    8.1703 H         1 RES1    0.0000
     19 H10        9.4925    8.9586    7.3919 H         1 RES1    0.0000
     20 C7         6.9371   15.3955    2.1103 C.3       2 RES2    0.0000
     21 O3         7.7711   14.6551    3.0020 O.3       2 RES2    0.0000
     22 N2         9.1190   15.1259    2.6116 N.3       2 RES2    0.0000
     23 C8         9.9921   14.6065    3.6637 C.3       2 RES2    0.0000
     24 H11       10.0127   13.6375    3.6183 H         2 RES2    0.0000
     25 H12        9.6534   14.8822    4.5301 H         2 RES2    0.0000
     26 H13       10.8892   14.9546    3.5409 H         2 RES2    0.0000
     27 C9         5.5250   15.6083    2.6717 C.3       2 RES2    0.0000
     28 H14        5.4330   15.2589    3.5936 H         2 RES2    0.0000
     29 C10        4.6123   14.8888    1.6903 C.3       2 RES2    0.0000
     30 H15        3.7640   15.3893    1.5921 H         2 RES2    0.0000
     31 C11        4.3247   13.4680    2.1316 C.3       2 RES2    0.0000
     32 H16        3.9089   12.9806    1.4026 H         2 RES2    0.0000
     33 H17        3.7263   13.4814    2.8948 H         2 RES2    0.0000
     34 H18        5.1563   13.0321    2.3789 H         2 RES2    0.0000
     35 O4         5.3420   14.9134    0.4470 O.3       2 RES2    0.0000
     36 C12        6.7185   14.6849    0.7689 C.3       2 RES2    0.0000
     37 H19        7.3034   15.0609    0.0780 H         2 RES2    0.0000
     38 H20        6.9006   13.7261    0.8507 H         2 RES2    0.0000
     39 C1A        6.6307    7.5763    6.1744 C.3       1 RES1    0.0000
     40 O1A        5.7383    8.2041    5.2513 O.3       1 RES1    0.0000
     41 N1A        5.8332    9.6137    5.6893 N.3       1 RES1    0.0000
     42 C2A        5.1128   10.3806    4.6788 C.3       1 RES1    0.0000
     43 H1A        4.1798   10.1163    4.6760 H         1 RES1    0.0000
     44 H2A        5.5011   10.2080    3.8056 H         1 RES1    0.0000
     45 H3A        5.1809   11.3271    4.8812 H         1 RES1    0.0000
     46 C3A        7.1891    6.2589    5.6523 C.3       1 RES1    0.0000
     47 C6A        5.9662    7.2322    7.5024 C.3       1 RES1    0.0000
     48 O2A        6.5454    5.9901    7.8966 O.3       1 RES1    0.0000
     49 C4A        6.7782    5.2256    6.6988 C.3       1 RES1    0.0000
     50 H4A        6.8601    6.0363    4.7455 H         1 RES1    0.0000
     51 H5A        7.5338    4.6065    6.8541 H         1 RES1    0.0000
     52 C5A        5.5618    4.4262    6.2961 C.3       1 RES1    0.0000
     53 H6A        5.3200    3.8208    7.0139 H         1 RES1    0.0000
     54 H7A        5.7604    3.9158    5.4953 H         1 RES1    0.0000
     55 H8A        4.8231    5.0283    6.1189 H         1 RES1    0.0000
     56 H9A        6.1458    7.9265    8.1703 H         1 RES1    0.0000
     57 H10A       4.9955    7.1424    7.3919 H         1 RES1    0.0000
     58 C7A        7.5509   16.8065    2.1103 C.3       2 RES2    0.0000
     59 O3A        6.7169   17.5469    3.0020 O.3       2 RES2    0.0000
     60 N2A        5.3690   17.0761    2.6116 N.3       2 RES2    0.0000
     61 C8A        4.4959   17.5955    3.6637 C.3       2 RES2    0.0000
     62 H11A       4.4753   18.5645    3.6183 H         2 RES2    0.0000
     63 H12A       4.8346   17.3198    4.5301 H         2 RES2    0.0000
     64 H13A       3.5988   17.2474    3.5409 H         2 RES2    0.0000
     65 C9A        8.9630   16.5937    2.6717 C.3       2 RES2    0.0000
     66 C12A       7.7695   17.5171    0.7689 C.3       2 RES2    0.0000
     67 O4A        9.1460   17.2886    0.4470 O.3       2 RES2    0.0000
     68 C10A       9.8757   17.3132    1.6903 C.3       2 RES2    0.0000
     69 H14A       9.0550   16.9431    3.5936 H         2 RES2    0.0000
     70 H15A      10.7240   16.8127    1.5921 H         2 RES2    0.0000
     71 C11A      10.1633   18.7340    2.1316 C.3       2 RES2    0.0000
     72 H16A      10.5791   19.2214    1.4026 H         2 RES2    0.0000
     73 H17A      10.7617   18.7206    2.8948 H         2 RES2    0.0000
     74 H18A       9.3317   19.1699    2.3789 H         2 RES2    0.0000
     75 H19A       7.1846   17.1411    0.0780 H         2 RES2    0.0000
     76 H20A       7.5874   18.4759    0.8507 H         2 RES2    0.0000
@<TRIPOS>BOND
     1    1    2 1
     2    2    3 1
     3    3    4 1
     4    4    5 1
     5    6    4 1
     6    7    4 1
     7    8    1 1
     8    9    8 1
     9   10    8 1
    10   11   10 1
    11   12   10 1
    12   13   12 1
    13   14   12 1
    14   15   12 1
    15   16   10 1
    16   17    1 1
    17   18   17 1
    18   19   17 1
    19   20   21 1
    20   21   22 1
    21   22   23 1
    22   23   24 1
    23   25   23 1
    24   26   23 1
    25   27   20 1
    26   28   27 1
    27   29   27 1
    28   30   29 1
    29   31   29 1
    30   32   31 1
    31   33   31 1
    32   34   31 1
    33   35   29 1
    34   36   20 1
    35   37   36 1
    36   38   36 1
    37   39    1 1
    38   40   39 1
    39   41    8 1
    40   42   41 1
    41   43   42 1
    42   44   42 1
    43   45   42 1
    44   46    3 1
    45   47   39 1
    46   48   47 1
    47   49   46 1
    48   50   46 1
    49   51   49 1
    50   52   49 1
    51   53   52 1
    52   54   52 1
    53   55   52 1
    54   56   47 1
    55   57   47 1
    56   58   20 1
    57   59   58 1
    58   60   27 1
    59   61   60 1
    60   62   61 1
    61   63   61 1
    62   64   61 1
    63   65   22 1
    64   66   58 1
    65   67   66 1
    66   68   65 1
    67   69   65 1
    68   70   68 1
    69   71   68 1
    70   72   71 1
    71   73   71 1
    72   74   71 1
    73   75   66 1
    74   76   66 1
    75   16   17 1
    76   35   36 1
    77   39   46 1
    78   40   41 1
    79   48   49 1
    80   58   65 1
    81   59   60 1
    82   67   68 1
@<TRIPOS>SUBSTRUCTURE
     1 RES1 1
     2 RES2 20

@<TRIPOS>CRYSIN
  14.4880   16.1010    5.6080  90.0000  90.0000  90.0000  18 1

