# MOL2 file generated by ConQuest
# Please check atom types

@<TRIPOS>MOLECULE
RAVBIZ
   118   124     2
SMALL
NO_CHARGES
****
Generated from CSD

@<TRIPOS>ATOM
      1 C1         9.2682    2.7587    2.8380 C.ar      1 RES1    0.0000
      2 C2         8.3461    2.3776    1.9167 C.ar      1 RES1    0.0000
      3 C3         8.3267    1.1075    1.3346 C.ar      1 RES1    0.0000
      4 C4         9.2394    0.2070    1.7819 C.ar      1 RES1    0.0000
      5 C5        10.2246    0.5373    2.7417 C.ar      1 RES1    0.0000
      6 N1        11.1391   -0.4141    3.0927 N.2       1 RES1    0.0000
      7 C6        12.1328   -0.0368    3.9489 C.ar      1 RES1    0.0000
      8 C7        13.1310   -0.9475    4.2451 C.ar      1 RES1    0.0000
      9 C8        14.2466   -0.6439    5.0360 C.ar      1 RES1    0.0000
     10 C9        14.2759    0.6439    5.5826 C.ar      1 RES1    0.0000
     11 C10       13.3002    1.5737    5.3278 C.ar      1 RES1    0.0000
     12 C11       12.2320    1.2523    4.5073 C.ar      1 RES1    0.0000
     13 N2        11.2233    2.1858    4.1873 N.pl3     1 RES1    0.0000
     14 C12       10.2476    1.8404    3.2749 C.ar      1 RES1    0.0000
     15 C13       11.3438    3.5372    4.6361 C.ar      1 RES1    0.0000
     16 C14       12.0150    4.4606    3.9000 C.ar      1 RES1    0.0000
     17 C15       12.1113    5.7624    4.3221 C.ar      1 RES1    0.0000
     18 C16       11.5359    6.0939    5.4582 C.ar      1 RES1    0.0000
     19 C17       10.8749    5.2150    6.2136 C.ar      1 RES1    0.0000
     20 C18       10.7531    3.9221    5.7959 C.ar      1 RES1    0.0000
     21 N3        11.6295    7.5330    5.9307 N.pl3     1 RES1    0.0000
     22 O1        12.1712    8.3026    5.2464 O.2       1 RES1    0.0000
     23 O2        11.0674    7.8365    6.9083 O.2       1 RES1    0.0000
     24 C19        7.2688    0.7760    0.2637 C.3       1 RES1    0.0000
     25 C20        7.5275    1.6308   -0.9213 C.3       1 RES1    0.0000
     26 C21        7.2866   -0.6719   -0.0918 C.3       1 RES1    0.0000
     27 C22        5.8747    1.0415    0.8532 C.3       1 RES1    0.0000
     28 C23       15.3654   -1.6181    5.2923 C.3       1 RES1    0.0000
     29 C24       15.2935   -2.8361    4.3325 C.3       1 RES1    0.0000
     30 C25       16.6664   -0.9818    5.0538 C.3       1 RES1    0.0000
     31 C26       15.2807   -2.1731    6.6165 C.3       1 RES1    0.0000
     32 H1         9.2995    3.6071    3.1994 H         1 RES1    0.0000
     33 H2         7.8388    2.9974    1.4516 H         1 RES1    0.0000
     34 H3         9.3091   -0.7113    1.5256 H         1 RES1    0.0000
     35 H4        13.1469   -1.7400    3.8363 H         1 RES1    0.0000
     36 H5        14.9358    0.9145    6.3099 H         1 RES1    0.0000
     37 H6        13.5521    2.4259    5.6285 H         1 RES1    0.0000
     38 H7        12.2594    4.1913    3.0661 H         1 RES1    0.0000
     39 H8        12.7503    6.2616    4.4436 H         1 RES1    0.0000
     40 H9        10.3425    5.6138    6.7839 H         1 RES1    0.0000
     41 H10       10.4070    3.3531    6.2210 H         1 RES1    0.0000
     42 H11        6.8399    1.4733   -1.5641 H         1 RES1    0.0000
     43 H12        7.3940    2.5554   -0.5999 H         1 RES1    0.0000
     44 H13        8.3546    1.5127   -1.2294 H         1 RES1    0.0000
     45 H14        6.5997   -0.8891   -0.7569 H         1 RES1    0.0000
     46 H15        8.1143   -0.9602   -0.4281 H         1 RES1    0.0000
     47 H16        7.0648   -1.2295    0.6828 H         1 RES1    0.0000
     48 H17        5.2007    0.9145    0.1881 H         1 RES1    0.0000
     49 H18        5.7147    0.5906    1.6160 H         1 RES1    0.0000
     50 H19        5.8464    2.0309    1.0531 H         1 RES1    0.0000
     51 H20       16.0247   -3.4572    4.6139 H         1 RES1    0.0000
     52 H21       14.4783   -3.3442    4.5517 H         1 RES1    0.0000
     53 H22       15.3524   -2.6342    3.4838 H         1 RES1    0.0000
     54 H23       17.4115   -1.5775    5.1738 H         1 RES1    0.0000
     55 H24       16.7414   -0.5957    4.1770 H         1 RES1    0.0000
     56 H25       16.7604   -0.2693    5.6937 H         1 RES1    0.0000
     57 H26       15.9232   -2.8133    6.8772 H         1 RES1    0.0000
     58 H27       15.3785   -1.4162    7.2756 H         1 RES1    0.0000
     59 H28       14.3958   -2.5415    6.8609 H         1 RES1    0.0000
     60 C27       10.1360    9.0558    2.7328 C.ar      2 RES2    0.0000
     61 C28       11.0417    8.7421    1.7745 C.ar      2 RES2    0.0000
     62 C29       11.0698    7.4796    1.1376 C.ar      2 RES2    0.0000
     63 C30       10.1131    6.5728    1.5419 C.ar      2 RES2    0.0000
     64 C31        9.1492    6.8585    2.5195 C.ar      2 RES2    0.0000
     65 N4         8.2318    5.9034    2.8335 N.2       2 RES2    0.0000
     66 C32        7.2819    6.2324    3.7370 C.ar      2 RES2    0.0000
     67 C33        6.2433    5.2938    3.9874 C.ar      2 RES2    0.0000
     68 C34        5.1863    5.5592    4.8213 C.ar      2 RES2    0.0000
     69 C35        5.1867    6.7950    5.4893 C.ar      2 RES2    0.0000
     70 C36        6.1729    7.7032    5.2612 C.ar      2 RES2    0.0000
     71 C37        7.2100    7.4809    4.3858 C.ar      2 RES2    0.0000
     72 N5         8.2014    8.4170    4.1014 N.pl3     2 RES2    0.0000
     73 C38        9.1767    8.1274    3.1312 C.ar      2 RES2    0.0000
     74 C39        8.1391    9.7328    4.6346 C.ar      2 RES2    0.0000
     75 C40        7.3374   10.6561    4.0688 C.ar      2 RES2    0.0000
     76 C41        7.3108   11.9580    4.5547 C.ar      2 RES2    0.0000
     77 C42        8.0715   12.2501    5.6448 C.ar      2 RES2    0.0000
     78 C43        8.8863   11.3598    6.1721 C.ar      2 RES2    0.0000
     79 C44        8.9044   10.1316    5.6774 C.ar      2 RES2    0.0000
     80 N6         7.9943   13.6726    6.1129 N.pl3     2 RES2    0.0000
     81 O3         7.2967   14.4360    5.6433 O.2       2 RES2    0.0000
     82 O4         8.8371   13.9012    7.0490 O.2       2 RES2    0.0000
     83 C45       12.0661    7.1710    0.0281 C.3       2 RES2    0.0000
     84 C46       11.8740    8.0537   -1.1257 C.3       2 RES2    0.0000
     85 C47       12.1459    5.7764   -0.3273 C.3       2 RES2    0.0000
     86 C48       13.4998    7.4428    0.6547 C.3       2 RES2    0.0000
     87 C49        4.0489    4.5813    4.9872 C.3       2 RES2    0.0000
     88 C50        3.9992    4.0389    6.3484 C.3       2 RES2    0.0000
     89 C51        2.7796    5.2074    4.6213 C.3       2 RES2    0.0000
     90 C52        4.1720    3.3696    4.0525 C.3       2 RES2    0.0000
     91 H29       10.1855    9.8433    3.2882 H         2 RES2    0.0000
     92 H30       11.6533    9.3733    1.4960 H         2 RES2    0.0000
     93 H31       10.0746    5.6773    1.2590 H         2 RES2    0.0000
     94 H32        6.3941    4.3818    3.5697 H         2 RES2    0.0000
     95 H33        4.2961    7.0491    6.1618 H         2 RES2    0.0000
     96 H34        6.0277    8.3065    5.6581 H         2 RES2    0.0000
     97 H35        6.7241   10.3767    3.3475 H         2 RES2    0.0000
     98 H36        6.7627   12.4978    4.1621 H         2 RES2    0.0000
     99 H37        9.5002   11.7103    7.1097 H         2 RES2    0.0000
    100 H38        9.4418    9.6909    5.7026 H         2 RES2    0.0000
    101 H39       12.5570    7.8530   -1.7685 H         2 RES2    0.0000
    102 H40       11.0484    7.9991   -1.4382 H         2 RES2    0.0000
    103 H41       12.0814    8.9542   -0.7850 H         2 RES2    0.0000
    104 H42       12.7895    5.5935   -0.9924 H         2 RES2    0.0000
    105 H43       12.4489    5.2531    0.4829 H         2 RES2    0.0000
    106 H44       11.3100    5.4132   -0.5584 H         2 RES2    0.0000
    107 H45       14.2006    7.2980    0.0444 H         2 RES2    0.0000
    108 H46       13.5424    8.3674    0.9554 H         2 RES2    0.0000
    109 H47       13.6459    6.8966    1.4368 H         2 RES2    0.0000
    110 H48        3.3003    3.4013    6.5054 H         2 RES2    0.0000
    111 H49        4.8340    3.6045    6.6165 H         2 RES2    0.0000
    112 H50        3.8684    4.7514    7.0134 H         2 RES2    0.0000
    113 H51        2.0585    4.5762    4.5976 H         2 RES2    0.0000
    114 H52        2.5978    5.9644    5.0331 H         2 RES2    0.0000
    115 H53        2.8788    5.4373    3.6023 H         2 RES2    0.0000
    116 H54        4.2289    3.5474    3.2260 H         2 RES2    0.0000
    117 H55        4.9958    2.8501    4.3799 H         2 RES2    0.0000
    118 H56        3.4530    2.7244    4.2880 H         2 RES2    0.0000
@<TRIPOS>BOND
     1    1    2 ar
     2    2    3 ar
     3    3    4 ar
     4    4    5 ar
     5    5    6 1
     6    6    7 1
     7    7    8 ar
     8    8    9 ar
     9    9   10 ar
    10   10   11 ar
    11   11   12 ar
    12   12    7 ar
    13   13   12 1
    14   14    1 ar
    15   15   13 1
    16   16   15 ar
    17   17   16 ar
    18   18   17 ar
    19   19   18 ar
    20   20   15 ar
    21   21   18 1
    22   22   21 2
    23   23   21 2
    24   24    3 1
    25   25   24 1
    26   26   24 1
    27   27   24 1
    28   28    9 1
    29   29   28 1
    30   30   28 1
    31   31   28 1
    32   32    1 1
    33   33    2 1
    34   34    4 1
    35   35    8 1
    36   36   10 1
    37   37   11 1
    38   38   16 1
    39   39   17 1
    40   40   19 1
    41   41   20 1
    42   42   25 1
    43   43   25 1
    44   44   25 1
    45   45   26 1
    46   46   26 1
    47   47   26 1
    48   48   27 1
    49   49   27 1
    50   50   27 1
    51   51   29 1
    52   52   29 1
    53   53   29 1
    54   54   30 1
    55   55   30 1
    56   56   30 1
    57   57   31 1
    58   58   31 1
    59   59   31 1
    60   60   61 ar
    61   61   62 ar
    62   62   63 ar
    63   63   64 ar
    64   64   65 1
    65   65   66 1
    66   66   67 ar
    67   67   68 ar
    68   68   69 ar
    69   69   70 ar
    70   70   71 ar
    71   71   66 ar
    72   72   71 1
    73   73   60 ar
    74   74   72 1
    75   75   74 ar
    76   76   75 ar
    77   77   76 ar
    78   78   77 ar
    79   79   74 ar
    80   80   77 1
    81   81   80 2
    82   82   80 2
    83   83   62 1
    84   84   83 1
    85   85   83 1
    86   86   83 1
    87   87   68 1
    88   88   87 1
    89   89   87 1
    90   90   87 1
    91   91   60 1
    92   92   61 1
    93   93   63 1
    94   94   67 1
    95   95   69 1
    96   96   70 1
    97   97   75 1
    98   98   76 1
    99   99   78 1
   100  100   79 1
   101  101   84 1
   102  102   84 1
   103  103   84 1
   104  104   85 1
   105  105   85 1
   106  106   85 1
   107  107   86 1
   108  108   86 1
   109  109   86 1
   110  110   88 1
   111  111   88 1
   112  112   88 1
   113  113   89 1
   114  114   89 1
   115  115   89 1
   116  116   90 1
   117  117   90 1
   118  118   90 1
   119    5   14 ar
   120   13   14 1
   121   19   20 ar
   122   64   73 ar
   123   72   73 1
   124   78   79 ar
@<TRIPOS>SUBSTRUCTURE
     1 RES1 1
     2 RES2 60

@<TRIPOS>CRYSIN
  12.9180   12.7010   15.1240  90.0000 101.6600  90.0000   4 1

