# MOL2 file generated by ConQuest
# Please check atom types

@<TRIPOS>MOLECULE
RAVNAD
   123   129     1
SMALL
NO_CHARGES
****
Generated from CSD

@<TRIPOS>ATOM
      1 O1         1.0219   14.8849    7.4671 O.3       1 RES1    0.0000
      2 O2         0.0669   15.4739   10.0871 O.3       1 RES1    0.0000
      3 O3        -1.9751   14.9265    9.3152 O.2       1 RES1    0.0000
      4 O4         0.3118   13.4045   11.9631 O.3       1 RES1    0.0000
      5 O5         4.5388    8.2702   14.3511 O.3       1 RES1    0.0000
      6 O6         1.4995   14.7715   13.3163 O.2       1 RES1    0.0000
      7 O7         4.7434    6.6272   12.8459 O.2       1 RES1    0.0000
      8 O8         2.7798   11.7617   11.6054 O.3       1 RES1    0.0000
      9 O9         1.9056    8.0340   15.4906 O.3       1 RES1    0.0000
     10 O10        3.2344    8.2468   17.2977 O.2       1 RES1    0.0000
     11 O11        2.0726   13.0561    8.2658 O.3       1 RES1    0.0000
     12 O12        1.7545   11.0919   13.5273 O.3       1 RES1    0.0000
     13 O13       -0.5554   11.1583   17.7651 O.2       1 RES1    0.0000
     14 O14        3.8717   11.1162    7.5043 O.3       1 RES1    0.0000
     15 O15        1.0603   11.3693   16.2355 O.3       1 RES1    0.0000
     16 O16        5.8272   11.3358    8.5871 O.2       1 RES1    0.0000
     17 O17        5.4893   16.7518    3.4659 O.2       1 RES1    0.0000
     18 O18        3.7877   16.6385    2.1468 O.2       1 RES1    0.0000
     19 O19        2.3568    7.9493   10.8359 O.2       1 RES1    0.0000
     20 O20        6.3726    9.9567   11.7213 O.2       1 RES1    0.0000
     21 N1         4.3103   16.5321    3.2428 N.pl3     1 RES1    0.0000
     22 N2         4.1984    9.2028   11.4906 N.am      1 RES1    0.0000
     23 C1         1.6132   14.3329    8.6217 C.3       1 RES1    0.0000
     24 H1         2.3552   14.8930    8.9308 H         1 RES1    0.0000
     25 C2         2.3684   10.6401   12.3243 C.3       1 RES1    0.0000
     26 H2         1.7435   10.0992   11.7967 H         1 RES1    0.0000
     27 C3         0.5717   14.1790    9.7117 C.3       1 RES1    0.0000
     28 H3        -0.1579   13.5953    9.4162 H         1 RES1    0.0000
     29 C4         3.6206    9.8237   12.6952 C.3       1 RES1    0.0000
     30 H4         4.2856   10.4337   13.0766 H         1 RES1    0.0000
     31 C5         1.2875   13.5778   10.9268 C.3       1 RES1    0.0000
     32 H5         1.9864   14.1920   11.2343 H         1 RES1    0.0000
     33 C6         3.3069    8.7449   13.7278 C.3       1 RES1    0.0000
     34 H6         2.8683    7.9926   13.2786 H         1 RES1    0.0000
     35 C7         1.9151   12.2334   10.5499 C.3       1 RES1    0.0000
     36 H7         1.2114   11.5738   10.3735 H         1 RES1    0.0000
     37 C8         2.4238    9.2208   14.8615 C.3       1 RES1    0.0000
     38 H8         2.9305    9.7663   15.4992 H         1 RES1    0.0000
     39 C9         2.7961   12.3972    9.3122 C.3       1 RES1    0.0000
     40 H9         3.6041   12.9052    9.5368 H         1 RES1    0.0000
     41 C10        1.2342   10.0009   14.2887 C.3       1 RES1    0.0000
     42 H10        0.7325    9.4107   13.6886 H         1 RES1    0.0000
     43 C11        3.1688   11.0445    8.7604 C.3       1 RES1    0.0000
     44 H11        3.7267   10.5818    9.4057 H         1 RES1    0.0000
     45 H12        2.3616   10.5193    8.6383 H         1 RES1    0.0000
     46 C12        0.2932   10.5332   15.3349 C.3       1 RES1    0.0000
     47 H13       -0.4123   11.0514   14.9173 H         1 RES1    0.0000
     48 H14       -0.1130    9.7999   15.8234 H         1 RES1    0.0000
     49 C13        1.8943   15.2462    6.4478 C.ar      1 RES1    0.0000
     50 C14        1.3056   15.5905    5.2403 C.ar      1 RES1    0.0000
     51 H15        0.3822   15.5326    5.1453 H         1 RES1    0.0000
     52 C15        2.0686   16.0115    4.1850 C.ar      1 RES1    0.0000
     53 H16        1.6749   16.2382    3.3739 H         1 RES1    0.0000
     54 C16        3.4430   16.0925    4.3553 C.ar      1 RES1    0.0000
     55 C17        4.0373   15.7594    5.5448 C.ar      1 RES1    0.0000
     56 H17        4.9593   15.8334    5.6398 H         1 RES1    0.0000
     57 C18        3.2687   15.3105    6.6001 C.ar      1 RES1    0.0000
     58 H18        3.6681   15.0561    7.4006 H         1 RES1    0.0000
     59 C19       -1.2381   15.7346    9.8233 C.2       1 RES1    0.0000
     60 C20       -1.6464   17.0989   10.2258 C.ar      1 RES1    0.0000
     61 C21       -2.8785   17.5639    9.7660 C.ar      1 RES1    0.0000
     62 H19       -3.4103   17.0156    9.2353 H         1 RES1    0.0000
     63 C22       -3.3160   18.8340   10.0946 C.ar      1 RES1    0.0000
     64 H20       -4.1383   19.1417    9.7871 H         1 RES1    0.0000
     65 C23       -2.5208   19.6460   10.8861 C.ar      1 RES1    0.0000
     66 H21       -2.8144   20.4997   11.1122 H         1 RES1    0.0000
     67 C24       -1.2961   19.2018   11.3414 C.ar      1 RES1    0.0000
     68 H22       -0.7677   19.7547   11.8690 H         1 RES1    0.0000
     69 C25       -0.8545   17.9340   11.0142 C.ar      1 RES1    0.0000
     70 H23       -0.0278   17.6379   11.3188 H         1 RES1    0.0000
     71 C26        0.5257   14.1071   13.1188 C.2       1 RES1    0.0000
     72 C27       -0.5987   13.9518   14.0746 C.ar      1 RES1    0.0000
     73 C28       -1.8184   13.3672   13.7233 C.ar      1 RES1    0.0000
     74 H24       -1.9390   13.0271   12.8655 H         1 RES1    0.0000
     75 C29       -2.8449   13.2932   14.6429 C.ar      1 RES1    0.0000
     76 H25       -3.6601   12.9092   14.4108 H         1 RES1    0.0000
     77 C30       -2.6440   13.7929   15.9138 C.ar      1 RES1    0.0000
     78 H26       -3.3300   13.7374   16.5394 H         1 RES1    0.0000
     79 C31       -1.4601   14.3620   16.2696 C.ar      1 RES1    0.0000
     80 H27       -1.3447   14.6905   17.1319 H         1 RES1    0.0000
     81 C32       -0.4214   14.4569   15.3500 C.ar      1 RES1    0.0000
     82 H28        0.3834   14.8571   15.5882 H         1 RES1    0.0000
     83 C33        0.5004   11.6113   17.4289 C.2       1 RES1    0.0000
     84 C34        1.3681   12.5112   18.2460 C.3       1 RES1    0.0000
     85 H29        2.1594   12.7310   17.7485 H         1 RES1    0.0000
     86 H30        1.6154   12.0647   19.0601 H         1 RES1    0.0000
     87 H31        0.8878   13.3163   18.4556 H         1 RES1    0.0000
     88 C35        2.4980    7.5812   16.6405 C.2       1 RES1    0.0000
     89 C36        2.0816    6.1770   16.8952 C.3       1 RES1    0.0000
     90 H32        1.4813    5.8924   16.2018 H         1 RES1    0.0000
     91 H33        1.6377    6.1238   17.7440 H         1 RES1    0.0000
     92 H34        2.8556    5.6102   16.9028 H         1 RES1    0.0000
     93 C37        5.0745    7.1135   13.8952 C.2       1 RES1    0.0000
     94 C38        6.1358    6.5980   14.7967 C.3       1 RES1    0.0000
     95 H35        6.2042    7.1671   15.5671 H         1 RES1    0.0000
     96 H36        6.9751    6.5888   14.3309 H         1 RES1    0.0000
     97 H37        5.9142    5.7073   15.0756 H         1 RES1    0.0000
     98 C39        3.5153    8.2841   10.6901 C.2       1 RES1    0.0000
     99 C40        4.4822    7.8649    9.6393 C.ar      1 RES1    0.0000
    100 C41        4.2779    7.0804    8.5253 C.ar      1 RES1    0.0000
    101 H38        3.4420    6.7216    8.3338 H         1 RES1    0.0000
    102 C42        5.3711    6.8456    7.7006 C.ar      1 RES1    0.0000
    103 H39        5.2707    6.3158    6.9423 H         1 RES1    0.0000
    104 C43        6.6100    7.3939    7.9946 C.ar      1 RES1    0.0000
    105 H40        7.3315    7.2180    7.4353 H         1 RES1    0.0000
    106 C44        6.7947    8.2082    9.1147 C.ar      1 RES1    0.0000
    107 H41        7.6245    8.5783    9.3122 H         1 RES1    0.0000
    108 C45        5.7004    8.4384    9.9167 C.ar      1 RES1    0.0000
    109 C46        5.5542    9.2911   11.1348 C.2       1 RES1    0.0000
    110 C47        5.2192   11.2247    7.5514 C.2       1 RES1    0.0000
    111 C48        5.8245   11.2226    6.1599 C.3       1 RES1    0.0000
    112 C49        5.6273   12.6454    5.5840 C.3       1 RES1    0.0000
    113 H42        5.9987   12.6871    4.7006 H         1 RES1    0.0000
    114 H43        6.0722   13.2816    6.1478 H         1 RES1    0.0000
    115 H44        4.6903   12.8490    5.5478 H         1 RES1    0.0000
    116 C50        5.1187   10.2070    5.2554 C.3       1 RES1    0.0000
    117 H45        5.5176   10.2232    4.3825 H         1 RES1    0.0000
    118 H46        4.1877   10.4337    5.1860 H         1 RES1    0.0000
    119 H47        5.2067    9.3279    5.6322 H         1 RES1    0.0000
    120 C51        7.3061   10.9103    6.2534 C.3       1 RES1    0.0000
    121 H48        7.6893   10.9080    5.3729 H         1 RES1    0.0000
    122 H49        7.4270   10.0474    6.6559 H         1 RES1    0.0000
    123 H50        7.7403   11.5766    6.7901 H         1 RES1    0.0000
@<TRIPOS>BOND
     1    1   23 1
     2    2   27 1
     3    3   59 2
     4    4   31 1
     5    5   33 1
     6    6   71 2
     7    7   93 2
     8    8   25 1
     9    9   37 1
    10   10   88 2
    11   11   23 1
    12   12   25 1
    13   13   83 2
    14   14   43 1
    15   15   46 1
    16   16  110 2
    17   17   21 2
    18   18   21 2
    19   19   98 2
    20   20  109 2
    21   21   54 1
    22   22   29 1
    23   23   24 1
    24   25   26 1
    25   27   23 1
    26   28   27 1
    27   29   25 1
    28   30   29 1
    29   31   27 1
    30   32   31 1
    31   33   29 1
    32   34   33 1
    33   35    8 1
    34   36   35 1
    35   37   33 1
    36   38   37 1
    37   39   11 1
    38   40   39 1
    39   41   12 1
    40   42   41 1
    41   43   39 1
    42   44   43 1
    43   45   43 1
    44   46   41 1
    45   47   46 1
    46   48   46 1
    47   49    1 1
    48   50   49 ar
    49   51   50 1
    50   52   50 ar
    51   53   52 1
    52   54   52 ar
    53   55   54 ar
    54   56   55 1
    55   57   49 ar
    56   58   57 1
    57   59    2 1
    58   60   59 1
    59   61   60 ar
    60   62   61 1
    61   63   61 ar
    62   64   63 1
    63   65   63 ar
    64   66   65 1
    65   67   65 ar
    66   68   67 1
    67   69   60 ar
    68   70   69 1
    69   71    4 1
    70   72   71 1
    71   73   72 ar
    72   74   73 1
    73   75   73 ar
    74   76   75 1
    75   77   75 ar
    76   78   77 1
    77   79   77 ar
    78   80   79 1
    79   81   72 ar
    80   82   81 1
    81   83   15 1
    82   84   83 1
    83   85   84 1
    84   86   84 1
    85   87   84 1
    86   88    9 1
    87   89   88 1
    88   90   89 1
    89   91   89 1
    90   92   89 1
    91   93    5 1
    92   94   93 1
    93   95   94 1
    94   96   94 1
    95   97   94 1
    96   98   22 1
    97   99   98 1
    98  100   99 ar
    99  101  100 1
   100  102  100 ar
   101  103  102 1
   102  104  102 ar
   103  105  104 1
   104  106  104 ar
   105  107  106 1
   106  108   99 ar
   107  109   22 1
   108  110   14 1
   109  111  110 1
   110  112  111 1
   111  113  112 1
   112  114  112 1
   113  115  112 1
   114  116  111 1
   115  117  116 1
   116  118  116 1
   117  119  116 1
   118  120  111 1
   119  121  120 1
   120  122  120 1
   121  123  120 1
   122   31   35 1
   123   35   39 1
   124   37   41 1
   125   55   57 ar
   126   67   69 ar
   127   79   81 ar
   128  106  108 ar
   129  108  109 1
@<TRIPOS>SUBSTRUCTURE
     1 RES1 1

@<TRIPOS>CRYSIN
   7.0923   23.1347   15.1181  90.0000  94.2970  90.0000   4 1

