# MOL2 file generated by ConQuest
# Please check atom types

@<TRIPOS>MOLECULE
RAVVAO
    76    80     2
SMALL
NO_CHARGES
****
Generated from CSD

@<TRIPOS>ATOM
      1 O1         6.7585   12.1907   17.4052 O.3       1 RES1    0.0000
      2 H1         7.3160   12.2917   16.7356 H         1 RES1    0.0000
      3 O2         2.9154    8.5198   16.6888 O.2       1 RES1    0.0000
      4 O3         4.1167    7.1947   17.9014 O.2       1 RES1    0.0000
      5 N1         3.7882    8.3184   17.5387 N.pl3     1 RES1    0.0000
      6 C1         5.1190   10.3923   17.0593 C.3       1 RES1    0.0000
      7 H2         5.0202   10.1634   16.0861 H         1 RES1    0.0000
      8 C2         6.4754   10.7963   17.5855 C.3       1 RES1    0.0000
      9 H3         7.1770   10.2577   17.1411 H         1 RES1    0.0000
     10 C3         6.4498   10.4627   19.0870 C.3       1 RES1    0.0000
     11 H4         6.0467   11.2141   19.5512 H         1 RES1    0.0000
     12 C4         5.4987    9.2498   19.2337 C.3       1 RES1    0.0000
     13 H5         6.0452    8.3953   19.0079 H         1 RES1    0.0000
     14 C5         4.5110    9.4730   18.0992 C.3       1 RES1    0.0000
     15 C6         3.9104   10.8360   17.8325 C.3       1 RES1    0.0000
     16 H6         3.0288   10.8731   17.3455 H         1 RES1    0.0000
     17 H7         4.0377   11.5508   18.5324 H         1 RES1    0.0000
     18 C7         7.8325   10.2449   19.6712 C.3       1 RES1    0.0000
     19 H8         8.2715    9.4654   19.2116 H         1 RES1    0.0000
     20 H9         7.7535   10.0529   20.6557 H         1 RES1    0.0000
     21 H10        8.3885   11.0715   19.5347 H         1 RES1    0.0000
     22 C8         4.9281    9.0727   20.6570 C.3       1 RES1    0.0000
     23 H11        5.6772    9.0436   21.2459 H         1 RES1    0.0000
     24 C9         4.0443   10.2174   21.1420 C.3       1 RES1    0.0000
     25 H12        3.2351   10.2610   20.5865 H         1 RES1    0.0000
     26 H13        4.5279   11.0672   21.0408 H         1 RES1    0.0000
     27 C10        3.6456   10.0336   22.6052 C.3       1 RES1    0.0000
     28 H14        3.0515   10.7617   22.8739 H         1 RES1    0.0000
     29 H15        4.4430   10.0722   23.1680 H         1 RES1    0.0000
     30 C11        2.9374    8.6934   22.8146 C.3       1 RES1    0.0000
     31 H16        2.7559    8.5615   23.7977 H         1 RES1    0.0000
     32 H17        2.0485    8.7063   22.3339 H         1 RES1    0.0000
     33 C12        3.7677    7.5424   22.3016 C.3       1 RES1    0.0000
     34 H18        3.2329    6.6809   22.3781 H         1 RES1    0.0000
     35 H19        4.6010    7.4464   22.8779 H         1 RES1    0.0000
     36 C13        4.1811    7.7536   20.8456 C.3       1 RES1    0.0000
     37 H20        4.7708    6.9929   20.5538 H         1 RES1    0.0000
     38 H21        3.3610    7.7504   20.2634 H         1 RES1    0.0000
     39 O4         4.7869    3.4113   17.6571 O.3       2 RES2    0.0000
     40 H22        5.3992    2.8413   17.5730 H         2 RES2    0.0000
     41 O5         7.3599    6.7378   21.5166 O.2       2 RES2    0.0000
     42 O6         8.4741    6.7032   19.6590 O.2       2 RES2    0.0000
     43 N2         7.6738    6.2134   20.4529 N.pl3     2 RES2    0.0000
     44 C14        6.4425    4.9409   18.6650 C.3       2 RES2    0.0000
     45 H23        6.5347    5.7213   18.1236 H         2 RES2    0.0000
     46 C15        5.0912    4.2752   18.7560 C.3       2 RES2    0.0000
     47 H24        4.4115    4.9868   18.7715 H         2 RES2    0.0000
     48 C16        5.0451    3.5580   20.1213 C.3       2 RES2    0.0000
     49 H25        5.3217    2.6698   19.9927 H         2 RES2    0.0000
     50 C17        6.0781    4.2541   21.0504 C.3       2 RES2    0.0000
     51 H26        5.6114    4.9332   21.6019 H         2 RES2    0.0000
     52 C18        7.0043    4.9590   20.0728 C.3       2 RES2    0.0000
     53 C19        7.6694    4.1423   18.9976 C.3       2 RES2    0.0000
     54 H27        8.5524    4.4689   18.6393 H         2 RES2    0.0000
     55 H28        7.5772    3.1405   19.0458 H         2 RES2    0.0000
     56 C20        3.6156    3.5372   20.6386 C.3       2 RES2    0.0000
     57 H29        3.2878    4.4807   20.7579 H         2 RES2    0.0000
     58 H30        3.5856    3.0590   21.5228 H         2 RES2    0.0000
     59 H31        3.0274    3.0590   19.9798 H         2 RES2    0.0000
     60 C21        6.8222    3.2744   21.9821 C.3       2 RES2    0.0000
     61 H32        7.2494    2.5658   21.3975 H         2 RES2    0.0000
     62 C22        5.8755    2.5604   22.9465 C.3       2 RES2    0.0000
     63 H33        5.1527    2.0479   22.3965 H         2 RES2    0.0000
     64 H34        5.3860    3.2724   23.5307 H         2 RES2    0.0000
     65 C23        6.6012    1.5708   23.8647 C.3       2 RES2    0.0000
     66 H35        5.9150    1.1644   24.5495 H         2 RES2    0.0000
     67 H36        6.9882    0.7827   23.2867 H         2 RES2    0.0000
     68 C24        7.7330    2.2366   24.6266 C.3       2 RES2    0.0000
     69 H37        8.2451    1.5332   25.1627 H         2 RES2    0.0000
     70 H38        7.3475    2.9164   25.2847 H         2 RES2    0.0000
     71 C25        8.6863    2.9410   23.6675 C.3       2 RES2    0.0000
     72 H39        9.4318    3.4450   24.2198 H         2 RES2    0.0000
     73 H40        9.1626    2.2227   23.0559 H         2 RES2    0.0000
     74 C26        7.9452    3.9403   22.7908 C.3       2 RES2    0.0000
     75 H41        8.5978    4.3735   22.1558 H         2 RES2    0.0000
     76 H42        7.5516    4.6630   23.3724 H         2 RES2    0.0000
@<TRIPOS>BOND
     1    1    2 1
     2    3    5 2
     3    4    5 2
     4    5   14 1
     5    6    7 1
     6    8    1 1
     7    9    8 1
     8   10    8 1
     9   11   10 1
    10   12   10 1
    11   13   12 1
    12   14    6 1
    13   15    6 1
    14   16   15 1
    15   17   15 1
    16   18   10 1
    17   19   18 1
    18   20   18 1
    19   21   18 1
    20   22   12 1
    21   23   22 1
    22   24   22 1
    23   25   24 1
    24   26   24 1
    25   27   24 1
    26   28   27 1
    27   29   27 1
    28   30   27 1
    29   31   30 1
    30   32   30 1
    31   33   30 1
    32   34   33 1
    33   35   33 1
    34   36   22 1
    35   37   36 1
    36   38   36 1
    37   39   40 1
    38   41   43 2
    39   42   43 2
    40   43   52 1
    41   44   45 1
    42   46   39 1
    43   47   46 1
    44   48   46 1
    45   49   48 1
    46   50   48 1
    47   51   50 1
    48   52   44 1
    49   53   44 1
    50   54   53 1
    51   55   53 1
    52   56   48 1
    53   57   56 1
    54   58   56 1
    55   59   56 1
    56   60   50 1
    57   61   60 1
    58   62   60 1
    59   63   62 1
    60   64   62 1
    61   65   62 1
    62   66   65 1
    63   67   65 1
    64   68   65 1
    65   69   68 1
    66   70   68 1
    67   71   68 1
    68   72   71 1
    69   73   71 1
    70   74   60 1
    71   75   74 1
    72   76   74 1
    73    6    8 1
    74   12   14 1
    75   14   15 1
    76   33   36 1
    77   44   46 1
    78   50   52 1
    79   52   53 1
    80   71   74 1
@<TRIPOS>SUBSTRUCTURE
     1 RES1 1
     2 RES2 39

@<TRIPOS>CRYSIN
   7.3160   10.7220   32.9700  90.0000  90.0000  90.0000  19 1

