# MOL2 file generated by ConQuest
# Please check atom types

@<TRIPOS>MOLECULE
RAVVES
    43    45     1
SMALL
NO_CHARGES
****
Generated from CSD

@<TRIPOS>ATOM
      1 O1         0.1696    0.7251    7.4244 O.3       1 RES1    0.0000
      2 O2        -0.5865   -1.1791    8.3531 O.2       1 RES1    0.0000
      3 O3         3.3016    4.9431    8.7515 O.2       1 RES1    0.0000
      4 O4         1.8520    4.8007    7.1485 O.2       1 RES1    0.0000
      5 N1         2.3344    4.4107    8.2079 N.pl3     1 RES1    0.0000
      6 C1         0.3470    2.7919    8.5638 C.3       1 RES1    0.0000
      7 H1        -0.1570    3.1824    7.8872 H         1 RES1    0.0000
      8 C2         0.3065    1.3005    8.7556 C.3       1 RES1    0.0000
      9 H2        -0.4439    1.0509    9.3005 H         1 RES1    0.0000
     10 C3         1.6460    0.8854    9.4313 C.3       1 RES1    0.0000
     11 H3         2.0027    0.1043    8.9104 H         1 RES1    0.0000
     12 C4         2.6321    2.0973    9.3046 C.3       1 RES1    0.0000
     13 H4         3.0344    2.2732   10.2086 H         1 RES1    0.0000
     14 C5         1.7297    3.2562    8.8989 C.3       1 RES1    0.0000
     15 C6         0.5758    3.6065    9.8080 C.3       1 RES1    0.0000
     16 H5         0.5470    3.1973   10.6690 H         1 RES1    0.0000
     17 H6         0.2159    4.5165    9.7300 H         1 RES1    0.0000
     18 C7        -0.3078   -0.5366    7.3701 C.2       1 RES1    0.0000
     19 C8        -0.4356   -1.0062    5.9495 C.3       1 RES1    0.0000
     20 H7        -0.8929   -0.3428    5.4038 H         1 RES1    0.0000
     21 H8        -0.8751   -1.8260    5.9367 H         1 RES1    0.0000
     22 H9         0.4851   -1.1254    5.5850 H         1 RES1    0.0000
     23 C9         1.4568    0.4129   10.8746 C.3       1 RES1    0.0000
     24 H10        1.0279    1.1329   11.4257 H         1 RES1    0.0000
     25 H11        2.3411    0.2012   11.3191 H         1 RES1    0.0000
     26 H12        0.8542   -0.4248   10.9248 H         1 RES1    0.0000
     27 C10        3.8115    1.8647    8.3417 C.3       1 RES1    0.0000
     28 H13        4.3096    2.6980    8.2581 H         1 RES1    0.0000
     29 C11        3.4238    1.4496    6.9127 C.3       1 RES1    0.0000
     30 H14        2.9768    0.5664    6.9183 H         1 RES1    0.0000
     31 H15        2.7560    2.0496    6.5325 H         1 RES1    0.0000
     32 C12        4.6628    1.3073    6.0310 C.3       1 RES1    0.0000
     33 H16        4.4349    0.9689    5.1267 H         1 RES1    0.0000
     34 H17        5.1118    2.2135    5.9580 H         1 RES1    0.0000
     35 C13        5.6528    0.3086    6.6305 C.3       1 RES1    0.0000
     36 H18        6.4466    0.2907    6.0752 H         1 RES1    0.0000
     37 H19        5.1880   -0.5590    6.6082 H         1 RES1    0.0000
     38 C14        6.0353    0.7051    8.0581 C.3       1 RES1    0.0000
     39 H20        6.6611    0.0224    8.4734 H         1 RES1    0.0000
     40 H21        6.5481    1.6322    8.0577 H         1 RES1    0.0000
     41 C15        4.7906    0.8452    8.9353 C.3       1 RES1    0.0000
     42 H22        5.0467    1.1403    9.8899 H         1 RES1    0.0000
     43 H23        4.3647   -0.0447    9.0233 H         1 RES1    0.0000
@<TRIPOS>BOND
     1    1    8 1
     2    2   18 2
     3    3    5 2
     4    4    5 2
     5    5   14 1
     6    6    7 1
     7    8    6 1
     8    9    8 1
     9   10    8 1
    10   11   10 1
    11   12   10 1
    12   13   12 1
    13   14    6 1
    14   15    6 1
    15   16   15 1
    16   17   15 1
    17   18    1 1
    18   19   18 1
    19   20   19 1
    20   21   19 1
    21   22   19 1
    22   23   10 1
    23   24   23 1
    24   25   23 1
    25   26   23 1
    26   27   12 1
    27   28   27 1
    28   29   27 1
    29   30   29 1
    30   31   29 1
    31   32   29 1
    32   33   32 1
    33   34   32 1
    34   35   32 1
    35   36   35 1
    36   37   35 1
    37   38   35 1
    38   39   38 1
    39   40   38 1
    40   41   27 1
    41   42   41 1
    42   43   41 1
    43   12   14 1
    44   14   15 1
    45   38   41 1
@<TRIPOS>SUBSTRUCTURE
     1 RES1 1

@<TRIPOS>CRYSIN
   9.5970    7.4530   10.6880  90.0000  94.2700  90.0000   4 1

