# MOL2 file generated by ConQuest
# Please check atom types

@<TRIPOS>MOLECULE
RAVYAP
    96    99     2
SMALL
NO_CHARGES
****
Generated from CSD

@<TRIPOS>ATOM
      1 N1         0.7853    5.9951    4.5633 N.am      1 RES1    0.0000
      2 C1        -0.1170    5.0940    5.0509 C.2       1 RES1    0.0000
      3 C2         0.2173    3.6452    4.9946 C.3       1 RES1    0.0000
      4 H1        -0.5612    3.0863    5.0492 H         1 RES1    0.0000
      5 C3         1.2300    3.3256    6.1051 C.3       1 RES1    0.0000
      6 H2         1.3114    2.3832    6.2722 H         1 RES1    0.0000
      7 H3         0.9848    3.7664    6.9226 H         1 RES1    0.0000
      8 C4         2.5566    3.8846    5.5441 C.3       1 RES1    0.0000
      9 H4         2.7539    4.7289    5.9561 H         1 RES1    0.0000
     10 C5         2.2764    4.1061    4.0265 C.3       1 RES1    0.0000
     11 H5         2.9994    3.7883    3.4803 H         1 RES1    0.0000
     12 C6         1.9237    5.5339    3.7220 C.3       1 RES1    0.0000
     13 H6         1.6154    5.5569    2.8134 H         1 RES1    0.0000
     14 C7         3.0740    6.5379    3.8196 C.3       1 RES1    0.0000
     15 H7         3.8021    6.2617    3.2586 H         1 RES1    0.0000
     16 H8         3.3868    6.5868    4.7265 H         1 RES1    0.0000
     17 C8         2.5551    7.8723    3.3678 C.ar      1 RES1    0.0000
     18 C9         3.2575    8.6879    2.4725 C.ar      1 RES1    0.0000
     19 C10        2.7855    9.9509    2.0902 C.ar      1 RES1    0.0000
     20 C11        1.6056   10.3519    2.6016 C.ar      1 RES1    0.0000
     21 C12        0.8538    9.5418    3.4787 C.ar      1 RES1    0.0000
     22 C13        1.3479    8.3000    3.8329 C.ar      1 RES1    0.0000
     23 C14        0.5354    7.4289    4.7662 C.3       1 RES1    0.0000
     24 H9        -0.3865    7.5795    4.5445 H         1 RES1    0.0000
     25 O1        -1.1502    5.4892    5.6309 O.2       1 RES1    0.0000
     26 N2         1.0351    3.3208    3.8146 N.am      1 RES1    0.0000
     27 C15        0.5303    3.2246    2.5321 C.2       1 RES1    0.0000
     28 O2         1.2361    3.2083    1.5469 O.2       1 RES1    0.0000
     29 O3        -0.8117    3.1160    2.5807 O.3       1 RES1    0.0000
     30 C16       -1.5866    2.9495    1.3140 C.3       1 RES1    0.0000
     31 C17       -1.1901    1.6571    0.6554 C.3       1 RES1    0.0000
     32 H10       -0.2986    1.7189    0.3045 H         1 RES1    0.0000
     33 H11       -1.2274    0.9599    1.3140 H         1 RES1    0.0000
     34 H12       -1.8015    1.4589   -0.0579 H         1 RES1    0.0000
     35 C18       -1.3989    4.1558    0.4253 C.3       1 RES1    0.0000
     36 H13       -0.5086    4.1504    0.0662 H         1 RES1    0.0000
     37 H14       -2.0343    4.1532   -0.2962 H         1 RES1    0.0000
     38 H15       -1.5239    4.9458    0.9566 H         1 RES1    0.0000
     39 C19       -2.9938    2.8898    1.8552 C.3       1 RES1    0.0000
     40 H16       -3.1060    2.1048    2.3964 H         1 RES1    0.0000
     41 H17       -3.1261    3.6729    2.3947 H         1 RES1    0.0000
     42 H18       -3.6356    2.8804    1.1419 H         1 RES1    0.0000
     43 C20        3.7383    2.9853    5.7542 C.2       1 RES1    0.0000
     44 H19        3.5189    2.0565    5.8618 H         1 RES1    0.0000
     45 N3         4.9866    3.1847    5.7079 N.2       1 RES1    0.0000
     46 O4         5.1170    4.5609    5.4564 O.3       1 RES1    0.0000
     47 N4         4.6889    3.7886    6.1250 Du        2 SUP2    0.0000
     48 O5         5.9895    3.3199    6.3782 Du        2 SUP2    0.0000
     49 O6         4.5108    8.2681    2.0149 O.3       1 RES1    0.0000
     50 C21        4.4096    7.4616    0.8242 C.3       1 RES1    0.0000
     51 H20        5.2850    7.1929    0.5379 H         1 RES1    0.0000
     52 H21        3.8795    6.6831    1.0079 H         1 RES1    0.0000
     53 H22        3.9910    7.9780    0.1307 H         1 RES1    0.0000
     54 C22        3.6039   10.8394    1.1833 C.3       1 RES1    0.0000
     55 H23        3.1264   11.6553    1.0194 H         1 RES1    0.0000
     56 H24        4.4443   11.0392    1.6036 H         1 RES1    0.0000
     57 H25        3.7622   10.3881    0.3525 H         1 RES1    0.0000
     58 O7         1.0710   11.6020    2.2221 O.3       1 RES1    0.0000
     59 C23        1.2017   12.6289    3.2056 C.3       1 RES1    0.0000
     60 H26        0.8362   13.4452    2.8564 H         1 RES1    0.0000
     61 H27        0.7272   12.3809    4.0033 H         1 RES1    0.0000
     62 H28        2.1299   12.7567    3.4125 H         1 RES1    0.0000
     63 O8        -0.3230   10.0075    4.0578 O.3       1 RES1    0.0000
     64 C24       -1.4790   10.0708    3.1940 C.3       1 RES1    0.0000
     65 H29       -1.7281    9.1824    2.9309 H         1 RES1    0.0000
     66 H30       -1.2789   10.5796    2.4046 H         1 RES1    0.0000
     67 C25       -2.5807   10.6994    3.9504 C.ar      1 RES1    0.0000
     68 C26       -2.7235   12.0637    3.9719 C.ar      1 RES1    0.0000
     69 H31       -2.1049   12.5920    3.4638 H         1 RES1    0.0000
     70 C27       -3.7669   12.6909    4.6752 C.ar      1 RES1    0.0000
     71 H32       -3.8511   13.6472    4.6901 H         1 RES1    0.0000
     72 C28       -4.6508   11.8892    5.3753 C.ar      1 RES1    0.0000
     73 H33       -5.3826   12.2900    5.8502 H         1 RES1    0.0000
     74 C29       -4.5209   10.5213    5.3968 C.ar      1 RES1    0.0000
     75 H34       -5.1282    9.9723    5.8982 H         1 RES1    0.0000
     76 C30       -3.4853    9.9417    4.6901 C.ar      1 RES1    0.0000
     77 H35       -3.3785    8.9871    4.6951 H         1 RES1    0.0000
     78 C31        0.7276    7.8137    6.2375 C.3       1 RES1    0.0000
     79 H36        0.2948    7.1592    6.7902 H         1 RES1    0.0000
     80 H37        0.3425    8.6730    6.4228 H         1 RES1    0.0000
     81 O9         2.1185    7.8346    6.5418 O.3       1 RES1    0.0000
     82 C32        2.3422    8.0515    7.9470 C.3       1 RES1    0.0000
     83 H38        1.9823    7.3145    8.4452 H         1 RES1    0.0000
     84 H39        1.8972    8.8566    8.2234 H         1 RES1    0.0000
     85 C33        3.7904    8.1970    8.2003 C.ar      1 RES1    0.0000
     86 C34        4.2448    9.1072    9.1386 C.ar      1 RES1    0.0000
     87 H40        3.6116    9.6442    9.6218 H         1 RES1    0.0000
     88 C35        5.6064    9.2413    9.3935 C.ar      1 RES1    0.0000
     89 H41        5.9140    9.8673   10.0538 H         1 RES1    0.0000
     90 C36        6.5266    8.4912    8.6934 C.ar      1 RES1    0.0000
     91 H42        7.4673    8.6218    8.8341 H         1 RES1    0.0000
     92 C37        6.0784    7.5663    7.7816 C.ar      1 RES1    0.0000
     93 H43        6.7100    7.0096    7.3198 H         1 RES1    0.0000
     94 C38        4.7242    7.4343    7.5499 C.ar      1 RES1    0.0000
     95 H44        4.4232    6.7882    6.9077 H         1 RES1    0.0000
     96 H45        6.0357    4.8397    5.6930 H         1 RES1    0.0000
@<TRIPOS>BOND
     1    1    2 1
     2    2    3 1
     3    3    4 1
     4    5    3 1
     5    6    5 1
     6    7    5 1
     7    8    5 1
     8    9    8 1
     9   10    8 1
    10   11   10 1
    11   12    1 1
    12   13   12 1
    13   14   12 1
    14   15   14 1
    15   16   14 1
    16   17   14 1
    17   18   17 ar
    18   19   18 ar
    19   20   19 ar
    20   21   20 ar
    21   22   17 ar
    22   23    1 1
    23   24   23 1
    24   25    2 2
    25   26    3 1
    26   27   26 1
    27   28   27 2
    28   29   27 1
    29   30   29 1
    30   31   30 1
    31   32   31 1
    32   33   31 1
    33   34   31 1
    34   35   30 1
    35   36   35 1
    36   37   35 1
    37   38   35 1
    38   39   30 1
    39   40   39 1
    40   41   39 1
    41   42   39 1
    42   43    8 1
    43   44   43 1
    44   45   43 2
    45   46   45 1
    46   49   18 1
    47   50   49 1
    48   51   50 1
    49   52   50 1
    50   53   50 1
    51   54   19 1
    52   55   54 1
    53   56   54 1
    54   57   54 1
    55   58   20 1
    56   59   58 1
    57   60   59 1
    58   61   59 1
    59   62   59 1
    60   63   21 1
    61   64   63 1
    62   65   64 1
    63   66   64 1
    64   67   64 1
    65   68   67 ar
    66   69   68 1
    67   70   68 ar
    68   71   70 1
    69   72   70 ar
    70   73   72 1
    71   74   72 ar
    72   75   74 1
    73   76   67 ar
    74   77   76 1
    75   78   23 1
    76   79   78 1
    77   80   78 1
    78   81   78 1
    79   82   81 1
    80   83   82 1
    81   84   82 1
    82   85   82 1
    83   86   85 ar
    84   87   86 1
    85   88   86 ar
    86   89   88 1
    87   90   88 ar
    88   91   90 1
    89   92   90 ar
    90   93   92 1
    91   94   85 ar
    92   95   94 1
    93   96   46 1
    94   10   12 1
    95   10   26 1
    96   21   22 ar
    97   22   23 1
    98   74   76 ar
    99   92   94 ar
@<TRIPOS>SUBSTRUCTURE
     1 RES1 1
     2 SUP2 47

@<TRIPOS>CRYSIN
   8.8203   12.4682   16.9791 102.6340  90.7900  98.3780   2 1

