# MOL2 file generated by ConQuest
# Please check atom types

@<TRIPOS>MOLECULE
RAYDUT
   345   324     7
SMALL
NO_CHARGES
****
Generated from CSD

@<TRIPOS>ATOM
      1 C1         4.6694    0.9272    8.8952 C.ar      1 RES1    0.0000
      2 C2         5.5406    1.6297    7.9949 C.ar      1 RES1    0.0000
      3 C3         5.0551    2.8162    7.4124 C.ar      1 RES1    0.0000
      4 H1         5.6131    3.3034    6.8169 H         1 RES1    0.0000
      5 C4         3.7729    3.2949    7.6890 C.ar      1 RES1    0.0000
      6 C5         2.9342    2.5851    8.6037 C.ar      1 RES1    0.0000
      7 H2         2.0651    2.9114    8.8068 H         1 RES1    0.0000
      8 C6         3.3861    1.4466    9.1764 C.ar      1 RES1    0.0000
      9 H3         2.8235    0.9829    9.7865 H         1 RES1    0.0000
     10 C7         7.6851    1.7871    6.7511 C.3       1 RES1    0.0000
     11 H4         7.9203    2.6970    7.0640 H         1 RES1    0.0000
     12 H5         7.2512    1.8684    5.8658 H         1 RES1    0.0000
     13 C8         8.9396    0.9469    6.6311 C.3       1 RES1    0.0000
     14 H6         8.6871    0.0290    6.3601 H         1 RES1    0.0000
     15 H7         9.3754    0.8911    7.5190 H         1 RES1    0.0000
     16 C9         9.9351    1.5006    5.6278 C.3       1 RES1    0.0000
     17 H8        10.1890    2.4194    5.8980 H         1 RES1    0.0000
     18 H9         9.5001    1.5565    4.7410 H         1 RES1    0.0000
     19 C10       11.1929    0.6558    5.5083 C.3       1 RES1    0.0000
     20 H10       11.5957    0.5585    6.4067 H         1 RES1    0.0000
     21 H11       10.9392   -0.2486    5.1941 H         1 RES1    0.0000
     22 C11       12.2364    1.2194    4.5703 C.3       1 RES1    0.0000
     23 H12       12.4857    2.1280    4.8735 H         1 RES1    0.0000
     24 H13       11.8451    1.3004    3.6646 H         1 RES1    0.0000
     25 C12       13.4924    0.3593    4.4947 C.3       1 RES1    0.0000
     26 H14       14.1311    0.7692    3.8759 H         1 RES1    0.0000
     27 H15       13.8956    0.2915    5.3858 H         1 RES1    0.0000
     28 H16       13.2562   -0.5371    4.1750 H         1 RES1    0.0000
     29 C13        4.0153    5.2681    6.2199 C.3       1 RES1    0.0000
     30 H17        4.4001    4.7269    5.4861 H         1 RES1    0.0000
     31 H18        4.7635    5.6878    6.7148 H         1 RES1    0.0000
     32 C14        3.1278    6.3536    5.6342 C.3       1 RES1    0.0000
     33 H19        2.7069    6.8642    6.3709 H         1 RES1    0.0000
     34 H20        2.4058    5.9327    5.1046 H         1 RES1    0.0000
     35 C15        3.9129    7.3098    4.7439 C.3       1 RES1    0.0000
     36 H21        4.6319    7.7323    5.2765 H         1 RES1    0.0000
     37 H22        4.3390    6.7966    4.0120 H         1 RES1    0.0000
     38 C16        3.0343    8.3986    4.1421 C.3       1 RES1    0.0000
     39 H23        2.2849    7.9681    3.6592 H         1 RES1    0.0000
     40 H24        2.6465    8.9344    4.8789 H         1 RES1    0.0000
     41 C17        3.7521    9.3357    3.1872 C.3       1 RES1    0.0000
     42 H25        4.2014    8.8074    2.5093 H         1 RES1    0.0000
     43 H26        3.0960    9.8921    2.7404 H         1 RES1    0.0000
     44 C18        4.8841   10.0020    3.6198 C.3       1 RES1    0.0000
     45 H27        5.2303   10.5627    2.8962 H         1 RES1    0.0000
     46 H28        4.6591   10.5628    4.3900 H         1 RES1    0.0000
     47 H29        5.5659    9.3482    3.8813 H         1 RES1    0.0000
     48 N1         6.7698    1.1674    7.6902 N.3       1 RES1    0.0000
     49 H30        7.0385    0.4325    8.0921 H         1 RES1    0.0000
     50 N2         3.2734    4.4070    7.1122 N.3       1 RES1    0.0000
     51 H31        2.4386    4.6237    7.2915 H         1 RES1    0.0000
     52 N3         5.0176   -0.2714    9.5082 N.pl3     1 RES1    0.0000
     53 O1         6.1599   -0.7960    9.3145 O.2       1 RES1    0.0000
     54 O2         4.2021   -0.8471   10.2565 O.2       1 RES1    0.0000
     55 C19        4.5337   10.4523    4.1195 Du        7 SUP7    0.0000
     56 H32        5.0133   11.0815    3.5428 Du        7 SUP7    0.0000
     57 H33        3.8801   10.9418    4.6622 Du        7 SUP7    0.0000
     58 H34        5.1724    9.9974    4.7088 Du        7 SUP7    0.0000
     59 C20       -1.6684    5.3715    8.5850 C.ar      2 RES2    0.0000
     60 C21       -2.1477    6.5455    7.9177 C.ar      2 RES2    0.0000
     61 C22       -3.4588    6.9667    8.2085 C.ar      2 RES2    0.0000
     62 H35       -3.8054    7.7339    7.7697 H         2 RES2    0.0000
     63 C23       -4.2650    6.2900    9.1227 C.ar      2 RES2    0.0000
     64 C24       -3.7596    5.1251    9.7686 C.ar      2 RES2    0.0000
     65 H36       -4.3021    4.6511   10.3883 H         2 RES2    0.0000
     66 C25       -2.5061    4.6930    9.4999 C.ar      2 RES2    0.0000
     67 H37       -2.1803    3.9149    9.9369 H         2 RES2    0.0000
     68 C26       -1.7728    8.4574    6.3809 C.3       2 RES2    0.0000
     69 H38       -1.9729    9.1563    7.0533 H         2 RES2    0.0000
     70 H39       -2.5896    8.3011    5.8443 H         2 RES2    0.0000
     71 C27       -0.6458    8.9202    5.4789 C.3       2 RES2    0.0000
     72 H40       -0.4358    8.2020    4.8306 H         2 RES2    0.0000
     73 H41        0.1631    9.0772    6.0288 H         2 RES2    0.0000
     74 C28       -0.9817   10.1904    4.7166 C.3       2 RES2    0.0000
     75 H42       -1.1780   10.9130    5.3643 H         2 RES2    0.0000
     76 H43       -1.7997   10.0370    4.1804 H         2 RES2    0.0000
     77 C29        0.1403   10.6449    3.7921 C.3       2 RES2    0.0000
     78 H44        0.9356   10.8666    4.3398 H         2 RES2    0.0000
     79 H45        0.3856    9.8950    3.1953 H         2 RES2    0.0000
     80 C30       -0.2208   11.8485    2.9410 C.3       2 RES2    0.0000
     81 H46       -1.0168   11.6301    2.3947 H         2 RES2    0.0000
     82 H47       -0.4603   12.6033    3.5356 H         2 RES2    0.0000
     83 C31        0.9034   12.2842    2.0202 C.3       2 RES2    0.0000
     84 H48        0.6152   13.0620    1.4973 H         2 RES2    0.0000
     85 H49        1.6890   12.5236    2.5541 H         2 RES2    0.0000
     86 H50        1.1332   11.5487    1.4132 H         2 RES2    0.0000
     87 C32       -6.1814    7.8285    8.8279 C.3       2 RES2    0.0000
     88 H51       -6.2820    7.6595    7.8575 H         2 RES2    0.0000
     89 H52       -5.6266    8.6417    8.9393 H         2 RES2    0.0000
     90 C33       -7.5475    8.0625    9.4419 C.3       2 RES2    0.0000
     91 H53       -7.4391    8.3823   10.3722 H         2 RES2    0.0000
     92 H54       -8.0460    7.2068    9.4695 H         2 RES2    0.0000
     93 C34       -8.3528    9.0936    8.6415 C.3       2 RES2    0.0000
     94 H55       -7.8436    9.9426    8.6115 H         2 RES2    0.0000
     95 H56       -8.4506    8.7698    7.7106 H         2 RES2    0.0000
     96 C35       -9.7157    9.3675    9.2049 C.3       2 RES2    0.0000
     97 H57       -9.6122    9.7272   10.1214 H         2 RES2    0.0000
     98 H58      -10.2079    8.5121    9.2724 H         2 RES2    0.0000
     99 C36      -10.5547   10.3484    8.3887 C.3       2 RES2    0.0000
    100 H59      -11.3472   10.5780    8.8981 H         2 RES2    0.0000
    101 H60      -10.0443   11.1614    8.2569 H         2 RES2    0.0000
    102 C37      -10.7335   10.0797    6.8993 C.3       2 RES2    0.0000
    103 H61      -11.2899   10.7833    6.5052 H         2 RES2    0.0000
    104 H62       -9.8575   10.0710    6.4622 H         2 RES2    0.0000
    105 H63      -11.1696    9.2093    6.7757 H         2 RES2    0.0000
    106 N4        -1.3813    7.2289    7.0494 N.3       2 RES2    0.0000
    107 H64       -0.5815    6.9065    6.8724 H         2 RES2    0.0000
    108 N5        -5.5094    6.6980    9.4474 N.3       2 RES2    0.0000
    109 H65       -5.9407    6.2523   10.0731 H         2 RES2    0.0000
    110 N6        -0.3870    4.8495    8.3887 N.pl3     2 RES2    0.0000
    111 O3         0.4076    5.3859    7.5668 O.2       2 RES2    0.0000
    112 O4        -0.0304    3.8403    9.0285 O.2       2 RES2    0.0000
    113 C38      -11.2474    9.5653    7.2199 Du        7 SUP7    0.0000
    114 H66      -11.7903   10.1846    6.6879 Du        7 SUP7    0.0000
    115 H67      -10.5625    9.1560    6.6503 Du        7 SUP7    0.0000
    116 H68      -11.8215    8.8637    7.5924 Du        7 SUP7    0.0000
    117 C39       -7.8450    3.7230   13.0799 C.ar      3 RES3    0.0000
    118 C40       -9.1323    4.2566   13.4172 C.ar      3 RES3    0.0000
    119 C41       -9.8819    3.5856   14.4001 C.ar      3 RES3    0.0000
    120 H69      -10.7395    3.9189   14.6385 H         3 RES3    0.0000
    121 C42       -9.3939    2.4390   15.0346 C.ar      3 RES3    0.0000
    122 C43       -8.1098    1.9285   14.6776 C.ar      3 RES3    0.0000
    123 H70       -7.7715    1.1490   15.1042 H         3 RES3    0.0000
    124 C44       -7.3739    2.5553   13.7303 C.ar      3 RES3    0.0000
    125 H71       -6.5218    2.2043   13.4958 H         3 RES3    0.0000
    126 C45      -10.9411    5.9213   13.0370 C.3       3 RES3    0.0000
    127 H72      -11.0474    6.1809   13.9866 H         3 RES3    0.0000
    128 H73      -11.6289    5.2416   12.8224 H         3 RES3    0.0000
    129 C46      -11.1235    7.1378   12.1466 C.3       3 RES3    0.0000
    130 H74      -10.9998    6.8682   11.2014 H         3 RES3    0.0000
    131 H75      -10.4256    7.8049   12.3639 H         3 RES3    0.0000
    132 C47      -12.4912    7.7811   12.3039 C.3       3 RES3    0.0000
    133 H76      -12.6244    8.0208   13.2540 H         3 RES3    0.0000
    134 H77      -13.1866    7.1207   12.0576 H         3 RES3    0.0000
    135 C48      -12.6711    9.0284   11.4495 C.3       3 RES3    0.0000
    136 H78      -11.9315    9.6582   11.6403 H         3 RES3    0.0000
    137 H79      -12.6118    8.7753   10.4940 H         3 RES3    0.0000
    138 C49      -13.9964    9.7342   11.6926 C.3       3 RES3    0.0000
    139 H80      -14.7352    9.0968   11.5292 H         3 RES3    0.0000
    140 H81      -14.0422   10.0145   12.6415 H         3 RES3    0.0000
    141 C50      -14.1930   10.9521   10.8085 C.3       3 RES3    0.0000
    142 H82      -15.0602   11.3650   11.0080 H         3 RES3    0.0000
    143 H83      -13.4755   11.5978   10.9794 H         3 RES3    0.0000
    144 H84      -14.1703   10.6801    9.8671 H         3 RES3    0.0000
    145 C51      -11.4190    2.1218   16.4375 C.3       3 RES3    0.0000
    146 H85      -12.0497    2.1175   15.6738 H         3 RES3    0.0000
    147 H86      -11.4030    3.0357   16.8183 H         3 RES3    0.0000
    148 C52      -11.8920    1.1434   17.4900 C.3       3 RES3    0.0000
    149 H87      -11.2485    1.1222   18.2153 H         3 RES3    0.0000
    150 H88      -11.9360    0.2545   17.1031 H         3 RES3    0.0000
    151 C53      -13.3367    1.1444   17.9413 C.3       3 RES3    0.0000
    152 H89      -13.5475    0.2993   18.4142 H         3 RES3    0.0000
    153 H90      -13.9390    1.2221   17.1586 H         3 RES3    0.0000
    154 C54      -13.5431    2.3380   18.8834 C.3       3 RES3    0.0000
    155 H91      -12.9492    2.2309   19.6661 H         3 RES3    0.0000
    156 H92      -13.2710    3.1651   18.4124 H         3 RES3    0.0000
    157 C55      -14.9746    2.5039   19.3742 C.3       3 RES3    0.0000
    158 H93      -15.5764    2.5964   18.5933 H         3 RES3    0.0000
    159 H94      -15.2438    1.6906   19.8703 H         3 RES3    0.0000
    160 C56      -15.1366    3.6964   20.2608 C.3       3 RES3    0.0000
    161 H95      -16.0706    3.7625   20.5509 H         3 RES3    0.0000
    162 H96      -14.5572    3.6006   21.0453 H         3 RES3    0.0000
    163 H97      -14.8898    4.5065   19.7682 H         3 RES3    0.0000
    164 N7        -9.6140    5.3668   12.8215 N.3       3 RES3    0.0000
    165 H98       -9.0842    5.7880   12.2582 H         3 RES3    0.0000
    166 N8       -10.0931    1.7667   15.9742 N.3       3 RES3    0.0000
    167 H99       -9.7136    1.0589   16.3329 H         3 RES3    0.0000
    168 N9        -6.9963    4.3089   12.1391 N.pl3     3 RES3    0.0000
    169 O5        -7.3242    5.3826   11.5559 O.2       3 RES3    0.0000
    170 O6        -5.8986    3.7763   11.8797 O.2       3 RES3    0.0000
    171 C57      -13.1907    1.8256   18.1007 Du        7 SUP7    0.0000
    172 H100     -12.9846    2.7551   18.3730 Du        7 SUP7    0.0000
    173 H101     -13.9065    1.8539   17.4165 Du        7 SUP7    0.0000
    174 C58      -13.6586    1.0424   19.2900 Du        7 SUP7    0.0000
    175 H102     -12.9215    0.9900   19.9491 Du        7 SUP7    0.0000
    176 H103     -13.8684    0.1178   19.0016 Du        7 SUP7    0.0000
    177 C59      -14.8848    1.6352   19.9706 Du        7 SUP7    0.0000
    178 H104     -15.2370    0.9679   20.6100 Du        7 SUP7    0.0000
    179 H105     -15.5809    1.7796   19.2810 Du        7 SUP7    0.0000
    180 C60      -14.6747    2.9488   20.7193 Du        7 SUP7    0.0000
    181 H106     -15.5243    3.2386   21.1151 Du        7 SUP7    0.0000
    182 H107     -14.0113    2.8194   21.4268 Du        7 SUP7    0.0000
    183 H108     -14.3567    3.6343   20.0942 Du        7 SUP7    0.0000
    184 C61       -7.6554   -2.5446   17.6522 C.ar      4 RES4    0.0000
    185 C62       -8.4951   -3.2204   18.5888 C.ar      4 RES4    0.0000
    186 C63       -7.9834   -4.3789   19.2053 C.ar      4 RES4    0.0000
    187 H109      -8.5207   -4.8433   19.8363 H         4 RES4    0.0000
    188 C64       -6.7064   -4.8614   18.9117 C.ar      4 RES4    0.0000
    189 C65       -5.8953   -4.1627   17.9685 C.ar      4 RES4    0.0000
    190 H110      -5.0259   -4.4820   17.7622 H         4 RES4    0.0000
    191 C66       -6.3633   -3.0472   17.3691 C.ar      4 RES4    0.0000
    192 H111      -5.8140   -2.5889   16.7431 H         4 RES4    0.0000
    193 C67      -10.6202   -3.3494   19.8787 C.3       4 RES4    0.0000
    194 H112     -10.1538   -3.3934   20.7515 H         4 RES4    0.0000
    195 H113     -10.8806   -4.2685   19.6196 H         4 RES4    0.0000
    196 C68      -11.8588   -2.4773   19.9989 C.3       4 RES4    0.0000
    197 H114     -12.3303   -2.4668   19.1288 H         4 RES4    0.0000
    198 H115     -11.5815   -1.5490   20.2034 H         4 RES4    0.0000
    199 C69      -12.8195   -2.9540   21.0766 C.3       4 RES4    0.0000
    200 H116     -12.3232   -3.0565   21.9283 H         4 RES4    0.0000
    201 H117     -13.1708   -3.8443   20.8232 H         4 RES4    0.0000
    202 C70      -13.9912   -2.0000   21.2951 C.3       4 RES4    0.0000
    203 H118     -13.6373   -1.1117   21.5503 H         4 RES4    0.0000
    204 H119     -14.4828   -1.8963   20.4417 H         4 RES4    0.0000
    205 C71      -14.9561   -2.4668   22.3626 C.3       4 RES4    0.0000
    206 H120     -14.4531   -2.6425   23.1981 H         4 RES4    0.0000
    207 H121     -15.3697   -3.3185   22.0733 H         4 RES4    0.0000
    208 C72      -16.0548   -1.4526   22.6470 C.3       4 RES4    0.0000
    209 H122     -16.6507   -1.8034   23.3432 H         4 RES4    0.0000
    210 H123     -15.6538   -0.6129   22.9528 H         4 RES4    0.0000
    211 H124     -16.5680   -1.2907   21.8280 H         4 RES4    0.0000
    212 C73       -6.9116   -6.7899   20.4350 C.3       4 RES4    0.0000
    213 H125      -7.7744   -7.0666   20.0369 H         4 RES4    0.0000
    214 H126      -7.1082   -6.2588   21.2476 H         4 RES4    0.0000
    215 C74       -6.1239   -8.0253   20.8237 C.3       4 RES4    0.0000
    216 H127      -5.2886   -7.7530   21.2799 H         4 RES4    0.0000
    217 H128      -5.8756   -8.5262   20.0064 H         4 RES4    0.0000
    218 C75       -6.9350   -8.9300   21.7481 C.3       4 RES4    0.0000
    219 H129      -7.1739   -8.4261   22.5659 H         4 RES4    0.0000
    220 H130      -7.7757   -9.1855   21.2924 H         4 RES4    0.0000
    221 C76       -6.1822  -10.1917   22.1464 C.3       4 RES4    0.0000
    222 H131      -5.3392   -9.9309   22.5945 H         4 RES4    0.0000
    223 H132      -5.9444  -10.6925   21.3265 H         4 RES4    0.0000
    224 C77       -6.9674  -11.1204   23.0787 C.3       4 RES4    0.0000
    225 H133      -7.8472  -11.3152   22.6698 H         4 RES4    0.0000
    226 H134      -6.4794  -11.9768   23.1623 H         4 RES4    0.0000
    227 C78       -7.1874  -10.5473   24.4592 C.3       4 RES4    0.0000
    228 H135      -7.6919  -11.1880   25.0018 H         4 RES4    0.0000
    229 H136      -6.3206  -10.3720   24.8818 H         4 RES4    0.0000
    230 H137      -7.6921   -9.7103   24.3892 H         4 RES4    0.0000
    231 N10       -9.7388   -2.7842   18.8750 N.3       4 RES4    0.0000
    232 H138     -10.0420   -2.0979   18.4142 H         4 RES4    0.0000
    233 N11       -6.1932   -5.9656   19.4899 N.3       4 RES4    0.0000
    234 H139      -5.3710   -6.1984   19.2792 H         4 RES4    0.0000
    235 N12       -8.0364   -1.3704   16.9915 N.pl3     4 RES4    0.0000
    236 O7        -9.1812   -0.8679   17.1813 O.2       4 RES4    0.0000
    237 O8        -7.2421   -0.8241   16.2068 O.2       4 RES4    0.0000
    238 C79       -1.2981   -6.9836   18.0013 C.ar      5 RES5    0.0000
    239 C80       -0.7947   -8.1405   18.6805 C.ar      5 RES5    0.0000
    240 C81        0.5014   -8.5729   18.3452 C.ar      5 RES5    0.0000
    241 H140       0.8640   -9.3311   18.7885 H         5 RES5    0.0000
    242 C82        1.2701   -7.9229   17.3814 C.ar      5 RES5    0.0000
    243 C83        0.7365   -6.7714   16.7200 C.ar      5 RES5    0.0000
    244 H141       1.2490   -6.3186   16.0607 H         5 RES5    0.0000
    245 C84       -0.5012   -6.3312   17.0382 C.ar      5 RES5    0.0000
    246 H142      -0.8441   -5.5609   16.6016 H         5 RES5    0.0000
    247 C85       -1.1169  -10.0021   20.3025 C.3       5 RES5    0.0000
    248 H143      -0.2970   -9.8361   20.8303 H         5 RES5    0.0000
    249 H144      -0.9220  -10.7115   19.6410 H         5 RES5    0.0000
    250 C86       -2.2387  -10.4487   21.2204 C.3       5 RES5    0.0000
    251 H145      -3.0729  -10.5262   20.6924 H         5 RES5    0.0000
    252 H146      -2.3834   -9.7549   21.9121 H         5 RES5    0.0000
    253 C87       -1.9677  -11.7763   21.9073 C.3       5 RES5    0.0000
    254 H147      -1.2070  -11.6670   22.5319 H         5 RES5    0.0000
    255 H148      -1.7072  -12.4458   21.2262 H         5 RES5    0.0000
    256 C88       -3.1743  -12.2960   22.6782 C.3       5 RES5    0.0000
    257 H149      -3.4048  -11.6458   23.3880 H         5 RES5    0.0000
    258 H150      -3.9470  -12.3553   22.0608 H         5 RES5    0.0000
    259 C89       -2.9492  -13.6512   23.3129 C.3       5 RES5    0.0000
    260 H151      -2.2094  -13.5805   23.9665 H         5 RES5    0.0000
    261 H152      -2.6739  -14.2927   22.6125 H         5 RES5    0.0000
    262 C90       -4.1835  -14.1912   24.0181 C.3       5 RES5    0.0000
    263 H153      -3.9792  -15.0671   24.4089 H         5 RES5    0.0000
    264 H154      -4.4518  -13.5718   24.7277 H         5 RES5    0.0000
    265 H155      -4.9140  -14.2832   23.3719 H         5 RES5    0.0000
    266 C91        3.1565   -9.4868   17.6221 C.3       5 RES5    0.0000
    267 H156       2.5754  -10.2811   17.5168 H         5 RES5    0.0000
    268 H157       3.2784   -9.3270   18.5915 H         5 RES5    0.0000
    269 C92        4.5062   -9.7717   16.9918 C.3       5 RES5    0.0000
    270 H158       5.0977   -8.9865   17.1084 H         5 RES5    0.0000
    271 H159       4.3901   -9.9284   16.0213 H         5 RES5    0.0000
    272 C93        5.1551  -10.9973   17.6338 C.3       5 RES5    0.0000
    273 H160       5.2951  -10.8204   18.5968 H         5 RES5    0.0000
    274 H161       4.5376  -11.7671   17.5544 H         5 RES5    0.0000
    275 C94        6.4904  -11.3636   16.9976 C.3       5 RES5    0.0000
    276 H162       7.0768  -10.5657   17.0046 H         5 RES5    0.0000
    277 H163       6.3345  -11.6117   16.0517 H         5 RES5    0.0000
    278 C95        7.2212  -12.5166   17.6957 C.3       5 RES5    0.0000
    279 H164       8.1272  -12.6021   17.3037 H         5 RES5    0.0000
    280 H165       7.3279  -12.2905   18.6542 H         5 RES5    0.0000
    281 C96        6.5258  -13.8410   17.5895 C.3       5 RES5    0.0000
    282 H166       7.0492  -14.5250   18.0577 H         5 RES5    0.0000
    283 H167       5.6356  -13.7766   17.9968 H         5 RES5    0.0000
    284 H168       6.4354  -14.0874   16.6446 H         5 RES5    0.0000
    285 N13       -1.5157   -8.7862   19.6176 N.3       5 RES5    0.0000
    286 H169      -2.2958   -8.4403   19.8327 H         5 RES5    0.0000
    287 N14        2.5021   -8.3362   17.0295 N.3       5 RES5    0.0000
    288 H170       2.9318   -7.8849   16.4081 H         5 RES5    0.0000
    289 N15       -2.5747   -6.4583   18.2345 N.pl3     5 RES5    0.0000
    290 O9        -3.3616   -7.0110   19.0541 O.2       5 RES5    0.0000
    291 O10       -2.9311   -5.4301   17.6218 O.2       5 RES5    0.0000
    292 C97        4.7929   -5.3275   13.4672 C.ar      6 RES6    0.0000
    293 C98        6.0626   -5.8919   13.1043 C.ar      6 RES6    0.0000
    294 C99        6.8139   -5.2207   12.1289 C.ar      6 RES6    0.0000
    295 H171       7.6562   -5.5747   11.8695 H         6 RES6    0.0000
    296 C100       6.3576   -4.0447   11.5271 C.ar      6 RES6    0.0000
    297 C101       5.0784   -3.5216   11.8896 C.ar      6 RES6    0.0000
    298 H172       4.7506   -2.7327   11.4755 H         6 RES6    0.0000
    299 C102       4.3407   -4.1533   12.8215 C.ar      6 RES6    0.0000
    300 H173       3.4903   -3.7995   13.0534 H         6 RES6    0.0000
    301 C103       7.8106   -7.6411   13.4068 C.3       6 RES6    0.0000
    302 H174       8.5358   -6.9983   13.6087 H         6 RES6    0.0000
    303 H175       7.8721   -7.8899   12.4498 H         6 RES6    0.0000
    304 C104       7.9617   -8.8829   14.2751 C.3       6 RES6    0.0000
    305 H176       7.7864   -8.6412   15.2189 H         6 RES6    0.0000
    306 H177       7.2845   -9.5504   14.0027 H         6 RES6    0.0000
    307 C105       9.3460   -9.5105   14.1747 C.3       6 RES6    0.0000
    308 H178       9.5059   -9.7890   13.2379 H         6 RES6    0.0000
    309 H179      10.0254   -8.8294   14.4075 H         6 RES6    0.0000
    310 C106       9.5209  -10.7149   15.0870 C.3       6 RES6    0.0000
    311 H180       8.8991  -11.4283   14.7979 H         6 RES6    0.0000
    312 H181       9.2762  -10.4555   16.0105 H         6 RES6    0.0000
    313 C107      10.9381  -11.2679   15.0895 C.3       6 RES6    0.0000
    314 H182      11.5601  -10.5607   15.3944 H         6 RES6    0.0000
    315 H183      11.1910  -11.5165   14.1657 H         6 RES6    0.0000
    316 C108      11.0881  -12.4875   15.9912 C.3       6 RES6    0.0000
    317 H184      12.0151  -12.8054   15.9586 H         6 RES6    0.0000
    318 H185      10.8584  -12.2426   16.9114 H         6 RES6    0.0000
    319 H186      10.4875  -13.1984   15.6827 H         6 RES6    0.0000
    320 C109       8.4002   -3.7595   10.1726 C.3       6 RES6    0.0000
    321 H187       8.3361   -4.6192    9.6862 H         6 RES6    0.0000
    322 H188       8.9820   -3.8985   10.9614 H         6 RES6    0.0000
    323 C110       9.0295   -2.7167    9.2658 C.3       6 RES6    0.0000
    324 H189       9.1001   -1.8569    9.7507 H         6 RES6    0.0000
    325 H190       8.4522   -2.5751    8.4736 H         6 RES6    0.0000
    326 C111      10.4154   -3.1574    8.8107 C.3       6 RES6    0.0000
    327 H191      10.9695   -3.3481    9.6092 H         6 RES6    0.0000
    328 H192      10.3317   -3.9965    8.2927 H         6 RES6    0.0000
    329 C112      11.1228   -2.1193    7.9551 C.3       6 RES6    0.0000
    330 H193      11.2062   -1.2822    8.4772 H         6 RES6    0.0000
    331 H194      10.5610   -1.9252    7.1643 H         6 RES6    0.0000
    332 C113      12.5150   -2.5422    7.4771 C.3       6 RES6    0.0000
    333 H195      12.9809   -1.7522    7.1052 H         6 RES6    0.0000
    334 H196      13.0370   -2.8625    8.2551 H         6 RES6    0.0000
    335 C114      12.4805   -3.6280    6.4300 C.3       6 RES6    0.0000
    336 H197      13.3958   -3.8545    6.1649 H         6 RES6    0.0000
    337 H198      12.0411   -4.4221    6.7972 H         6 RES6    0.0000
    338 H199      11.9831   -3.3119    5.6473 H         6 RES6    0.0000
    339 N16        6.5206   -7.0280   13.6751 N.3       6 RES6    0.0000
    340 H200       5.9955   -7.4295   14.2570 H         6 RES6    0.0000
    341 N17        7.0790   -3.3637   10.6179 N.3       6 RES6    0.0000
    342 H201       6.7266   -2.6347   10.2737 H         6 RES6    0.0000
    343 N18        3.9546   -5.8836   14.4361 N.pl3     6 RES6    0.0000
    344 O11        4.2878   -6.9544   15.0342 O.2       6 RES6    0.0000
    345 O12        2.8822   -5.3234   14.7251 O.2       6 RES6    0.0000
@<TRIPOS>BOND
     1    1    2 ar
     2    2    3 ar
     3    3    4 1
     4    5    3 ar
     5    6    5 ar
     6    7    6 1
     7    8    1 ar
     8    9    8 1
     9   10   11 1
    10   12   10 1
    11   13   10 1
    12   14   13 1
    13   15   13 1
    14   16   13 1
    15   17   16 1
    16   18   16 1
    17   19   16 1
    18   20   19 1
    19   21   19 1
    20   22   19 1
    21   23   22 1
    22   24   22 1
    23   25   22 1
    24   26   25 1
    25   27   25 1
    26   28   25 1
    27   29   30 1
    28   31   29 1
    29   32   29 1
    30   33   32 1
    31   34   32 1
    32   35   32 1
    33   36   35 1
    34   37   35 1
    35   38   35 1
    36   39   38 1
    37   40   38 1
    38   41   38 1
    39   42   41 1
    40   43   41 1
    41   44   41 1
    42   45   44 1
    43   46   44 1
    44   47   44 1
    45   48    2 1
    46   49   48 1
    47   50    5 1
    48   51   50 1
    49   52    1 1
    50   53   52 2
    51   54   52 2
    52   59   60 ar
    53   60   61 ar
    54   61   62 1
    55   63   61 ar
    56   64   63 ar
    57   65   64 1
    58   66   59 ar
    59   67   66 1
    60   68   69 1
    61   70   68 1
    62   71   68 1
    63   72   71 1
    64   73   71 1
    65   74   71 1
    66   75   74 1
    67   76   74 1
    68   77   74 1
    69   78   77 1
    70   79   77 1
    71   80   77 1
    72   81   80 1
    73   82   80 1
    74   83   80 1
    75   84   83 1
    76   85   83 1
    77   86   83 1
    78   87   88 1
    79   89   87 1
    80   90   87 1
    81   91   90 1
    82   92   90 1
    83   93   90 1
    84   94   93 1
    85   95   93 1
    86   96   93 1
    87   97   96 1
    88   98   96 1
    89   99   96 1
    90  100   99 1
    91  101   99 1
    92  102   99 1
    93  103  102 1
    94  104  102 1
    95  105  102 1
    96  106   60 1
    97  107  106 1
    98  108   63 1
    99  109  108 1
   100  110   59 1
   101  111  110 2
   102  112  110 2
   103  117  118 ar
   104  118  119 ar
   105  119  120 1
   106  121  119 ar
   107  122  121 ar
   108  123  122 1
   109  124  117 ar
   110  125  124 1
   111  126  127 1
   112  128  126 1
   113  129  126 1
   114  130  129 1
   115  131  129 1
   116  132  129 1
   117  133  132 1
   118  134  132 1
   119  135  132 1
   120  136  135 1
   121  137  135 1
   122  138  135 1
   123  139  138 1
   124  140  138 1
   125  141  138 1
   126  142  141 1
   127  143  141 1
   128  144  141 1
   129  145  146 1
   130  147  145 1
   131  148  145 1
   132  149  148 1
   133  150  148 1
   134  151  148 1
   135  152  151 1
   136  153  151 1
   137  154  151 1
   138  155  154 1
   139  156  154 1
   140  157  154 1
   141  158  157 1
   142  159  157 1
   143  160  157 1
   144  161  160 1
   145  162  160 1
   146  163  160 1
   147  164  118 1
   148  165  164 1
   149  166  121 1
   150  167  166 1
   151  168  117 1
   152  169  168 2
   153  170  168 2
   154  184  185 ar
   155  185  186 ar
   156  186  187 1
   157  188  186 ar
   158  189  188 ar
   159  190  189 1
   160  191  184 ar
   161  192  191 1
   162  193  194 1
   163  195  193 1
   164  196  193 1
   165  197  196 1
   166  198  196 1
   167  199  196 1
   168  200  199 1
   169  201  199 1
   170  202  199 1
   171  203  202 1
   172  204  202 1
   173  205  202 1
   174  206  205 1
   175  207  205 1
   176  208  205 1
   177  209  208 1
   178  210  208 1
   179  211  208 1
   180  212  213 1
   181  214  212 1
   182  215  212 1
   183  216  215 1
   184  217  215 1
   185  218  215 1
   186  219  218 1
   187  220  218 1
   188  221  218 1
   189  222  221 1
   190  223  221 1
   191  224  221 1
   192  225  224 1
   193  226  224 1
   194  227  224 1
   195  228  227 1
   196  229  227 1
   197  230  227 1
   198  231  185 1
   199  232  231 1
   200  233  188 1
   201  234  233 1
   202  235  184 1
   203  236  235 2
   204  237  235 2
   205  238  239 ar
   206  239  240 ar
   207  240  241 1
   208  242  240 ar
   209  243  242 ar
   210  244  243 1
   211  245  238 ar
   212  246  245 1
   213  247  248 1
   214  249  247 1
   215  250  247 1
   216  251  250 1
   217  252  250 1
   218  253  250 1
   219  254  253 1
   220  255  253 1
   221  256  253 1
   222  257  256 1
   223  258  256 1
   224  259  256 1
   225  260  259 1
   226  261  259 1
   227  262  259 1
   228  263  262 1
   229  264  262 1
   230  265  262 1
   231  266  267 1
   232  268  266 1
   233  269  266 1
   234  270  269 1
   235  271  269 1
   236  272  269 1
   237  273  272 1
   238  274  272 1
   239  275  272 1
   240  276  275 1
   241  277  275 1
   242  278  275 1
   243  279  278 1
   244  280  278 1
   245  281  278 1
   246  282  281 1
   247  283  281 1
   248  284  281 1
   249  285  239 1
   250  286  285 1
   251  287  242 1
   252  288  287 1
   253  289  238 1
   254  290  289 2
   255  291  289 2
   256  292  293 ar
   257  293  294 ar
   258  294  295 1
   259  296  294 ar
   260  297  296 ar
   261  298  297 1
   262  299  292 ar
   263  300  299 1
   264  301  302 1
   265  303  301 1
   266  304  301 1
   267  305  304 1
   268  306  304 1
   269  307  304 1
   270  308  307 1
   271  309  307 1
   272  310  307 1
   273  311  310 1
   274  312  310 1
   275  313  310 1
   276  314  313 1
   277  315  313 1
   278  316  313 1
   279  317  316 1
   280  318  316 1
   281  319  316 1
   282  320  321 1
   283  322  320 1
   284  323  320 1
   285  324  323 1
   286  325  323 1
   287  326  323 1
   288  327  326 1
   289  328  326 1
   290  329  326 1
   291  330  329 1
   292  331  329 1
   293  332  329 1
   294  333  332 1
   295  334  332 1
   296  335  332 1
   297  336  335 1
   298  337  335 1
   299  338  335 1
   300  339  293 1
   301  340  339 1
   302  341  296 1
   303  342  341 1
   304  343  292 1
   305  344  343 2
   306  345  343 2
   307    6    8 ar
   308   10   48 1
   309   29   50 1
   310   64   66 ar
   311   68  106 1
   312   87  108 1
   313  122  124 ar
   314  126  164 1
   315  145  166 1
   316  189  191 ar
   317  193  231 1
   318  212  233 1
   319  243  245 ar
   320  247  285 1
   321  266  287 1
   322  297  299 ar
   323  301  339 1
   324  320  341 1
@<TRIPOS>SUBSTRUCTURE
     1 RES1 1
     2 RES2 59
     3 RES3 117
     4 RES4 184
     5 RES5 238
     6 RES6 292
     7 SUP7 55

@<TRIPOS>CRYSIN
  18.3214   18.6127   20.0953 104.1470 105.2260 111.9870   2 1

