# MOL2 file generated by ConQuest
# Please check atom types

@<TRIPOS>MOLECULE
RAYFEF
   792   792    12
SMALL
NO_CHARGES
****
Generated from CSD

@<TRIPOS>ATOM
      1 C1         2.8396    7.9684    9.9701 C.ar      1 RES1    0.0000
      2 C2         2.1881    7.6885    8.7744 C.ar      1 RES1    0.0000
      3 C3         2.6201    6.6347    7.9776 C.ar      1 RES1    0.0000
      4 H1         2.1757    6.4439    7.1595 H         1 RES1    0.0000
      5 C4         3.7037    5.8606    8.3765 C.ar      1 RES1    0.0000
      6 C5         4.3550    6.1404    9.5720 C.ar      1 RES1    0.0000
      7 H2         5.0951    5.6125    9.8434 H         1 RES1    0.0000
      8 C6         3.9241    7.1950   10.3688 C.ar      1 RES1    0.0000
      9 H3         4.3677    7.3844   11.1866 H         1 RES1    0.0000
     10 C7         0.3611    8.2812    7.1367 C.3       1 RES1    0.0000
     11 H4        -0.0475    7.3804    7.1241 H         1 RES1    0.0000
     12 H5         0.9885    8.3442    6.3713 H         1 RES1    0.0000
     13 C8        -0.7241    9.3370    6.9923 C.3       1 RES1    0.0000
     14 H6        -1.3094    9.2991    7.7906 H         1 RES1    0.0000
     15 H7        -0.2967   10.2293    6.9771 H         1 RES1    0.0000
     16 C9        -1.5698    9.1967    5.7783 C.3       1 RES1    0.0000
     17 H8        -1.9770    8.2936    5.7834 H         1 RES1    0.0000
     18 H9        -0.9870    9.2567    4.9800 H         1 RES1    0.0000
     19 C10       -2.6787   10.2229    5.6364 C.3       1 RES1    0.0000
     20 H10       -3.2951   10.1421    6.4068 H         1 RES1    0.0000
     21 H11       -2.2837   11.1294    5.6617 H         1 RES1    0.0000
     22 C11       -3.4737   10.0692    4.3565 C.3       1 RES1    0.0000
     23 H12       -3.9180    9.1838    4.3565 H         1 RES1    0.0000
     24 H13       -2.8544   10.0962    3.5861 H         1 RES1    0.0000
     25 C12       -4.5455   11.1772    4.1867 C.3       1 RES1    0.0000
     26 H14       -5.2149   11.1045    4.9141 H         1 RES1    0.0000
     27 H15       -4.1148   12.0659    4.2552 H         1 RES1    0.0000
     28 C13       -5.2399   11.0496    2.8385 C.3       1 RES1    0.0000
     29 H16       -5.6463   10.1486    2.7700 H         1 RES1    0.0000
     30 H17       -4.5665   11.1335    2.1187 H         1 RES1    0.0000
     31 C14       -6.3377   12.1118    2.6256 C.3       1 RES1    0.0000
     32 H18       -6.7513   11.9843    1.7462 H         1 RES1    0.0000
     33 H19       -7.0210   12.0211    3.3225 H         1 RES1    0.0000
     34 H20       -5.9391   13.0056    2.6737 H         1 RES1    0.0000
     35 C15        3.5764    4.3812    6.3967 C.3       1 RES1    0.0000
     36 H21        3.6849    5.0979    5.7200 H         1 RES1    0.0000
     37 H22        2.6065    4.2232    6.5209 H         1 RES1    0.0000
     38 C16        4.2293    3.1118    5.8898 C.3       1 RES1    0.0000
     39 H23        4.0698    2.3792    6.5386 H         1 RES1    0.0000
     40 H24        5.2062    3.2507    5.8189 H         1 RES1    0.0000
     41 C17        3.6814    2.7003    4.5238 C.3       1 RES1    0.0000
     42 H25        2.6931    2.6699    4.5694 H         1 RES1    0.0000
     43 H26        3.9296    3.3888    3.8573 H         1 RES1    0.0000
     44 C18        4.1942    1.3505    4.0524 C.3       1 RES1    0.0000
     45 H27        5.1791    1.4072    3.9739 H         1 RES1    0.0000
     46 H28        3.9924    0.6819    4.7544 H         1 RES1    0.0000
     47 C19        3.6499    0.8311    2.7447 C.3       1 RES1    0.0000
     48 H29        2.6884    1.0540    2.6864 H         1 RES1    0.0000
     49 H30        3.7314   -0.1556    2.7346 H         1 RES1    0.0000
     50 C20        4.3698    1.4041    1.5003 C.3       1 RES1    0.0000
     51 H31        4.2650    2.3883    1.4927 H         1 RES1    0.0000
     52 H32        5.3372    1.2020    1.5688 H         1 RES1    0.0000
     53 C21        3.8434    0.8453    0.1951 C.3       1 RES1    0.0000
     54 H33        2.9101    1.1493    0.0583 H         1 RES1    0.0000
     55 H34        3.8423   -0.1429    0.2332 H         1 RES1    0.0000
     56 C22        4.7037    1.3077   -0.9707 C.3       1 RES1    0.0000
     57 H35        4.3485    0.9373   -1.8070 H         1 RES1    0.0000
     58 H36        4.6923    2.2850   -1.0188 H         1 RES1    0.0000
     59 H37        5.6243    0.9950   -0.8414 H         1 RES1    0.0000
     60 N1         1.0875    8.4650    8.3735 N.3       1 RES1    0.0000
     61 H38        0.8239    9.1088    8.9133 H         1 RES1    0.0000
     62 N2         4.1609    4.8160    7.6588 N.3       1 RES1    0.0000
     63 H39        4.8534    4.3694    7.9705 H         1 RES1    0.0000
     64 N3         2.4697    8.9686   10.8724 N.pl3     1 RES1    0.0000
     65 O1         1.4647    9.7427   10.6189 O.2       1 RES1    0.0000
     66 O2         3.0805    9.1448   11.9418 O.2       1 RES1    0.0000
     67 C23        8.0268    2.1230   10.0081 C.ar      2 RES2    0.0000
     68 C24        8.4016    1.0242    9.2430 C.ar      2 RES2    0.0000
     69 C25        9.3867    0.1606    9.7027 C.ar      2 RES2    0.0000
     70 H40        9.6445   -0.5891    9.1794 H         2 RES2    0.0000
     71 C26       10.0002    0.3943   10.9284 C.ar      2 RES2    0.0000
     72 C27        9.6268    1.4924   11.6945 C.ar      2 RES2    0.0000
     73 H41       10.0438    1.6523   12.5323 H         2 RES2    0.0000
     74 C28        8.6396    2.3565   11.2348 C.ar      2 RES2    0.0000
     75 H42        8.3839    3.1055   11.7594 H         2 RES2    0.0000
     76 C29        8.1515   -0.3569    7.1342 C.3       2 RES2    0.0000
     77 H43        8.0160   -1.2177    7.6030 H         2 RES2    0.0000
     78 H44        9.1020   -0.2957    6.8706 H         2 RES2    0.0000
     79 C30        7.2672   -0.3073    5.8898 C.3       2 RES2    0.0000
     80 H45        6.3212   -0.4014    6.1610 H         2 RES2    0.0000
     81 H46        7.3705    0.5761    5.4539 H         2 RES2    0.0000
     82 C31        7.6090   -1.3938    4.8989 C.3       2 RES2    0.0000
     83 H47        7.5187   -2.2751    5.3373 H         2 RES2    0.0000
     84 H48        8.5531   -1.2911    4.6176 H         2 RES2    0.0000
     85 C32        6.6950   -1.3542    3.6368 C.3       2 RES2    0.0000
     86 H49        5.7577   -1.4966    3.9232 H         2 RES2    0.0000
     87 H50        6.7509   -0.4506    3.2338 H         2 RES2    0.0000
     88 C33        7.0342   -2.3730    2.5774 C.3       2 RES2    0.0000
     89 H51        7.9592   -2.2123    2.2632 H         2 RES2    0.0000
     90 H52        7.0088   -3.2770    2.9829 H         2 RES2    0.0000
     91 C34        6.1018   -2.3390    1.3964 C.3       2 RES2    0.0000
     92 H53        6.2018   -1.4670    0.9352 H         2 RES2    0.0000
     93 H54        5.1684   -2.3987    1.7234 H         2 RES2    0.0000
     94 C35        6.3446   -3.4666    0.3827 C.3       2 RES2    0.0000
     95 H55        7.2942   -3.4471    0.1014 H         2 RES2    0.0000
     96 H56        6.1776   -4.3360    0.8237 H         2 RES2    0.0000
     97 C36        5.4844   -3.3654   -0.8262 C.3       2 RES2    0.0000
     98 H57        5.6842   -4.1083   -1.4319 H         2 RES2    0.0000
     99 H58        4.5422   -3.4049   -0.5601 H         2 RES2    0.0000
    100 H59        5.6588   -2.5160   -1.2824 H         2 RES2    0.0000
    101 C37       11.5257   -1.5540   10.7102 C.3       2 RES2    0.0000
    102 H60       11.8367   -1.2827    9.8105 H         2 RES2    0.0000
    103 H61       10.7989   -2.2141   10.5961 H         2 RES2    0.0000
    104 C38       12.6773   -2.1981   11.4679 C.3       2 RES2    0.0000
    105 H62       13.4064   -1.5348   11.5769 H         2 RES2    0.0000
    106 H63       12.3659   -2.4553   12.3727 H         2 RES2    0.0000
    107 C39       13.2194   -3.4218   10.7608 C.3       2 RES2    0.0000
    108 H64       13.4386   -3.1871    9.8231 H         2 RES2    0.0000
    109 H65       12.5244   -4.1266   10.7456 H         2 RES2    0.0000
    110 C40       14.4856   -3.9675   11.4578 C.3       2 RES2    0.0000
    111 H66       15.1429   -3.2342   11.5363 H         2 RES2    0.0000
    112 H67       14.2419   -4.2505   12.3727 H         2 RES2    0.0000
    113 C41       15.1492   -5.1353   10.7532 C.3       2 RES2    0.0000
    114 H68       15.1263   -4.9740    9.7775 H         2 RES2    0.0000
    115 H69       16.0998   -5.1734   11.0269 H         2 RES2    0.0000
    116 C42       14.5316   -6.4333   11.0295 C.3       2 RES2    0.0000
    117 H70       13.6040   -6.4223   10.6823 H         2 RES2    0.0000
    118 H71       14.4863   -6.5607   12.0077 H         2 RES2    0.0000
    119 C43       15.3053   -7.6723   10.3832 C.3       2 RES2    0.0000
    120 H72       15.1686   -7.6500    9.4050 H         2 RES2    0.0000
    121 H73       16.2753   -7.5546   10.5505 H         2 RES2    0.0000
    122 C44       14.9264   -8.9520   10.8571 C.3       2 RES2    0.0000
    123 H74       15.4557   -9.6413   10.4035 H         2 RES2    0.0000
    124 H75       15.0835   -9.0047   11.8253 H         2 RES2    0.0000
    125 H76       13.9748   -9.0994   10.6747 H         2 RES2    0.0000
    126 N4         7.8204    0.7340    8.0161 N.3       2 RES2    0.0000
    127 H77        7.1795    1.2752    7.7475 H         2 RES2    0.0000
    128 N5        11.0016   -0.3767   11.4172 N.3       2 RES2    0.0000
    129 H78       11.3569   -0.1598   12.1927 H         2 RES2    0.0000
    130 N6         7.0544    3.0416    9.6026 N.pl3     2 RES2    0.0000
    131 O3         6.4332    2.9311    8.4977 O.2       2 RES2    0.0000
    132 O4         6.7935    4.0489   10.3376 O.2       2 RES2    0.0000
    133 C45       12.8182    1.1316   16.0799 C.ar      3 RES3    0.0000
    134 C46       13.9204    0.3768   16.4649 C.ar      3 RES3    0.0000
    135 C47       14.5664    0.6520   17.6644 C.ar      3 RES3    0.0000
    136 H79       15.3205    0.1376   17.9280 H         3 RES3    0.0000
    137 C48       14.1098    1.6824   18.4797 C.ar      3 RES3    0.0000
    138 C49       13.0076    2.4352   18.0947 C.ar      3 RES3    0.0000
    139 H80       12.6945    3.1395   18.6528 H         3 RES3    0.0000
    140 C50       12.3613    2.1598   16.8947 C.ar      3 RES3    0.0000
    141 H81       11.6074    2.6765   16.6304 H         3 RES3    0.0000
    142 C51       15.4511   -1.5788   16.0272 C.3       3 RES3    0.0000
    143 H82       15.2675   -2.0012   16.9041 H         3 RES3    0.0000
    144 H83       16.2948   -1.0681   16.1058 H         3 RES3    0.0000
    145 C52       15.6139   -2.6574   14.9755 C.3       3 RES3    0.0000
    146 H84       14.7369   -3.0935   14.8310 H         3 RES3    0.0000
    147 H85       15.8774   -2.2282   14.1214 H         3 RES3    0.0000
    148 C53       16.6284   -3.7208   15.3100 C.3       3 RES3    0.0000
    149 H86       17.5079   -3.2865   15.4494 H         3 RES3    0.0000
    150 H87       16.3672   -4.1476   16.1641 H         3 RES3    0.0000
    151 C54       16.7841   -4.7864   14.2709 C.3       3 RES3    0.0000
    152 H88       17.0193   -4.3565   13.4118 H         3 RES3    0.0000
    153 H89       15.9085   -5.2352   14.1493 H         3 RES3    0.0000
    154 C55       17.8478   -5.8737   14.5826 C.3       3 RES3    0.0000
    155 H90       18.7312   -5.4359   14.6764 H         3 RES3    0.0000
    156 H91       17.6297   -6.2972   15.4494 H         3 RES3    0.0000
    157 C56       17.9454   -6.9489   13.5233 C.3       3 RES3    0.0000
    158 H92       18.0485   -6.5178   12.6363 H         3 RES3    0.0000
    159 H93       17.1014   -7.4657   13.5106 H         3 RES3    0.0000
    160 C57       19.1089   -7.9031   13.7514 C.3       3 RES3    0.0000
    161 H94       19.9457   -7.3760   13.7792 H         3 RES3    0.0000
    162 H95       18.9951   -8.3310   14.6333 H         3 RES3    0.0000
    163 C58       19.2466   -8.9626   12.7224 C.3       3 RES3    0.0000
    164 H96       20.0144   -9.5315   12.9404 H         3 RES3    0.0000
    165 H97       18.4338   -9.5078   12.7021 H         3 RES3    0.0000
    166 H98       19.3868   -8.5497   11.8430 H         3 RES3    0.0000
    167 C59       15.9235    1.3206   20.1303 C.3       3 RES3    0.0000
    168 H99       16.6611    1.4491   19.4815 H         3 RES3    0.0000
    169 H100      15.7442    0.3487   20.1937 H         3 RES3    0.0000
    170 C60       16.3611    1.8358   21.4887 C.3       3 RES3    0.0000
    171 H101      15.6278    1.6996   22.1401 H         3 RES3    0.0000
    172 H102      16.5358    2.8098   21.4279 H         3 RES3    0.0000
    173 C61       17.6131    1.1325   21.9880 C.3       3 RES3    0.0000
    174 H103      17.4609    0.1530   21.9779 H         3 RES3    0.0000
    175 H104      18.3637    1.3297   21.3747 H         3 RES3    0.0000
    176 C62       17.9902    1.5497   23.3667 C.3       3 RES3    0.0000
    177 H105      17.1756    1.5424   23.9293 H         3 RES3    0.0000
    178 H106      18.3216    2.4809   23.3337 H         3 RES3    0.0000
    179 C63       19.1320    0.6146   24.0864 C.3       3 RES3    0.0000
    180 H107      18.9424    0.5276   25.0546 H         3 RES3    0.0000
    181 H108      19.1381   -0.2920   23.6860 H         3 RES3    0.0000
    182 C64       20.2557    1.1806   23.9090 C.3       3 RES3    0.0000
    183 H109      20.2043    2.1177   24.2258 H         3 RES3    0.0000
    184 H110      20.4636    1.1991   22.9409 H         3 RES3    0.0000
    185 C65       21.5029    0.3735   24.7352 C.3       3 RES3    0.0000
    186 H111      21.1733    0.1547   25.6451 H         3 RES3    0.0000
    187 H112      21.6725   -0.4832   24.2714 H         3 RES3    0.0000
    188 C66       22.7719    1.0671   24.8746 C.3       3 RES3    0.0000
    189 H113      23.4023    0.4992   25.3663 H         3 RES3    0.0000
    190 H114      23.1360    1.2612   23.9851 H         3 RES3    0.0000
    191 H115      22.6365    1.9034   25.3638 H         3 RES3    0.0000
    192 N7        14.3794   -0.6757   15.7028 N.3       3 RES3    0.0000
    193 H116      13.9703   -0.8104   14.9349 H         3 RES3    0.0000
    194 N8        14.7433    1.9927   19.6463 N.3       3 RES3    0.0000
    195 H117      14.4097    2.6434   20.1329 H         3 RES3    0.0000
    196 N9        12.0939    0.9475   14.9020 N.pl3     3 RES3    0.0000
    197 O5        12.4102    0.0277   14.0580 O.2       3 RES3    0.0000
    198 O6        11.1177    1.6950   14.6460 O.2       3 RES3    0.0000
    199 C67       12.5573    6.1067   22.0724 C.ar      4 RES4    0.0000
    200 C68       13.1892    6.3556   23.2856 C.ar      4 RES4    0.0000
    201 C69       12.7640    7.4086   24.0869 C.ar      4 RES4    0.0000
    202 H118      13.1945    7.5798   24.9152 H         4 RES4    0.0000
    203 C70       11.7082    8.2128   23.6754 C.ar      4 RES4    0.0000
    204 C71       11.0765    7.9641   22.4622 C.ar      4 RES4    0.0000
    205 H119      10.3543    8.5131   22.1806 H         4 RES4    0.0000
    206 C72       11.5013    6.9109   21.6606 C.ar      4 RES4    0.0000
    207 H120      11.0709    6.7419   20.8323 H         4 RES4    0.0000
    208 C73       14.9643    5.7284   24.9709 C.3       4 RES4    0.0000
    209 H121      14.3348    5.6633   25.7338 H         4 RES4    0.0000
    210 H122      15.3857    6.6230   24.9937 H         4 RES4    0.0000
    211 C74       16.0353    4.6511   25.0926 C.3       4 RES4    0.0000
    212 H123      15.5948    3.7634   25.1103 H         4 RES4    0.0000
    213 H124      16.6144    4.6848   24.2892 H         4 RES4    0.0000
    214 C75       16.8937    4.7922   26.3192 C.3       4 RES4    0.0000
    215 H125      16.3173    4.7242   27.1226 H         4 RES4    0.0000
    216 H126      17.3050    5.6922   26.3192 H         4 RES4    0.0000
    217 C76       17.9849    3.7576   26.4130 C.3       4 RES4    0.0000
    218 H127      18.5613    3.8280   25.6096 H         4 RES4    0.0000
    219 H128      17.5716    2.8558   26.4079 H         4 RES4    0.0000
    220 C77       18.8555    3.8982   27.6624 C.3       4 RES4    0.0000
    221 H129      19.2825    4.7918   27.6548 H         4 RES4    0.0000
    222 H130      18.2746    3.8525   28.4633 H         4 RES4    0.0000
    223 C78       19.9521    2.8363   27.7967 C.3       4 RES4    0.0000
    224 H131      20.5750    2.9143   27.0288 H         4 RES4    0.0000
    225 H132      19.5399    1.9385   27.7612 H         4 RES4    0.0000
    226 C79       20.7546    2.9732   29.1121 C.3       4 RES4    0.0000
    227 H133      21.1644    3.8728   29.1526 H         4 RES4    0.0000
    228 H134      20.1362    2.8854   29.8800 H         4 RES4    0.0000
    229 C80       21.8629    1.9014   29.2286 C.3       4 RES4    0.0000
    230 H135      22.3457    2.0214   30.0726 H         4 RES4    0.0000
    231 H136      21.4589    1.0092   29.2058 H         4 RES4    0.0000
    232 H137      22.4871    1.9967   28.4785 H         4 RES4    0.0000
    233 C81       11.8204    9.7135   25.6400 C.3       4 RES4    0.0000
    234 H138      12.8010    9.8165   25.5437 H         4 RES4    0.0000
    235 H139      11.6546    9.0178   26.3243 H         4 RES4    0.0000
    236 C82       11.2212   11.0254   26.1012 C.3       4 RES4    0.0000
    237 H140      10.2425   10.9186   26.2077 H         4 RES4    0.0000
    238 H141      11.3765   11.7176   25.4068 H         4 RES4    0.0000
    239 C83       11.8285   11.4999   27.4343 C.3       4 RES4    0.0000
    240 H142      11.5843   10.8615   28.1490 H         4 RES4    0.0000
    241 H143      12.8161   11.5074   27.3583 H         4 RES4    0.0000
    242 C84       11.3512   12.8875   27.8221 C.3       4 RES4    0.0000
    243 H144      10.3670   12.8642   27.9260 H         4 RES4    0.0000
    244 H145      11.5552   13.5101   27.0795 H         4 RES4    0.0000
    245 C85       11.9757   13.4509   29.1298 C.3       4 RES4    0.0000
    246 H146      12.9385   13.2199   29.1577 H         4 RES4    0.0000
    247 H147      11.8990   14.4366   29.1298 H         4 RES4    0.0000
    248 C86       11.2935   12.8981   30.3513 C.3       4 RES4    0.0000
    249 H148      11.4212   11.9179   30.3843 H         4 RES4    0.0000
    250 H149      10.3215   13.0790   30.2956 H         4 RES4    0.0000
    251 C87       11.8707   13.5436   31.6667 C.3       4 RES4    0.0000
    252 H150      12.8067   13.2490   31.7883 H         4 RES4    0.0000
    253 H151      11.8721   14.5299   31.5678 H         4 RES4    0.0000
    254 C88       11.0818   13.1737   32.8730 C.3       4 RES4    0.0000
    255 H152      11.4774   13.5990   33.6637 H         4 RES4    0.0000
    256 H153      10.1582   13.4811   32.7666 H         4 RES4    0.0000
    257 H154      11.0929   12.2005   32.9845 H         4 RES4    0.0000
    258 N10       14.2485    5.5590   23.7367 N.3       4 RES4    0.0000
    259 H155      14.4984    4.8954   23.2172 H         4 RES4    0.0000
    260 N11       11.2614    9.2962   24.3931 N.3       4 RES4    0.0000
    261 H156      10.5910    9.7595   24.0662 H         4 RES4    0.0000
    262 N12       12.9339    5.0908   21.1719 N.pl3     4 RES4    0.0000
    263 O7        13.9075    4.2936   21.4533 O.2       4 RES4    0.0000
    264 O8        12.3118    4.9335   20.1075 O.2       4 RES4    0.0000
    265 C89        7.3939   11.9909   22.1383 C.ar      5 RES5    0.0000
    266 C90        7.0394   13.1133   22.8776 C.ar      5 RES5    0.0000
    267 C91        6.0393   13.9614   22.4168 C.ar      5 RES5    0.0000
    268 H157       5.7973   14.7293   22.9206 H         5 RES5    0.0000
    269 C92        5.3929   13.6867   21.2168 C.ar      5 RES5    0.0000
    270 C93        5.7478   12.5640   20.4778 C.ar      5 RES5    0.0000
    271 H158       5.3064   12.3757   19.6589 H         5 RES5    0.0000
    272 C94        6.7479   11.7162   20.9385 C.ar      5 RES5    0.0000
    273 H159       6.9898   10.9491   20.4344 H         5 RES5    0.0000
    274 C95        7.3760   14.5298   24.9405 C.3       5 RES5    0.0000
    275 H160       6.4249   14.4923   25.2092 H         5 RES5    0.0000
    276 H161       7.5214   15.3743   24.4463 H         5 RES5    0.0000
    277 C96        8.2409   14.5143   26.1671 C.3       5 RES5    0.0000
    278 H162       8.1596   13.6287   26.6005 H         5 RES5    0.0000
    279 H163       9.1847   14.6286   25.8909 H         5 RES5    0.0000
    280 C97        7.8969   15.5753   27.1657 C.3       5 RES5    0.0000
    281 H164       6.9612   15.4511   27.4622 H         5 RES5    0.0000
    282 H165       7.9630   16.4633   26.7323 H         5 RES5    0.0000
    283 C98        8.8144   15.5529   28.3898 C.3       5 RES5    0.0000
    284 H166       8.7464   14.6631   28.8181 H         5 RES5    0.0000
    285 H167       9.7506   15.6658   28.0856 H         5 RES5    0.0000
    286 C99        8.5122   16.6174   29.4364 C.3       5 RES5    0.0000
    287 H168       7.5885   16.4815   29.7659 H         5 RES5    0.0000
    288 H169       8.5477   17.5057   29.0005 H         5 RES5    0.0000
    289 C100       9.4653   16.6202   30.6352 C.3       5 RES5    0.0000
    290 H170       9.3667   15.7560   31.1117 H         5 RES5    0.0000
    291 H171      10.3929   16.6624   30.2931 H         5 RES5    0.0000
    292 C101       9.2778   17.7326   31.6337 C.3       5 RES5    0.0000
    293 H172       9.4392   18.5949   31.1725 H         5 RES5    0.0000
    294 H173       8.3339   17.7282   31.9302 H         5 RES5    0.0000
    295 C102      10.1275   17.6791   32.8147 C.3       5 RES5    0.0000
    296 H174       9.9285   18.4424   33.3951 H         5 RES5    0.0000
    297 H175       9.9582   16.8453   33.3013 H         5 RES5    0.0000
    298 H176      11.0679   17.7147   32.5410 H         5 RES5    0.0000
    299 C103       3.9185   15.6666   21.3950 C.3       5 RES5    0.0000
    300 H177       4.6497   16.3323   21.4482 H         5 RES5    0.0000
    301 H178       3.6497   15.4364   22.3175 H         5 RES5    0.0000
    302 C104       2.7285   16.2988   20.6727 C.3       5 RES5    0.0000
    303 H179       2.9871   16.5058   19.7400 H         5 RES5    0.0000
    304 H180       1.9852   15.6469   20.6448 H         5 RES5    0.0000
    305 C105       2.2558   17.5389   21.3291 C.3       5 RES5    0.0000
    306 H181       2.9752   18.2192   21.2885 H         5 RES5    0.0000
    307 H182       2.0769   17.3484   22.2845 H         5 RES5    0.0000
    308 C106       0.9803   18.1234   20.6904 C.3       5 RES5    0.0000
    309 H183       0.3098   17.3999   20.6118 H         5 RES5    0.0000
    310 H184       1.1999   18.4239   19.7730 H         5 RES5    0.0000
    311 C107       0.3247   19.3197   21.4583 C.3       5 RES5    0.0000
    312 H185      -0.6389   19.3679   21.2378 H         5 RES5    0.0000
    313 H186       0.4108   19.1758   22.4315 H         5 RES5    0.0000
    314 C108       0.9138   20.4684   21.1263 C.3       5 RES5    0.0000
    315 H187       0.8742   20.5891   20.1430 H         5 RES5    0.0000
    316 H188       1.8643   20.4432   21.3950 H         5 RES5    0.0000
    317 C109       0.1483   21.7568   21.8816 C.3       5 RES5    0.0000
    318 H189      -0.8345   21.6608   21.8106 H         5 RES5    0.0000
    319 H190       0.3920   21.7833   22.8421 H         5 RES5    0.0000
    320 C110       0.6194   23.0661   21.1618 C.3       5 RES5    0.0000
    321 H191       0.1885   23.8432   21.5800 H         5 RES5    0.0000
    322 H192       1.5912   23.1512   21.2404 H         5 RES5    0.0000
    323 H193       0.3710   23.0281   20.2140 H         5 RES5    0.0000
    324 N13        7.6720   13.4128   24.0712 N.3       5 RES5    0.0000
    325 H194       8.3157   12.8683   24.3272 H         5 RES5    0.0000
    326 N14        4.4147   14.4733   20.7360 N.3       5 RES5    0.0000
    327 H195       4.0483   14.2480   19.9681 H         5 RES5    0.0000
    328 N15        8.3693   11.0298   22.5380 N.pl3     5 RES5    0.0000
    329 O9         9.0168   11.2046   23.6176 O.2       5 RES5    0.0000
    330 O10        8.5825   10.0343   21.8435 O.2       5 RES5    0.0000
    331 C111       2.6126   12.8521   16.0764 C.ar      6 RES6    0.0000
    332 C112       1.4926   13.5870   15.7069 C.ar      6 RES6    0.0000
    333 C113       0.8512   13.3190   14.5033 C.ar      6 RES6    0.0000
    334 H196       0.0857   13.8212   14.2506 H         6 RES6    0.0000
    335 C114       1.3299   12.3158   13.6690 C.ar      6 RES6    0.0000
    336 C115       2.4499   11.5807   14.0383 C.ar      6 RES6    0.0000
    337 H197       2.7786   10.8954   13.4675 H         6 RES6    0.0000
    338 C116       3.0920   11.8487   15.2421 C.ar      6 RES6    0.0000
    339 H198       3.8568   11.3454   15.4950 H         6 RES6    0.0000
    340 C117      -0.1019   15.5390   16.1590 C.3       6 RES6    0.0000
    341 H199      -0.9409   15.0192   16.0754 H         6 RES6    0.0000
    342 H200       0.0789   15.9797   15.2923 H         6 RES6    0.0000
    343 C118      -0.2583   16.5737   17.2285 C.3       6 RES6    0.0000
    344 H201       0.6164   17.0168   17.3755 H         6 RES6    0.0000
    345 H202      -0.5124   16.1259   18.0750 H         6 RES6    0.0000
    346 C119      -1.3017   17.6404   16.9066 C.3       6 RES6    0.0000
    347 H203      -1.0559   18.0769   16.0526 H         6 RES6    0.0000
    348 H204      -2.1772   17.1999   16.7774 H         6 RES6    0.0000
    349 C120      -1.4404   18.6938   17.9635 C.3       6 RES6    0.0000
    350 H205      -0.5544   19.1128   18.1079 H         6 RES6    0.0000
    351 H206      -1.7013   18.2531   18.8125 H         6 RES6    0.0000
    352 C121      -2.4415   19.7841   17.6669 C.3       6 RES6    0.0000
    353 H207      -3.3304   19.3681   17.5377 H         6 RES6    0.0000
    354 H208      -2.1891   20.2182   16.8129 H         6 RES6    0.0000
    355 C122      -2.5595   20.8594   18.7440 C.3       6 RES6    0.0000
    356 H209      -2.7446   20.4188   19.6108 H         6 RES6    0.0000
    357 H210      -1.6911   21.3261   18.8226 H         6 RES6    0.0000
    358 C123      -3.6351   21.8794   18.4805 C.3       6 RES6    0.0000
    359 H211      -4.5069   21.4133   18.4348 H         6 RES6    0.0000
    360 H212      -3.4685   22.2930   17.5960 H         6 RES6    0.0000
    361 C124      -3.7280   22.9813   19.5221 C.3       6 RES6    0.0000
    362 H213      -4.4475   23.5996   19.2813 H         6 RES6    0.0000
    363 H214      -3.9185   22.5858   20.3990 H         6 RES6    0.0000
    364 H215      -2.8781   23.4676   19.5626 H         6 RES6    0.0000
    365 C125      -0.5064   12.6608   12.0432 C.3       6 RES6    0.0000
    366 H216      -0.3299   13.6307   11.9393 H         6 RES6    0.0000
    367 H217      -1.2212   12.5486   12.7174 H         6 RES6    0.0000
    368 C126      -0.9684   12.0878   10.7152 C.3       6 RES6    0.0000
    369 H218      -1.1132   11.1115   10.7938 H         6 RES6    0.0000
    370 H219      -0.2903   12.2502   10.0132 H         6 RES6    0.0000
    371 C127      -2.2958   12.7979   10.3528 C.3       6 RES6    0.0000
    372 H220      -2.9605   12.5981   11.0599 H         6 RES6    0.0000
    373 H221      -2.1391   13.7752   10.3604 H         6 RES6    0.0000
    374 C128      -2.8933   12.4194    9.0147 C.3       6 RES6    0.0000
    375 H222      -2.9488   11.4345    8.9336 H         6 RES6    0.0000
    376 H223      -2.3233   12.7597    8.2797 H         6 RES6    0.0000
    377 C129      -4.3417   13.0574    8.9234 C.3       6 RES6    0.0000
    378 H224      -4.8945   12.7109    9.6685 H         6 RES6    0.0000
    379 H225      -4.2697   14.0390    9.0299 H         6 RES6    0.0000
    380 C130      -5.0130   12.7651    7.6563 C.3       6 RES6    0.0000
    381 H226      -5.1630   11.7884    7.5878 H         6 RES6    0.0000
    382 H227      -4.4219   13.0337    6.9086 H         6 RES6    0.0000
    383 C131      -6.3820   13.5005    7.5118 C.3       6 RES6    0.0000
    384 H228      -6.9648   13.2358    8.2670 H         6 RES6    0.0000
    385 H229      -6.2257   14.4766    7.5853 H         6 RES6    0.0000
    386 C132      -7.1041   13.2369    6.2497 C.3       6 RES6    0.0000
    387 H230      -7.9470   13.7365    6.2446 H         6 RES6    0.0000
    388 H231      -6.5521   13.5215    5.4919 H         6 RES6    0.0000
    389 H232      -7.2934   12.2783    6.1737 H         6 RES6    0.0000
    390 N16        1.0112   14.6254   16.4885 N.3       6 RES6    0.0000
    391 H233       1.4115   14.7547   17.2614 H         6 RES6    0.0000
    392 N17        0.7075   11.9945   12.5019 N.3       6 RES6    0.0000
    393 H234       1.0522   11.3549   12.0052 H         6 RES6    0.0000
    394 N18        3.3302   13.0203   17.2640 N.pl3     6 RES6    0.0000
    395 O11        2.9748   13.9355   18.1054 O.2       6 RES6    0.0000
    396 O12        4.3159   12.3114   17.5428 O.2       6 RES6    0.0000
    397 C133      18.0856    1.8361    8.5788 C.ar      7 RES7    0.0000
    398 C134      17.6888    2.9317    9.3381 C.ar      7 RES7    0.0000
    399 C135      16.6624    3.7529    8.8900 C.ar      7 RES7    0.0000
    400 H235      16.3916    4.4999    9.4100 H         7 RES7    0.0000
    401 C136      16.0306    3.4800    7.6824 C.ar      7 RES7    0.0000
    402 C137      16.4261    2.3854    6.9228 C.ar      7 RES7    0.0000
    403 H236      15.9937    2.1994    6.0976 H         7 RES7    0.0000
    404 C138      17.4547    1.5632    7.3709 C.ar      7 RES7    0.0000
    405 H237      17.7232    0.8146    6.8529 H         7 RES7    0.0000
    406 C139      17.9778    4.2703   11.4730 C.3       7 RES7    0.0000
    407 H238      17.0352    4.1807   11.7670 H         7 RES7    0.0000
    408 H239      18.0739    5.1360   11.0041 H         7 RES7    0.0000
    409 C140      18.8727    4.2451   12.6616 C.3       7 RES7    0.0000
    410 H240      19.8085    4.3648   12.3625 H         7 RES7    0.0000
    411 H241      18.8065    3.3592   13.0975 H         7 RES7    0.0000
    412 C141      18.5365    5.3234   13.6779 C.3       7 RES7    0.0000
    413 H242      18.6265    6.2086   13.2470 H         7 RES7    0.0000
    414 H243      17.5905    5.2165   13.9541 H         7 RES7    0.0000
    415 C142      19.4166    5.2871   14.9146 C.3       7 RES7    0.0000
    416 H244      19.3020    4.4075   15.3581 H         7 RES7    0.0000
    417 H245      20.3611    5.3604   14.6333 H         7 RES7    0.0000
    418 C143      19.1265    6.3764   15.9208 C.3       7 RES7    0.0000
    419 H246      18.1820    6.2930   16.2046 H         7 RES7    0.0000
    420 H247      19.2219    7.2500   15.4671 H         7 RES7    0.0000
    421 C144      20.0036    6.3810   17.1626 C.3       7 RES7    0.0000
    422 H248      20.9479    6.4687   16.8838 H         7 RES7    0.0000
    423 H249      19.9057    5.5089   17.6239 H         7 RES7    0.0000
    424 C145      19.6828    7.5004   18.1637 C.3       7 RES7    0.0000
    425 H250      19.7313    8.3650   17.6847 H         7 RES7    0.0000
    426 H251      18.7467    7.3850   18.4678 H         7 RES7    0.0000
    427 C146      20.5535    7.5900   19.3726 C.3       7 RES7    0.0000
    428 H252      20.2593    8.3360   19.9352 H         7 RES7    0.0000
    429 H253      20.4948    6.7535   19.8794 H         7 RES7    0.0000
    430 H254      21.4837    7.7385   19.0963 H         7 RES7    0.0000
    431 C147      14.5257    5.4725    7.8768 C.3       7 RES7    0.0000
    432 H255      15.2550    6.1388    7.9249 H         7 RES7    0.0000
    433 H256      14.2523    5.2541    8.8018 H         7 RES7    0.0000
    434 C148      13.3326    6.0856    7.1317 C.3       7 RES7    0.0000
    435 H257      13.5977    6.2926    6.1990 H         7 RES7    0.0000
    436 H258      12.5917    5.4295    7.0987 H         7 RES7    0.0000
    437 C149      12.8523    7.3478    7.8058 C.3       7 RES7    0.0000
    438 H259      13.5879    8.0134    7.8033 H         7 RES7    0.0000
    439 H260      12.6325    7.1443    8.7486 H         7 RES7    0.0000
    440 C150      11.6278    7.9636    7.1342 C.3       7 RES7    0.0000
    441 H261      10.9161    7.2770    7.0911 H         7 RES7    0.0000
    442 H262      11.8662    8.2046    6.2041 H         7 RES7    0.0000
    443 C151      11.0660    9.2103    7.8337 C.3       7 RES7    0.0000
    444 H263      10.1301    9.3436    7.5422 H         7 RES7    0.0000
    445 H264      11.0560    9.0511    8.8119 H         7 RES7    0.0000
    446 C152      11.7936   10.3959    7.5752 C.3       7 RES7    0.0000
    447 H265      11.8518   10.5356    6.5969 H         7 RES7    0.0000
    448 H266      12.7159   10.2944    7.9224 H         7 RES7    0.0000
    449 C153      11.1233   11.6732    8.2468 C.3       7 RES7    0.0000
    450 H267      10.4875   11.3398    8.9285 H         7 RES7    0.0000
    451 H268      11.8400   12.1528    8.7334 H         7 RES7    0.0000
    452 C154      10.5523   12.4709    7.6056 C.3       7 RES7    0.0000
    453 H269      10.2119   13.1773    8.1910 H         7 RES7    0.0000
    454 H270      11.1624   12.8575    6.9466 H         7 RES7    0.0000
    455 H271       9.8034   12.0397    7.1418 H         7 RES7    0.0000
    456 N19       18.3051    3.1894   10.5708 N.3       7 RES7    0.0000
    457 H272      18.9491    2.6434   10.8191 H         7 RES7    0.0000
    458 N20       15.0195    4.2656    7.2280 N.3       7 RES7    0.0000
    459 H273      14.6308    4.0258    6.4778 H         7 RES7    0.0000
    460 N21       19.1011    0.9411    8.9234 N.pl3     7 RES7    0.0000
    461 O13       19.7108    1.0778   10.0335 O.2       7 RES7    0.0000
    462 O14       19.4047   -0.0159    8.1961 O.2       7 RES7    0.0000
    463 C155      13.0886    2.5579    2.6562 C.ar      8 RES8    0.0000
    464 C156      12.0254    3.3603    2.2606 C.ar      8 RES8    0.0000
    465 C157      11.3571    3.0917    1.0718 C.ar      8 RES8    0.0000
    466 H274      10.6311    3.6402    0.8009 H         8 RES8    0.0000
    467 C158      11.7523    2.0206    0.2788 C.ar      8 RES8    0.0000
    468 C159      12.8154    1.2184    0.6746 C.ar      8 RES8    0.0000
    469 H275      13.0868    0.4867    0.1318 H         8 RES8    0.0000
    470 C160      13.4846    1.4870    1.8633 C.ar      8 RES8    0.0000
    471 H276      14.2119    0.9376    2.1339 H         8 RES8    0.0000
    472 C161      10.5220    5.3754    2.6509 C.3       8 RES8    0.0000
    473 H277       9.6710    4.8724    2.5876 H         8 RES8    0.0000
    474 H278      10.7083    5.7792    1.7664 H         8 RES8    0.0000
    475 C162      10.3882    6.4614    3.6824 C.3       8 RES8    0.0000
    476 H279      10.1588    6.0495    4.5542 H         8 RES8    0.0000
    477 H280      11.2623    6.9154    3.7838 H         8 RES8    0.0000
    478 C163       9.3460    7.4864    3.3428 C.3       8 RES8    0.0000
    479 H281       8.4713    7.0305    3.2566 H         8 RES8    0.0000
    480 H282       9.5672    7.8822    2.4634 H         8 RES8    0.0000
    481 C164       9.2149    8.5972    4.3540 C.3       8 RES8    0.0000
    482 H283      10.0612    9.1119    4.3641 H         8 RES8    0.0000
    483 H284       9.1023    8.1917    5.2512 H         8 RES8    0.0000
    484 C165       8.0712    9.5646    4.1183 C.3       8 RES8    0.0000
    485 H285       7.2215    9.0585    4.1361 H         8 RES8    0.0000
    486 H286       8.1669    9.9518    3.2110 H         8 RES8    0.0000
    487 C166       7.9768   10.7099    5.1270 C.3       8 RES8    0.0000
    488 H287       7.8637   10.3230    6.0317 H         8 RES8    0.0000
    489 H288       8.8349   11.2046    5.1219 H         8 RES8    0.0000
    490 C167       6.8679   11.6847    4.8913 C.3       8 RES8    0.0000
    491 H289       7.0059   12.1129    4.0068 H         8 RES8    0.0000
    492 H290       6.0137   11.1882    4.8533 H         8 RES8    0.0000
    493 C168       6.7518   12.7561    5.9228 C.3       8 RES8    0.0000
    494 H291       6.0080   13.3504    5.6972 H         8 RES8    0.0000
    495 H292       6.5898   12.3484    6.7997 H         8 RES8    0.0000
    496 H293       7.5842   13.2731    5.9532 H         8 RES8    0.0000
    497 C169       9.9644    2.3860   -1.4192 C.3       8 RES8    0.0000
    498 H294      10.1599    3.3539   -1.5079 H         8 RES8    0.0000
    499 H295       9.2240    2.2890   -0.7679 H         8 RES8    0.0000
    500 C170       9.5092    1.8475   -2.7675 C.3       8 RES8    0.0000
    501 H296       9.4220    0.8637   -2.7067 H         8 RES8    0.0000
    502 H297      10.2033    2.0506   -3.4442 H         8 RES8    0.0000
    503 C171       8.1806    2.4376   -3.2237 C.3       8 RES8    0.0000
    504 H298       7.4906    2.2437   -2.5420 H         8 RES8    0.0000
    505 H299       8.2724    3.4221   -3.2896 H         8 RES8    0.0000
    506 C172       7.7144    1.8935   -4.5669 C.3       8 RES8    0.0000
    507 H300       7.8866    0.9212   -4.6125 H         8 RES8    0.0000
    508 H301       8.2130    2.3338   -5.2993 H         8 RES8    0.0000
    509 C173       6.2231    2.1653   -4.7190 C.3       8 RES8    0.0000
    510 H302       5.7900    1.4340   -5.2258 H         8 RES8    0.0000
    511 H303       5.7922    2.2304   -3.8294 H         8 RES8    0.0000
    512 C174       6.0946    3.4570   -5.4539 C.3       8 RES8    0.0000
    513 H304       7.0195    3.7791   -5.5984 H         8 RES8    0.0000
    514 H305       5.6768    4.0907   -4.8178 H         8 RES8    0.0000
    515 C175       5.3765    3.6689   -6.7616 C.3       8 RES8    0.0000
    516 H306       5.7041    2.9941   -7.4206 H         8 RES8    0.0000
    517 H307       5.5789    4.5607   -7.1114 H         8 RES8    0.0000
    518 C176       3.8747    3.5038   -6.6020 C.3       8 RES8    0.0000
    519 H308       3.4373    3.6387   -7.4687 H         8 RES8    0.0000
    520 H309       3.6709    2.6048   -6.2725 H         8 RES8    0.0000
    521 H310       3.5436    4.1690   -5.9633 H         8 RES8    0.0000
    522 N22       11.6058    4.4560    3.0057 N.3       8 RES8    0.0000
    523 H311      12.0283    4.6096    3.7610 H         8 RES8    0.0000
    524 N23       11.1519    1.7066   -0.8972 N.3       8 RES8    0.0000
    525 H312      11.4962    1.0524   -1.3762 H         8 RES8    0.0000
    526 N24       13.8354    2.7306    3.8218 N.pl3     8 RES8    0.0000
    527 O15       13.5453    3.7068    4.6455 O.2       8 RES8    0.0000
    528 O16       14.7902    1.9953    4.1158 O.2       8 RES8    0.0000
    529 C177      13.2903   -2.3415   -3.4125 C.ar      9 RES9    0.0000
    530 C178      12.6630   -2.5890   -4.6277 C.ar      9 RES9    0.0000
    531 C179      13.0966   -3.6359   -5.4336 C.ar      9 RES9    0.0000
    532 H313      12.6686   -3.8040   -6.2649 H         9 RES9    0.0000
    533 C180      14.1570   -4.4344   -5.0233 C.ar      9 RES9    0.0000
    534 C181      14.7848   -4.1867   -3.8076 C.ar      9 RES9    0.0000
    535 H314      15.5108   -4.7329   -3.5278 H         9 RES9    0.0000
    536 C182      14.3506   -3.1404   -3.0022 C.ar      9 RES9    0.0000
    537 H315      14.7787   -2.9700   -2.1719 H         9 RES9    0.0000
    538 C183      10.8511   -1.9873   -6.3181 C.3       9 RES9    0.0000
    539 H316      10.4332   -2.8848   -6.3181 H         9 RES9    0.0000
    540 H317      11.4701   -1.9334   -7.0886 H         9 RES9    0.0000
    541 C184       9.7786   -0.9254   -6.4524 C.3       9 RES9    0.0000
    542 H318       9.1661   -0.9922   -5.6769 H         9 RES9    0.0000
    543 H319      10.2062   -0.0346   -6.4195 H         9 RES9    0.0000
    544 C185       8.9820   -1.0335   -7.7070 C.3       9 RES9    0.0000
    545 H320       8.5364   -1.9183   -7.7298 H         9 RES9    0.0000
    546 H321       9.5969   -0.9863   -8.4825 H         9 RES9    0.0000
    547 C186       7.9224    0.0587   -7.8489 C.3       9 RES9    0.0000
    548 H322       7.3054    0.0167   -7.0759 H         9 RES9    0.0000
    549 H323       8.3640    0.9448   -7.8362 H         9 RES9    0.0000
    550 C187       7.1189   -0.0818   -9.1363 C.3       9 RES9    0.0000
    551 H324       6.7263   -0.9901   -9.1667 H         9 RES9    0.0000
    552 H325       7.7352    0.0063   -9.9068 H         9 RES9    0.0000
    553 C188       5.9882    0.9548   -9.2833 C.3       9 RES9    0.0000
    554 H326       5.3656    0.8600   -8.5179 H         9 RES9    0.0000
    555 H327       6.3782    1.8642   -9.2428 H         9 RES9    0.0000
    556 C189       5.2069    0.8083  -10.5809 C.3       9 RES9    0.0000
    557 H328       5.8359    0.8899  -11.3387 H         9 RES9    0.0000
    558 H329       4.8188   -0.1025  -10.6113 H         9 RES9    0.0000
    559 C190       4.0959    1.8065  -10.7710 C.3       9 RES9    0.0000
    560 H330       3.6492    1.6392  -11.6276 H         9 RES9    0.0000
    561 H331       3.4485    1.7187  -10.0411 H         9 RES9    0.0000
    562 H332       4.4700    2.7135  -10.7684 H         9 RES9    0.0000
    563 C191      14.0732   -5.8841   -7.0632 C.3       9 RES9    0.0000
    564 H333      14.2732   -5.1807   -7.7323 H         9 RES9    0.0000
    565 H334      13.0896   -5.9798   -7.0049 H         9 RES9    0.0000
    566 C192      14.6808   -7.1950   -7.5143 C.3       9 RES9    0.0000
    567 H335      14.4978   -7.8921   -6.8377 H         9 RES9    0.0000
    568 H336      15.6607   -7.0915   -7.5954 H         9 RES9    0.0000
    569 C193      14.1023   -7.6347   -8.8702 C.3       9 RES9    0.0000
    570 H337      13.1129   -7.5740   -8.8297 H         9 RES9    0.0000
    571 H338      14.4137   -7.0080   -9.5697 H         9 RES9    0.0000
    572 C194      14.4905   -9.0412   -9.2630 C.3       9 RES9    0.0000
    573 H339      14.1916   -9.6598   -8.5509 H         9 RES9    0.0000
    574 H340      15.4797   -9.0922   -9.3036 H         9 RES9    0.0000
    575 C195      13.9317   -9.5448  -10.5986 C.3       9 RES9    0.0000
    576 H341      13.9452  -10.5328  -10.5986 H         9 RES9    0.0000
    577 H342      12.9877   -9.2582  -10.6772 H         9 RES9    0.0000
    578 C196      14.6698   -9.0617  -11.7720 C.3       9 RES9    0.0000
    579 H343      15.6271   -9.2866  -11.6605 H         9 RES9    0.0000
    580 H344      14.5947   -8.0757  -11.8126 H         9 RES9    0.0000
    581 C197      14.1789   -9.6441  -13.0848 C.3       9 RES9    0.0000
    582 H345      14.0723  -10.6215  -12.9784 H         9 RES9    0.0000
    583 H346      13.2864   -9.2658  -13.2850 H         9 RES9    0.0000
    584 C198      15.0791   -9.3846  -14.2506 C.3       9 RES9    0.0000
    585 H347      14.6948   -9.7908  -15.0566 H         9 RES9    0.0000
    586 H348      15.1717   -8.4181  -14.3850 H         9 RES9    0.0000
    587 H349      15.9598   -9.7767  -14.0758 H         9 RES9    0.0000
    588 N25       11.5866   -1.7973   -5.0915 N.3       9 RES9    0.0000
    589 H350      11.3414   -1.1222   -4.5846 H         9 RES9    0.0000
    590 N26       14.5976   -5.4759   -5.7656 N.3       9 RES9    0.0000
    591 H351      15.2615   -5.9493   -5.4362 H         9 RES9    0.0000
    592 N27       12.9320   -1.3334   -2.5318 N.pl3     9 RES9    0.0000
    593 O17       11.9643   -0.5126   -2.8055 O.2       9 RES9    0.0000
    594 O18       13.5358   -1.1818   -1.4420 O.2       9 RES9    0.0000
    595 C199      18.5620   -8.1057   -3.4498 C.ar     10 RES10   0.0000
    596 C200      18.9346   -9.2134   -4.2042 C.ar     10 RES10   0.0000
    597 C201      19.9348  -10.0605   -3.7470 C.ar     10 RES10   0.0000
    598 H352      20.1902  -10.8176   -4.2628 H        10 RES10   0.0000
    599 C202      20.5660   -9.8018   -2.5354 C.ar     10 RES10   0.0000
    600 C203      20.1952   -8.6951   -1.7809 C.ar     10 RES10   0.0000
    601 H353      20.6254   -8.5192   -0.9529 H        10 RES10   0.0000
    602 C204      19.1928   -7.8470   -2.2381 C.ar     10 RES10   0.0000
    603 H354      18.9374   -7.0908   -1.7234 H        10 RES10   0.0000
    604 C205      18.6072  -10.5923   -6.2928 C.3      10 RES10   0.0000
    605 H355      18.4667  -11.4478   -5.8087 H        10 RES10   0.0000
    606 H356      19.5584  -10.5469   -6.5665 H        10 RES10   0.0000
    607 C206      17.7138  -10.5493   -7.5245 C.3      10 RES10   0.0000
    608 H357      16.7668  -10.6131   -7.2406 H        10 RES10   0.0000
    609 H358      17.8356   -9.6800   -7.9832 H        10 RES10   0.0000
    610 C207      18.0179  -11.6660   -8.4901 C.3      10 RES10   0.0000
    611 H359      17.9132  -12.5313   -8.0237 H        10 RES10   0.0000
    612 H360      18.9627  -11.5916   -8.7790 H        10 RES10   0.0000
    613 C208      17.1127  -11.6619   -9.7420 C.3      10 RES10   0.0000
    614 H361      16.1724  -11.7613   -9.4480 H        10 RES10   0.0000
    615 H362      17.1945  -10.7799  -10.1855 H        10 RES10   0.0000
    616 C209      17.4137  -12.7331  -10.7558 C.3      10 RES10   0.0000
    617 H363      17.3516  -13.6176  -10.3123 H        10 RES10   0.0000
    618 H364      18.3438  -12.6185  -11.0726 H        10 RES10   0.0000
    619 C210      16.4800  -12.7192  -11.9520 C.3      10 RES10   0.0000
    620 H365      15.5487  -12.7918  -11.6200 H        10 RES10   0.0000
    621 H366      16.5665  -11.8435  -12.4031 H        10 RES10   0.0000
    622 C211      16.7030  -13.8063  -12.9759 C.3      10 RES10   0.0000
    623 H367      17.6505  -13.7711  -13.2648 H        10 RES10   0.0000
    624 H368      16.5602  -14.6827  -12.5374 H        10 RES10   0.0000
    625 C212      15.8746  -13.7443  -14.1467 C.3      10 RES10   0.0000
    626 H369      16.0980  -14.4885  -14.7423 H        10 RES10   0.0000
    627 H370      14.9328  -13.8107  -13.8806 H        10 RES10   0.0000
    628 H371      16.0253  -12.8963  -14.6105 H        10 RES10   0.0000
    629 C213      22.0579  -11.7713   -2.7802 C.3      10 RES10   0.0000
    630 H372      22.4011  -11.4968   -3.6672 H        10 RES10   0.0000
    631 H373      21.3191  -12.4150   -2.9272 H        10 RES10   0.0000
    632 C214      23.1830  -12.4652   -1.9971 C.3      10 RES10   0.0000
    633 H374      23.9001  -11.8079   -1.8045 H        10 RES10   0.0000
    634 H375      22.8282  -12.7905   -1.1329 H        10 RES10   0.0000
    635 C215      23.7542  -13.6019   -2.7523 C.3      10 RES10   0.0000
    636 H376      24.0960  -13.2686   -3.6216 H        10 RES10   0.0000
    637 H377      23.0325  -14.2522   -2.9424 H        10 RES10   0.0000
    638 C216      24.9010  -14.3272   -2.0097 C.3      10 RES10   0.0000
    639 H378      25.5734  -13.6557   -1.7386 H        10 RES10   0.0000
    640 H379      24.5336  -14.7332   -1.1835 H        10 RES10   0.0000
    641 C217      25.5907  -15.4006   -2.8005 C.3      10 RES10   0.0000
    642 H380      25.9244  -15.0161   -3.6495 H        10 RES10   0.0000
    643 H381      26.3699  -15.7315   -2.2885 H        10 RES10   0.0000
    644 C218      24.6879  -16.5374   -3.1046 C.3      10 RES10   0.0000
    645 H382      24.0342  -16.2520   -3.7939 H        10 RES10   0.0000
    646 H383      24.1787  -16.7688   -2.2860 H        10 RES10   0.0000
    647 C219      25.4651  -17.8790   -3.6393 C.3      10 RES10   0.0000
    648 H384      25.8593  -18.3788   -2.8816 H        10 RES10   0.0000
    649 H385      26.1875  -17.6350   -4.2729 H        10 RES10   0.0000
    650 C220      24.2933  -18.7901   -4.3996 C.3      10 RES10   0.0000
    651 H386      24.6937  -19.6131   -4.7468 H        10 RES10   0.0000
    652 H387      23.5858  -19.0151   -3.7610 H        10 RES10   0.0000
    653 H388      23.9114  -18.2751   -5.1422 H        10 RES10   0.0000
    654 N28       18.3028   -9.4949   -5.4235 N.3      10 RES10   0.0000
    655 H389      17.6635   -8.9451   -5.6820 H        10 RES10   0.0000
    656 N29       21.5383  -10.5937   -2.0756 N.3      10 RES10   0.0000
    657 H390      21.8937  -10.3942   -1.2976 H        10 RES10   0.0000
    658 N30       17.5547   -7.1752   -3.8547 N.pl3    10 RES10   0.0000
    659 O19       16.9001   -7.3391   -4.9242 O.2      10 RES10   0.0000
    660 O20       17.3410   -6.1482   -3.1578 O.2      10 RES10   0.0000
    661 C221      23.6096   -9.0064    2.4117 C.ar     11 RES11   0.0000
    662 C222      24.6909   -9.7742    2.8316 C.ar     11 RES11   0.0000
    663 C223      25.3022   -9.5055    4.0506 C.ar     11 RES11   0.0000
    664 H391      26.0394  -10.0302    4.3388 H        11 RES11   0.0000
    665 C224      24.8343   -8.4694    4.8497 C.ar     11 RES11   0.0000
    666 C225      23.7529   -7.7017    4.4298 C.ar     11 RES11   0.0000
    667 H392      23.4337   -6.9923    4.9749 H        11 RES11   0.0000
    668 C226      23.1421   -7.9705    3.2110 C.ar     11 RES11   0.0000
    669 H393      22.4044   -7.4467    2.9246 H        11 RES11   0.0000
    670 C227      26.2360  -11.7728    2.4330 C.3      11 RES11   0.0000
    671 H394      26.0041  -12.2371    3.2744 H        11 RES11   0.0000
    672 H395      27.0816  -11.2756    2.5774 H        11 RES11   0.0000
    673 C228      26.4147  -12.7672    1.3356 C.3      11 RES11   0.0000
    674 H396      26.6871  -12.2885    0.5145 H        11 RES11   0.0000
    675 H397      25.5413  -13.1983    1.1531 H        11 RES11   0.0000
    676 C229      27.4270  -13.8436    1.6194 C.3      11 RES11   0.0000
    677 H398      27.2108  -14.2604    2.4913 H        11 RES11   0.0000
    678 H399      28.3199  -13.4237    1.7005 H        11 RES11   0.0000
    679 C230      27.4943  -14.9334    0.5601 C.3      11 RES11   0.0000
    680 H400      27.7887  -14.5308   -0.2965 H        11 RES11   0.0000
    681 H401      26.5855  -15.3017    0.4207 H        11 RES11   0.0000
    682 C231      28.4411  -16.0763    0.9225 C.3      11 RES11   0.0000
    683 H402      29.3647  -15.7224    0.9656 H        11 RES11   0.0000
    684 H403      28.2051  -16.4115    1.8247 H        11 RES11   0.0000
    685 C232      28.4057  -17.2354   -0.0558 C.3      11 RES11   0.0000
    686 H404      28.6461  -16.9075   -0.9580 H        11 RES11   0.0000
    687 H405      27.4844  -17.5963   -0.1014 H        11 RES11   0.0000
    688 C233      29.3813  -18.3790    0.3497 C.3      11 RES11   0.0000
    689 H406      30.3156  -18.0572    0.3016 H        11 RES11   0.0000
    690 H407      29.1982  -18.6665    1.2798 H        11 RES11   0.0000
    691 C234      29.1880  -19.5532   -0.6057 C.3      11 RES11   0.0000
    692 H408      29.7974  -20.2802   -0.3573 H        11 RES11   0.0000
    693 H409      28.2621  -19.8715   -0.5474 H        11 RES11   0.0000
    694 H410      29.3771  -19.2653   -1.5206 H        11 RES11   0.0000
    695 C235      26.6055   -8.8152    6.5209 C.3      11 RES11   0.0000
    696 H411      27.3335   -8.7259    5.8543 H        11 RES11   0.0000
    697 H412      26.4157   -9.7808    6.6299 H        11 RES11   0.0000
    698 C236      27.0858   -8.2626    7.8362 C.3      11 RES11   0.0000
    699 H413      26.3727   -8.3636    8.5179 H        11 RES11   0.0000
    700 H414      27.2817   -7.2986    7.7399 H        11 RES11   0.0000
    701 C237      28.3394   -8.9913    8.3051 C.3      11 RES11   0.0000
    702 H415      28.1427   -9.9633    8.3127 H        11 RES11   0.0000
    703 H416      29.0494   -8.8424    7.6309 H        11 RES11   0.0000
    704 C238      28.9014   -8.6225    9.6609 C.3      11 RES11   0.0000
    705 H417      28.2947   -8.9382   10.3756 H        11 RES11   0.0000
    706 H418      28.9812   -7.6367    9.7344 H        11 RES11   0.0000
    707 C239      30.3278   -9.2942    9.8231 C.3      11 RES11   0.0000
    708 H419      30.2202  -10.2729    9.7319 H        11 RES11   0.0000
    709 H420      30.9010   -8.9890    9.0755 H        11 RES11   0.0000
    710 C240      30.9861   -9.0453   10.9915 C.3      11 RES11   0.0000
    711 H421      30.4366   -9.3620   11.7518 H        11 RES11   0.0000
    712 H422      31.1107   -8.0683   11.0954 H        11 RES11   0.0000
    713 C241      32.3720   -9.7497   11.0295 C.3      11 RES11   0.0000
    714 H423      32.2527  -10.7234   10.9002 H        11 RES11   0.0000
    715 H424      32.9356   -9.4088   10.2895 H        11 RES11   0.0000
    716 C242      33.0397   -9.5109   12.2941 C.3      11 RES11   0.0000
    717 H425      33.9084   -9.9634   12.2941 H        11 RES11   0.0000
    718 H426      33.1725   -8.5484   12.4158 H        11 RES11   0.0000
    719 H427      32.4897   -9.8603   13.0240 H        11 RES11   0.0000
    720 N31       25.1740  -10.8406    2.0731 N.3      11 RES11   0.0000
    721 H428      24.7959  -10.9685    1.2900 H        11 RES11   0.0000
    722 N32       25.4271   -8.1703    6.0013 N.3      11 RES11   0.0000
    723 H429      25.0718   -7.5293    6.4879 H        11 RES11   0.0000
    724 N33       22.9078   -9.1778    1.2114 N.pl3    11 RES11   0.0000
    725 O21       23.2207  -10.1349    0.4106 O.2      11 RES11   0.0000
    726 O22       21.9939   -8.4058    0.8617 O.2      11 RES11   0.0000
    727 C243      23.1253   -4.1971    8.4792 C.ar     12 RES12   0.0000
    728 C244      23.8186   -3.8380    9.6280 C.ar     12 RES12   0.0000
    729 C245      23.4001   -2.7464   10.3807 C.ar     12 RES12   0.0000
    730 H430      23.8747   -2.5012   11.1663 H        12 RES12   0.0000
    731 C246      22.2877   -2.0136    9.9825 C.ar     12 RES12   0.0000
    732 C247      21.5942   -2.3734    8.8330 C.ar     12 RES12   0.0000
    733 H431      20.8349   -1.8708    8.5610 H        12 RES12   0.0000
    734 C248      22.0129   -3.4641    8.0813 C.ar     12 RES12   0.0000
    735 H432      21.5383   -3.7092    7.2964 H        12 RES12   0.0000
    736 C249      25.6747   -4.4026   11.3057 C.3      12 RES12   0.0000
    737 H433      25.0562   -4.4879   12.0736 H        12 RES12   0.0000
    738 H434      26.0568   -3.4899   11.3209 H        12 RES12   0.0000
    739 C250      26.7662   -5.4002   11.4350 C.3      12 RES12   0.0000
    740 H435      26.3712   -6.3067   11.4096 H        12 RES12   0.0000
    741 H436      27.3697   -5.3135   10.6569 H        12 RES12   0.0000
    742 C251      27.5674   -5.2657   12.6743 C.3      12 RES12   0.0000
    743 H437      26.9545   -5.3107   13.4523 H        12 RES12   0.0000
    744 H438      27.9917   -4.3712   12.6793 H        12 RES12   0.0000
    745 C252      28.6687   -6.3310   12.8542 C.3      12 RES12   0.0000
    746 H439      28.2520   -7.2295   12.8238 H        12 RES12   0.0000
    747 H440      29.3002   -6.2690   12.0964 H        12 RES12   0.0000
    748 C253      29.4377   -6.2021   14.1366 C.3      12 RES12   0.0000
    749 H441      28.8039   -6.2519   14.8944 H        12 RES12   0.0000
    750 H442      29.8679   -5.3099   14.1594 H        12 RES12   0.0000
    751 C254      30.5236   -7.2761   14.3267 C.3      12 RES12   0.0000
    752 H443      31.1846   -7.2048   13.5917 H        12 RES12   0.0000
    753 H444      30.1056   -8.1713   14.2709 H        12 RES12   0.0000
    754 C255      31.2594   -7.1512   15.6775 C.3      12 RES12   0.0000
    755 H445      31.6818   -6.2556   15.7307 H        12 RES12   0.0000
    756 H446      30.5984   -7.2148   16.4099 H        12 RES12   0.0000
    757 C256      32.3051   -8.1919   15.8752 C.3      12 RES12   0.0000
    758 H447      32.7344   -8.0606   16.7444 H        12 RES12   0.0000
    759 H448      31.8905   -9.0807   15.8447 H        12 RES12   0.0000
    760 H449      32.9761   -8.1187   15.1630 H        12 RES12   0.0000
    761 C257      22.5317   -0.4941   11.9241 C.3      12 RES12   0.0000
    762 H450      23.4800   -0.2919   11.7239 H        12 RES12   0.0000
    763 H451      22.5114   -1.2284   12.5856 H        12 RES12   0.0000
    764 C258      21.8889    0.7215   12.5247 C.3      12 RES12   0.0000
    765 H452      20.9463    0.5216   12.7452 H        12 RES12   0.0000
    766 H453      21.9025    1.4603   11.8658 H        12 RES12   0.0000
    767 C259      22.6265    1.1472   13.7818 C.3      12 RES12   0.0000
    768 H454      22.6100    0.3851   14.4128 H        12 RES12   0.0000
    769 H455      23.5729    1.3015   13.5360 H        12 RES12   0.0000
    770 C260      22.1399    2.3666   14.5218 C.3      12 RES12   0.0000
    771 H456      21.2267    2.2089   14.8690 H        12 RES12   0.0000
    772 H457      22.1097    3.1435   13.9085 H        12 RES12   0.0000
    773 C261      23.1158    2.6600   15.7054 C.3      12 RES12   0.0000
    774 H458      23.1761    1.8584   16.2832 H        12 RES12   0.0000
    775 H459      24.0182    2.8463   15.3455 H        12 RES12   0.0000
    776 C262      22.6746    3.7809   16.4885 C.3      12 RES12   0.0000
    777 H460      21.8069    3.5759   16.9168 H        12 RES12   0.0000
    778 H461      22.5598    4.5752   15.9106 H        12 RES12   0.0000
    779 C263      23.7590    4.0639   17.5833 C.3      12 RES12   0.0000
    780 H462      24.6251    4.2555   17.1449 H        12 RES12   0.0000
    781 H463      23.8721    3.2611   18.1510 H        12 RES12   0.0000
    782 C264      23.3275    5.3319   18.5134 C.3      12 RES12   0.0000
    783 H464      24.0195    5.4884   19.1901 H        12 RES12   0.0000
    784 H465      23.2294    6.1288   17.9533 H        12 RES12   0.0000
    785 H466      22.4766    5.1348   18.9569 H        12 RES12   0.0000
    786 N34       24.9400   -4.6028   10.0639 N.3      12 RES12   0.0000
    787 H467      25.2118   -5.2508    9.5367 H        12 RES12   0.0000
    788 N35       21.8723   -0.9518   10.6873 N.3      12 RES12   0.0000
    789 H468      21.1723   -0.5057   10.3984 H        12 RES12   0.0000
    790 N36       23.5033   -5.2340    7.6056 N.pl3    12 RES12   0.0000
    791 O23       24.5208   -5.9463    7.8539 O.2      12 RES12   0.0000
    792 O24       22.8243   -5.4659    6.5690 O.2      12 RES12   0.0000
@<TRIPOS>BOND
     1    1    2 ar
     2    2    3 ar
     3    3    4 1
     4    5    3 ar
     5    6    5 ar
     6    7    6 1
     7    8    1 ar
     8    9    8 1
     9   10   11 1
    10   12   10 1
    11   13   10 1
    12   14   13 1
    13   15   13 1
    14   16   13 1
    15   17   16 1
    16   18   16 1
    17   19   16 1
    18   20   19 1
    19   21   19 1
    20   22   19 1
    21   23   22 1
    22   24   22 1
    23   25   22 1
    24   26   25 1
    25   27   25 1
    26   28   25 1
    27   29   28 1
    28   30   28 1
    29   31   28 1
    30   32   31 1
    31   33   31 1
    32   34   31 1
    33   35   36 1
    34   37   35 1
    35   38   35 1
    36   39   38 1
    37   40   38 1
    38   41   38 1
    39   42   41 1
    40   43   41 1
    41   44   41 1
    42   45   44 1
    43   46   44 1
    44   47   44 1
    45   48   47 1
    46   49   47 1
    47   50   47 1
    48   51   50 1
    49   52   50 1
    50   53   50 1
    51   54   53 1
    52   55   53 1
    53   56   53 1
    54   57   56 1
    55   58   56 1
    56   59   56 1
    57   60    2 1
    58   61   60 1
    59   62    5 1
    60   63   62 1
    61   64    1 1
    62   65   64 2
    63   66   64 2
    64   67   68 ar
    65   68   69 ar
    66   69   70 1
    67   71   69 ar
    68   72   71 ar
    69   73   72 1
    70   74   67 ar
    71   75   74 1
    72   76   77 1
    73   78   76 1
    74   79   76 1
    75   80   79 1
    76   81   79 1
    77   82   79 1
    78   83   82 1
    79   84   82 1
    80   85   82 1
    81   86   85 1
    82   87   85 1
    83   88   85 1
    84   89   88 1
    85   90   88 1
    86   91   88 1
    87   92   91 1
    88   93   91 1
    89   94   91 1
    90   95   94 1
    91   96   94 1
    92   97   94 1
    93   98   97 1
    94   99   97 1
    95  100   97 1
    96  101  102 1
    97  103  101 1
    98  104  101 1
    99  105  104 1
   100  106  104 1
   101  107  104 1
   102  108  107 1
   103  109  107 1
   104  110  107 1
   105  111  110 1
   106  112  110 1
   107  113  110 1
   108  114  113 1
   109  115  113 1
   110  116  113 1
   111  117  116 1
   112  118  116 1
   113  119  116 1
   114  120  119 1
   115  121  119 1
   116  122  119 1
   117  123  122 1
   118  124  122 1
   119  125  122 1
   120  126   68 1
   121  127  126 1
   122  128   71 1
   123  129  128 1
   124  130   67 1
   125  131  130 2
   126  132  130 2
   127  133  134 ar
   128  134  135 ar
   129  135  136 1
   130  137  135 ar
   131  138  137 ar
   132  139  138 1
   133  140  133 ar
   134  141  140 1
   135  142  143 1
   136  144  142 1
   137  145  142 1
   138  146  145 1
   139  147  145 1
   140  148  145 1
   141  149  148 1
   142  150  148 1
   143  151  148 1
   144  152  151 1
   145  153  151 1
   146  154  151 1
   147  155  154 1
   148  156  154 1
   149  157  154 1
   150  158  157 1
   151  159  157 1
   152  160  157 1
   153  161  160 1
   154  162  160 1
   155  163  160 1
   156  164  163 1
   157  165  163 1
   158  166  163 1
   159  167  168 1
   160  169  167 1
   161  170  167 1
   162  171  170 1
   163  172  170 1
   164  173  170 1
   165  174  173 1
   166  175  173 1
   167  176  173 1
   168  177  176 1
   169  178  176 1
   170  179  176 1
   171  180  179 1
   172  181  179 1
   173  182  179 1
   174  183  182 1
   175  184  182 1
   176  185  182 1
   177  186  185 1
   178  187  185 1
   179  188  185 1
   180  189  188 1
   181  190  188 1
   182  191  188 1
   183  192  134 1
   184  193  192 1
   185  194  137 1
   186  195  194 1
   187  196  133 1
   188  197  196 2
   189  198  196 2
   190  199  200 ar
   191  200  201 ar
   192  201  202 1
   193  203  201 ar
   194  204  203 ar
   195  205  204 1
   196  206  199 ar
   197  207  206 1
   198  208  209 1
   199  210  208 1
   200  211  208 1
   201  212  211 1
   202  213  211 1
   203  214  211 1
   204  215  214 1
   205  216  214 1
   206  217  214 1
   207  218  217 1
   208  219  217 1
   209  220  217 1
   210  221  220 1
   211  222  220 1
   212  223  220 1
   213  224  223 1
   214  225  223 1
   215  226  223 1
   216  227  226 1
   217  228  226 1
   218  229  226 1
   219  230  229 1
   220  231  229 1
   221  232  229 1
   222  233  234 1
   223  235  233 1
   224  236  233 1
   225  237  236 1
   226  238  236 1
   227  239  236 1
   228  240  239 1
   229  241  239 1
   230  242  239 1
   231  243  242 1
   232  244  242 1
   233  245  242 1
   234  246  245 1
   235  247  245 1
   236  248  245 1
   237  249  248 1
   238  250  248 1
   239  251  248 1
   240  252  251 1
   241  253  251 1
   242  254  251 1
   243  255  254 1
   244  256  254 1
   245  257  254 1
   246  258  200 1
   247  259  258 1
   248  260  203 1
   249  261  260 1
   250  262  199 1
   251  263  262 2
   252  264  262 2
   253  265  266 ar
   254  266  267 ar
   255  267  268 1
   256  269  267 ar
   257  270  269 ar
   258  271  270 1
   259  272  265 ar
   260  273  272 1
   261  274  275 1
   262  276  274 1
   263  277  274 1
   264  278  277 1
   265  279  277 1
   266  280  277 1
   267  281  280 1
   268  282  280 1
   269  283  280 1
   270  284  283 1
   271  285  283 1
   272  286  283 1
   273  287  286 1
   274  288  286 1
   275  289  286 1
   276  290  289 1
   277  291  289 1
   278  292  289 1
   279  293  292 1
   280  294  292 1
   281  295  292 1
   282  296  295 1
   283  297  295 1
   284  298  295 1
   285  299  300 1
   286  301  299 1
   287  302  299 1
   288  303  302 1
   289  304  302 1
   290  305  302 1
   291  306  305 1
   292  307  305 1
   293  308  305 1
   294  309  308 1
   295  310  308 1
   296  311  308 1
   297  312  311 1
   298  313  311 1
   299  314  311 1
   300  315  314 1
   301  316  314 1
   302  317  314 1
   303  318  317 1
   304  319  317 1
   305  320  317 1
   306  321  320 1
   307  322  320 1
   308  323  320 1
   309  324  266 1
   310  325  324 1
   311  326  269 1
   312  327  326 1
   313  328  265 1
   314  329  328 2
   315  330  328 2
   316  331  332 ar
   317  332  333 ar
   318  333  334 1
   319  335  333 ar
   320  336  335 ar
   321  337  336 1
   322  338  331 ar
   323  339  338 1
   324  340  341 1
   325  342  340 1
   326  343  340 1
   327  344  343 1
   328  345  343 1
   329  346  343 1
   330  347  346 1
   331  348  346 1
   332  349  346 1
   333  350  349 1
   334  351  349 1
   335  352  349 1
   336  353  352 1
   337  354  352 1
   338  355  352 1
   339  356  355 1
   340  357  355 1
   341  358  355 1
   342  359  358 1
   343  360  358 1
   344  361  358 1
   345  362  361 1
   346  363  361 1
   347  364  361 1
   348  365  366 1
   349  367  365 1
   350  368  365 1
   351  369  368 1
   352  370  368 1
   353  371  368 1
   354  372  371 1
   355  373  371 1
   356  374  371 1
   357  375  374 1
   358  376  374 1
   359  377  374 1
   360  378  377 1
   361  379  377 1
   362  380  377 1
   363  381  380 1
   364  382  380 1
   365  383  380 1
   366  384  383 1
   367  385  383 1
   368  386  383 1
   369  387  386 1
   370  388  386 1
   371  389  386 1
   372  390  332 1
   373  391  390 1
   374  392  335 1
   375  393  392 1
   376  394  331 1
   377  395  394 2
   378  396  394 2
   379  397  398 ar
   380  398  399 ar
   381  399  400 1
   382  401  399 ar
   383  402  401 ar
   384  403  402 1
   385  404  397 ar
   386  405  404 1
   387  406  407 1
   388  408  406 1
   389  409  406 1
   390  410  409 1
   391  411  409 1
   392  412  409 1
   393  413  412 1
   394  414  412 1
   395  415  412 1
   396  416  415 1
   397  417  415 1
   398  418  415 1
   399  419  418 1
   400  420  418 1
   401  421  418 1
   402  422  421 1
   403  423  421 1
   404  424  421 1
   405  425  424 1
   406  426  424 1
   407  427  424 1
   408  428  427 1
   409  429  427 1
   410  430  427 1
   411  431  432 1
   412  433  431 1
   413  434  431 1
   414  435  434 1
   415  436  434 1
   416  437  434 1
   417  438  437 1
   418  439  437 1
   419  440  437 1
   420  441  440 1
   421  442  440 1
   422  443  440 1
   423  444  443 1
   424  445  443 1
   425  446  443 1
   426  447  446 1
   427  448  446 1
   428  449  446 1
   429  450  449 1
   430  451  449 1
   431  452  449 1
   432  453  452 1
   433  454  452 1
   434  455  452 1
   435  456  398 1
   436  457  456 1
   437  458  401 1
   438  459  458 1
   439  460  397 1
   440  461  460 2
   441  462  460 2
   442  463  464 ar
   443  464  465 ar
   444  465  466 1
   445  467  465 ar
   446  468  467 ar
   447  469  468 1
   448  470  463 ar
   449  471  470 1
   450  472  473 1
   451  474  472 1
   452  475  472 1
   453  476  475 1
   454  477  475 1
   455  478  475 1
   456  479  478 1
   457  480  478 1
   458  481  478 1
   459  482  481 1
   460  483  481 1
   461  484  481 1
   462  485  484 1
   463  486  484 1
   464  487  484 1
   465  488  487 1
   466  489  487 1
   467  490  487 1
   468  491  490 1
   469  492  490 1
   470  493  490 1
   471  494  493 1
   472  495  493 1
   473  496  493 1
   474  497  498 1
   475  499  497 1
   476  500  497 1
   477  501  500 1
   478  502  500 1
   479  503  500 1
   480  504  503 1
   481  505  503 1
   482  506  503 1
   483  507  506 1
   484  508  506 1
   485  509  506 1
   486  510  509 1
   487  511  509 1
   488  512  509 1
   489  513  512 1
   490  514  512 1
   491  515  512 1
   492  516  515 1
   493  517  515 1
   494  518  515 1
   495  519  518 1
   496  520  518 1
   497  521  518 1
   498  522  464 1
   499  523  522 1
   500  524  467 1
   501  525  524 1
   502  526  463 1
   503  527  526 2
   504  528  526 2
   505  529  530 ar
   506  530  531 ar
   507  531  532 1
   508  533  531 ar
   509  534  533 ar
   510  535  534 1
   511  536  529 ar
   512  537  536 1
   513  538  539 1
   514  540  538 1
   515  541  538 1
   516  542  541 1
   517  543  541 1
   518  544  541 1
   519  545  544 1
   520  546  544 1
   521  547  544 1
   522  548  547 1
   523  549  547 1
   524  550  547 1
   525  551  550 1
   526  552  550 1
   527  553  550 1
   528  554  553 1
   529  555  553 1
   530  556  553 1
   531  557  556 1
   532  558  556 1
   533  559  556 1
   534  560  559 1
   535  561  559 1
   536  562  559 1
   537  563  564 1
   538  565  563 1
   539  566  563 1
   540  567  566 1
   541  568  566 1
   542  569  566 1
   543  570  569 1
   544  571  569 1
   545  572  569 1
   546  573  572 1
   547  574  572 1
   548  575  572 1
   549  576  575 1
   550  577  575 1
   551  578  575 1
   552  579  578 1
   553  580  578 1
   554  581  578 1
   555  582  581 1
   556  583  581 1
   557  584  581 1
   558  585  584 1
   559  586  584 1
   560  587  584 1
   561  588  530 1
   562  589  588 1
   563  590  533 1
   564  591  590 1
   565  592  529 1
   566  593  592 2
   567  594  592 2
   568  595  596 ar
   569  596  597 ar
   570  597  598 1
   571  599  597 ar
   572  600  599 ar
   573  601  600 1
   574  602  595 ar
   575  603  602 1
   576  604  605 1
   577  606  604 1
   578  607  604 1
   579  608  607 1
   580  609  607 1
   581  610  607 1
   582  611  610 1
   583  612  610 1
   584  613  610 1
   585  614  613 1
   586  615  613 1
   587  616  613 1
   588  617  616 1
   589  618  616 1
   590  619  616 1
   591  620  619 1
   592  621  619 1
   593  622  619 1
   594  623  622 1
   595  624  622 1
   596  625  622 1
   597  626  625 1
   598  627  625 1
   599  628  625 1
   600  629  630 1
   601  631  629 1
   602  632  629 1
   603  633  632 1
   604  634  632 1
   605  635  632 1
   606  636  635 1
   607  637  635 1
   608  638  635 1
   609  639  638 1
   610  640  638 1
   611  641  638 1
   612  642  641 1
   613  643  641 1
   614  644  641 1
   615  645  644 1
   616  646  644 1
   617  647  644 1
   618  648  647 1
   619  649  647 1
   620  650  647 1
   621  651  650 1
   622  652  650 1
   623  653  650 1
   624  654  596 1
   625  655  654 1
   626  656  599 1
   627  657  656 1
   628  658  595 1
   629  659  658 2
   630  660  658 2
   631  661  662 ar
   632  662  663 ar
   633  663  664 1
   634  665  663 ar
   635  666  665 ar
   636  667  666 1
   637  668  661 ar
   638  669  668 1
   639  670  671 1
   640  672  670 1
   641  673  670 1
   642  674  673 1
   643  675  673 1
   644  676  673 1
   645  677  676 1
   646  678  676 1
   647  679  676 1
   648  680  679 1
   649  681  679 1
   650  682  679 1
   651  683  682 1
   652  684  682 1
   653  685  682 1
   654  686  685 1
   655  687  685 1
   656  688  685 1
   657  689  688 1
   658  690  688 1
   659  691  688 1
   660  692  691 1
   661  693  691 1
   662  694  691 1
   663  695  696 1
   664  697  695 1
   665  698  695 1
   666  699  698 1
   667  700  698 1
   668  701  698 1
   669  702  701 1
   670  703  701 1
   671  704  701 1
   672  705  704 1
   673  706  704 1
   674  707  704 1
   675  708  707 1
   676  709  707 1
   677  710  707 1
   678  711  710 1
   679  712  710 1
   680  713  710 1
   681  714  713 1
   682  715  713 1
   683  716  713 1
   684  717  716 1
   685  718  716 1
   686  719  716 1
   687  720  662 1
   688  721  720 1
   689  722  665 1
   690  723  722 1
   691  724  661 1
   692  725  724 2
   693  726  724 2
   694  727  728 ar
   695  728  729 ar
   696  729  730 1
   697  731  729 ar
   698  732  731 ar
   699  733  732 1
   700  734  727 ar
   701  735  734 1
   702  736  737 1
   703  738  736 1
   704  739  736 1
   705  740  739 1
   706  741  739 1
   707  742  739 1
   708  743  742 1
   709  744  742 1
   710  745  742 1
   711  746  745 1
   712  747  745 1
   713  748  745 1
   714  749  748 1
   715  750  748 1
   716  751  748 1
   717  752  751 1
   718  753  751 1
   719  754  751 1
   720  755  754 1
   721  756  754 1
   722  757  754 1
   723  758  757 1
   724  759  757 1
   725  760  757 1
   726  761  762 1
   727  763  761 1
   728  764  761 1
   729  765  764 1
   730  766  764 1
   731  767  764 1
   732  768  767 1
   733  769  767 1
   734  770  767 1
   735  771  770 1
   736  772  770 1
   737  773  770 1
   738  774  773 1
   739  775  773 1
   740  776  773 1
   741  777  776 1
   742  778  776 1
   743  779  776 1
   744  780  779 1
   745  781  779 1
   746  782  779 1
   747  783  782 1
   748  784  782 1
   749  785  782 1
   750  786  728 1
   751  787  786 1
   752  788  731 1
   753  789  788 1
   754  790  727 1
   755  791  790 2
   756  792  790 2
   757    6    8 ar
   758   10   60 1
   759   35   62 1
   760   72   74 ar
   761   76  126 1
   762  101  128 1
   763  138  140 ar
   764  142  192 1
   765  167  194 1
   766  204  206 ar
   767  208  258 1
   768  233  260 1
   769  270  272 ar
   770  274  324 1
   771  299  326 1
   772  336  338 ar
   773  340  390 1
   774  365  392 1
   775  402  404 ar
   776  406  456 1
   777  431  458 1
   778  468  470 ar
   779  472  522 1
   780  497  524 1
   781  534  536 ar
   782  538  588 1
   783  563  590 1
   784  600  602 ar
   785  604  654 1
   786  629  656 1
   787  666  668 ar
   788  670  720 1
   789  695  722 1
   790  732  734 ar
   791  736  786 1
   792  761  788 1
@<TRIPOS>SUBSTRUCTURE
     1 RES1 1
     2 RES2 67
     3 RES3 133
     4 RES4 199
     5 RES5 265
     6 RES6 331
     7 RES7 397
     8 RES8 463
     9 RES9 529
    10 RES10 595
    11 RES11 661
    12 RES12 727

@<TRIPOS>CRYSIN
  21.8346   24.4599   25.5751  97.3860  92.1230  90.7800   2 1

