# MOL2 file generated by ConQuest
# Please check atom types

@<TRIPOS>MOLECULE
RAYFAB
   564   540    10
SMALL
NO_CHARGES
****
Generated from CSD

@<TRIPOS>ATOM
      1 C1         8.9643    8.5579    8.8283 C.ar      1 RES1    0.0000
      2 C2         9.4217    7.2787    8.3937 C.ar      1 RES1    0.0000
      3 C3         9.7408    7.1330    7.0399 C.ar      1 RES1    0.0000
      4 H1        10.0507    6.2900    6.7279 H         1 RES1    0.0000
      5 C4         9.6179    8.1933    6.1245 C.ar      1 RES1    0.0000
      6 C5         9.1788    9.4620    6.6037 C.ar      1 RES1    0.0000
      7 H2         9.1043   10.1960    6.0036 H         1 RES1    0.0000
      8 C6         8.8690    9.6207    7.9035 C.ar      1 RES1    0.0000
      9 H3         8.5781   10.4720    8.2067 H         1 RES1    0.0000
     10 C7         9.9870    4.9176    8.8151 C.3       1 RES1    0.0000
     11 H4        10.8954    4.9936    8.4298 H         1 RES1    0.0000
     12 H5         9.3834    4.5705    8.1131 H         1 RES1    0.0000
     13 C8        10.0142    3.9452    9.9819 C.3       1 RES1    0.0000
     14 H6        10.6403    4.2844   10.6715 H         1 RES1    0.0000
     15 H7         9.1120    3.9028   10.3879 H         1 RES1    0.0000
     16 C9        10.4399    2.5478    9.5669 C.3       1 RES1    0.0000
     17 H8         9.7843    2.1951    8.9145 H         1 RES1    0.0000
     18 H9        11.3168    2.6046    9.1100 H         1 RES1    0.0000
     19 C10       10.5512    1.5764   10.7249 C.3       1 RES1    0.0000
     20 H10        9.6820    1.5439   11.1975 H         1 RES1    0.0000
     21 H11       11.2268    1.9163   11.3628 H         1 RES1    0.0000
     22 C11       10.9382    0.1692   10.3099 C.3       1 RES1    0.0000
     23 H12       11.8037    0.2033    9.8316 H         1 RES1    0.0000
     24 H13       10.2572   -0.1774    9.6801 H         1 RES1    0.0000
     25 C12       11.0613   -0.7939   11.4878 C.3       1 RES1    0.0000
     26 H14       11.7064   -0.4229   12.1394 H         1 RES1    0.0000
     27 H15       10.1823   -0.8628   11.9383 H         1 RES1    0.0000
     28 C13       11.5174   -2.1854   11.0865 C.3       1 RES1    0.0000
     29 H16       11.5759   -2.7516   11.8833 H         1 RES1    0.0000
     30 H17       10.8720   -2.5717   10.4567 H         1 RES1    0.0000
     31 H18       12.3974   -2.1304   10.6605 H         1 RES1    0.0000
     32 C14       10.3432    6.7936    4.2452 C.3       1 RES1    0.0000
     33 H19        9.6800    6.0871    4.4531 H         1 RES1    0.0000
     34 H20       11.2018    6.5357    4.6652 H         1 RES1    0.0000
     35 C15       10.5309    6.8719    2.7443 C.3       1 RES1    0.0000
     36 H21       11.1881    7.5814    2.5309 H         1 RES1    0.0000
     37 H22        9.6710    7.1130    2.3161 H         1 RES1    0.0000
     38 C16       11.0226    5.5373    2.1828 C.3       1 RES1    0.0000
     39 H23       11.8599    5.2902    2.6493 H         1 RES1    0.0000
     40 H24       10.3500    4.8434    2.3932 H         1 RES1    0.0000
     41 C17       11.2794    5.5163    0.6978 C.3       1 RES1    0.0000
     42 H25       11.9160    6.2399    0.4709 H         1 RES1    0.0000
     43 H26       10.4307    5.6981    0.2203 H         1 RES1    0.0000
     44 C18       11.8396    4.1990    0.2220 C.3       1 RES1    0.0000
     45 H27       11.1847    3.4846    0.4241 H         1 RES1    0.0000
     46 H28       12.6650    4.0013    0.7325 H         1 RES1    0.0000
     47 C19       12.1655    4.1587   -1.2638 C.3       1 RES1    0.0000
     48 H29       12.8236    4.8707   -1.4651 H         1 RES1    0.0000
     49 H30       11.3413    4.3602   -1.7735 H         1 RES1    0.0000
     50 C20       12.7247    2.8263   -1.7446 C.3       1 RES1    0.0000
     51 H31       12.9079    2.8762   -2.7071 H         1 RES1    0.0000
     52 H32       13.5548    2.6283   -1.2641 H         1 RES1    0.0000
     53 H33       12.0701    2.1164   -1.5753 H         1 RES1    0.0000
     54 N1         9.5358    6.2197    9.2276 N.3       1 RES1    0.0000
     55 H34        9.3222    6.3343   10.0739 H         1 RES1    0.0000
     56 N2         9.8959    8.0438    4.8142 N.3       1 RES1    0.0000
     57 H35        9.7995    8.7392    4.2824 H         1 RES1    0.0000
     58 N3         8.5685    8.8142   10.1496 N.pl3     1 RES1    0.0000
     59 O1         8.6636    7.9032   11.0301 O.2       1 RES1    0.0000
     60 O2         8.1216    9.9229   10.4581 O.2       1 RES1    0.0000
     61 C21        9.0068   12.2027    1.9335 C.ar      2 RES2    0.0000
     62 C22        9.2702   11.9429    0.5577 C.ar      2 RES2    0.0000
     63 C23        8.9717   12.9547   -0.3737 C.ar      2 RES2    0.0000
     64 H36        9.1576   12.8069   -1.2944 H         2 RES2    0.0000
     65 C24        8.4089   14.1754    0.0209 C.ar      2 RES2    0.0000
     66 C25        8.1364   14.4027    1.3985 C.ar      2 RES2    0.0000
     67 H37        7.7504   15.2253    1.6799 H         2 RES2    0.0000
     68 C26        8.4322   13.4341    2.3141 C.ar      2 RES2    0.0000
     69 H38        8.2467   13.5924    3.2331 H         2 RES2    0.0000
     70 C27       10.1142   10.4861   -1.2641 C.3       2 RES2    0.0000
     71 H39       10.7533   11.1530   -1.6221 H         2 RES2    0.0000
     72 H40        9.2806   10.5441   -1.7956 H         2 RES2    0.0000
     73 C28       10.7054    9.0901   -1.3976 C.3       2 RES2    0.0000
     74 H41       10.0374    8.4218   -1.1016 H         2 RES2    0.0000
     75 H42       11.4970    9.0124   -0.8097 H         2 RES2    0.0000
     76 C29       11.1132    8.7961   -2.8363 C.3       2 RES2    0.0000
     77 H43       10.3200    8.8882   -3.4231 H         2 RES2    0.0000
     78 H44       11.7829    9.4663   -3.1257 H         2 RES2    0.0000
     79 C30       11.6967    7.4043   -3.0026 C.3       2 RES2    0.0000
     80 H45       11.0264    6.7375   -2.7071 H         2 RES2    0.0000
     81 H46       12.4878    7.3159   -2.4152 H         2 RES2    0.0000
     82 C31       12.1077    7.0899   -4.4305 C.3       2 RES2    0.0000
     83 H47       12.7704    7.7635   -4.7258 H         2 RES2    0.0000
     84 H48       11.3133    7.1743   -5.0149 H         2 RES2    0.0000
     85 C32       12.7049    5.7063   -4.6159 C.3       2 RES2    0.0000
     86 H49       12.0525    5.0315   -4.3017 H         2 RES2    0.0000
     87 H50       13.5153    5.6282   -4.0510 H         2 RES2    0.0000
     88 C33       13.0760    5.4028   -6.0576 C.3       2 RES2    0.0000
     89 H51       13.4548    4.5022   -6.1137 H         2 RES2    0.0000
     90 H52       12.2750    5.4565   -6.6205 H         2 RES2    0.0000
     91 H53       13.7378    6.0532   -6.3699 H         2 RES2    0.0000
     92 C34        8.2889   15.0107   -2.2938 C.3       2 RES2    0.0000
     93 H54        7.8100   14.1997   -2.6025 H         2 RES2    0.0000
     94 H55        9.2500   14.8922   -2.4978 H         2 RES2    0.0000
     95 C35        7.7634   16.2188   -3.0494 C.3       2 RES2    0.0000
     96 H56        8.2981   17.0149   -2.8063 H         2 RES2    0.0000
     97 H57        6.8253   16.3878   -2.7842 H         2 RES2    0.0000
     98 C36        7.8286   16.0108   -4.5542 C.3       2 RES2    0.0000
     99 H58        8.7677   15.8224   -4.8084 H         2 RES2    0.0000
    100 H59        7.2888   15.2153   -4.7891 H         2 RES2    0.0000
    101 C37        7.3352   17.1871   -5.3669 C.3       2 RES2    0.0000
    102 H60        7.9055   17.9734   -5.1747 H         2 RES2    0.0000
    103 H61        6.4115   17.4079   -5.0865 H         2 RES2    0.0000
    104 C38        7.3487   16.9163   -6.8647 C.3       2 RES2    0.0000
    105 H62        8.2158   16.5114   -7.1189 H         2 RES2    0.0000
    106 H63        6.6320   16.2704   -7.0886 H         2 RES2    0.0000
    107 C39        7.1372   18.1984   -7.6560 C.3       2 RES2    0.0000
    108 H64        6.2663   18.5950   -7.4026 H         2 RES2    0.0000
    109 H65        7.8451   18.8459   -7.4136 H         2 RES2    0.0000
    110 C40        7.1631   17.9856   -9.1569 C.3       2 RES2    0.0000
    111 H66        7.0221   18.8416   -9.6113 H         2 RES2    0.0000
    112 H67        8.0308   17.6139   -9.4212 H         2 RES2    0.0000
    113 H68        6.4509   17.3599   -9.4102 H         2 RES2    0.0000
    114 N4         9.8255   10.7903    0.1275 N.3       2 RES2    0.0000
    115 H69       10.0282   10.1830    0.7298 H         2 RES2    0.0000
    116 N5         8.1217   15.1472   -0.8708 N.3       2 RES2    0.0000
    117 H70        7.8130   15.9131   -0.5618 H         2 RES2    0.0000
    118 N6         9.2793   11.2938    2.9525 N.pl3     2 RES2    0.0000
    119 O3         9.7595   10.1496    2.6757 O.2       2 RES2    0.0000
    120 O4         9.0680   11.5977    4.1381 O.2       2 RES2    0.0000
    121 C41        6.5197   17.9975   -7.7138 Du       10 SUP10   0.0000
    122 H71        5.6151   18.0817   -7.3200 Du       10 SUP10   0.0000
    123 H72        6.9661   18.8755   -7.6284 Du       10 SUP10   0.0000
    124 C42        6.3785   17.6745   -9.1679 Du       10 SUP10   0.0000
    125 H73        5.8624   18.3803   -9.6113 Du       10 SUP10   0.0000
    126 H74        7.2661   17.6123   -9.5782 Du       10 SUP10   0.0000
    127 H75        5.9127   16.8154   -9.2698 Du       10 SUP10   0.0000
    128 C43        6.2501   19.4377    1.6020 C.ar      3 RES3    0.0000
    129 C44        6.0650   20.4693    0.6172 C.ar      3 RES3    0.0000
    130 C45        5.5982   21.7148    1.0663 C.ar      3 RES3    0.0000
    131 H76        5.4935   22.4198    0.4379 H         3 RES3    0.0000
    132 C46        5.2824   21.9503    2.4001 C.ar      3 RES3    0.0000
    133 C47        5.4290   20.8804    3.3537 C.ar      3 RES3    0.0000
    134 H77        5.1865   21.0129    4.2631 H         3 RES3    0.0000
    135 C48        5.9132   19.6925    2.9440 C.ar      3 RES3    0.0000
    136 H78        6.0328   19.0013    3.5856 H         3 RES3    0.0000
    137 C49        6.1513   21.2599   -1.7196 C.3       3 RES3    0.0000
    138 H79        6.7158   22.0472   -1.5147 H         3 RES3    0.0000
    139 H80        5.2062   21.5563   -1.7377 H         3 RES3    0.0000
    140 C50        6.5306   20.7101   -3.0726 C.3       3 RES3    0.0000
    141 H81        5.9291   19.9573   -3.2965 H         3 RES3    0.0000
    142 H82        7.4557   20.3612   -3.0348 H         3 RES3    0.0000
    143 C51        6.4398   21.7613   -4.1596 C.3       3 RES3    0.0000
    144 H83        7.0449   22.5080   -3.9299 H         3 RES3    0.0000
    145 H84        5.5162   22.1189   -4.1805 H         3 RES3    0.0000
    146 C52        6.7982   21.2537   -5.5475 C.3       3 RES3    0.0000
    147 H85        7.6953   20.8367   -5.5161 H         3 RES3    0.0000
    148 H86        6.1487   20.5548   -5.8136 H         3 RES3    0.0000
    149 C53        6.7996   22.3510   -6.5984 C.3       3 RES3    0.0000
    150 H87        7.4600   23.0416   -6.3341 H         3 RES3    0.0000
    151 H88        5.9078   22.7803   -6.6095 H         3 RES3    0.0000
    152 C54        7.1289   21.8803   -8.0071 C.3       3 RES3    0.0000
    153 H89        8.0428   21.5008   -8.0167 H         3 RES3    0.0000
    154 H90        6.4972   21.1621   -8.2646 H         3 RES3    0.0000
    155 C55        7.0455   23.0031   -9.0258 C.3       3 RES3    0.0000
    156 H91        7.2647   22.6535   -9.9142 H         3 RES3    0.0000
    157 H92        6.1380   23.3712   -9.0329 H         3 RES3    0.0000
    158 H93        7.6824   23.7100   -8.7851 H         3 RES3    0.0000
    159 C56        4.7130   24.3144    2.0159 C.3       3 RES3    0.0000
    160 H94        4.1096   24.1268    1.2530 H         3 RES3    0.0000
    161 H95        5.6070   24.5301    1.6496 H         3 RES3    0.0000
    162 C57        4.1886   25.5003    2.7851 C.3       3 RES3    0.0000
    163 H96        4.6920   25.5874    3.6324 H         3 RES3    0.0000
    164 H97        3.2359   25.3485    3.0101 H         3 RES3    0.0000
    165 C58        4.3184   26.7890    1.9859 C.3       3 RES3    0.0000
    166 H98        5.2636   26.8953    1.7102 H         3 RES3    0.0000
    167 H99        3.7739   26.7071    1.1622 H         3 RES3    0.0000
    168 C59        3.8893   28.0414    2.7247 C.3       3 RES3    0.0000
    169 H100       4.3965   28.1100    3.5719 H         3 RES3    0.0000
    170 H101       2.9277   27.9703    2.9522 H         3 RES3    0.0000
    171 C60        4.1161   29.3067    1.9057 C.3       3 RES3    0.0000
    172 H102       5.0575   29.3206    1.5973 H         3 RES3    0.0000
    173 H103       3.5388   29.2724    1.1016 H         3 RES3    0.0000
    174 C61        3.8348   30.5635    2.6438 C.3       3 RES3    0.0000
    175 H104       4.2023   30.4949    3.5581 H         3 RES3    0.0000
    176 H105       2.8550   30.6891    2.7154 H         3 RES3    0.0000
    177 C62        4.4746   31.8350    1.9112 C.3       3 RES3    0.0000
    178 H106       4.2703   32.6432    2.4235 H         3 RES3    0.0000
    179 H107       5.4469   31.7226    1.8534 H         3 RES3    0.0000
    180 H108       4.0996   31.9169    1.0107 H         3 RES3    0.0000
    181 N7         6.3221   20.2637   -0.6846 N.3       3 RES3    0.0000
    182 H109       6.6138   19.4676   -0.9253 H         3 RES3    0.0000
    183 N8         4.8116   23.1376    2.8418 N.3       3 RES3    0.0000
    184 H110       4.5500   23.1951    3.6793 H         3 RES3    0.0000
    185 N9         6.7539   18.1757    1.2935 N.pl3     3 RES3    0.0000
    186 O5         7.0401   17.8725    0.0991 O.2       3 RES3    0.0000
    187 O6         6.9209   17.3361    2.2117 O.2       3 RES3    0.0000
    188 C63        3.7978   31.7755    1.7901 Du       10 SUP10   0.0000
    189 H111       3.6077   32.5592    2.3436 Du       10 SUP10   0.0000
    190 H112       4.6643   31.8887    1.3467 Du       10 SUP10   0.0000
    191 H113       3.0955   31.6762    1.1126 Du       10 SUP10   0.0000
    192 C64        3.7544   23.0670    8.0115 C.ar      4 RES4    0.0000
    193 C65        3.2277   24.3456    8.4218 C.ar      4 RES4    0.0000
    194 C66        2.9675   24.5241    9.7930 C.ar      4 RES4    0.0000
    195 H114       2.6051   25.3520   10.0877 H         4 RES4    0.0000
    196 C67        3.2240   23.5235   10.7318 C.ar      4 RES4    0.0000
    197 C68        3.7289   22.2666   10.2854 C.ar      4 RES4    0.0000
    198 H115       3.8847   21.5719   10.9139 H         4 RES4    0.0000
    199 C69        3.9846   22.0619    8.9795 C.ar      4 RES4    0.0000
    200 H116       4.3273   21.2214    8.7025 H         4 RES4    0.0000
    201 C70        2.5223   26.6554    7.9088 C.3       4 RES4    0.0000
    202 H117       3.1569   27.0652    8.5482 H         4 RES4    0.0000
    203 H118       1.6427   26.5777    8.3555 H         4 RES4    0.0000
    204 C71        2.3928   27.5463    6.6789 C.3       4 RES4    0.0000
    205 H119       3.2637   27.5872    6.2101 H         4 RES4    0.0000
    206 H120       1.7308   27.1516    6.0587 H         4 RES4    0.0000
    207 C72        1.9564   28.9507    7.0487 C.3       4 RES4    0.0000
    208 H121       2.6226   29.3366    7.6697 H         4 RES4    0.0000
    209 H122       1.0913   28.8992    7.5265 H         4 RES4    0.0000
    210 C73        1.8028   29.8827    5.8541 C.3       4 RES4    0.0000
    211 H123       1.1745   29.4786    5.2049 H         4 RES4    0.0000
    212 H124       2.6797   29.9825    5.4060 H         4 RES4    0.0000
    213 C74        1.2854   31.2668    6.2556 C.3       4 RES4    0.0000
    214 H125       0.4044   31.1642    6.6948 H         4 RES4    0.0000
    215 H126       1.9074   31.6612    6.9179 H         4 RES4    0.0000
    216 C75        1.1408   32.2280    5.0772 C.3       4 RES4    0.0000
    217 H127       2.0123   32.3041    4.6128 H         4 RES4    0.0000
    218 H128       0.4861   31.8573    4.4338 H         4 RES4    0.0000
    219 C76        0.6832   33.6138    5.5106 C.3       4 RES4    0.0000
    220 H129       0.6044   34.1939    4.7230 H         4 RES4    0.0000
    221 H130      -0.1883   33.5464    5.9540 H         4 RES4    0.0000
    222 H131       1.3368   33.9932    6.1330 H         4 RES4    0.0000
    223 C77        2.5630   24.9311   12.6560 C.3       4 RES4    0.0000
    224 H132       1.6561   25.1411   12.3184 H         4 RES4    0.0000
    225 H133       3.1672   25.6699   12.3900 H         4 RES4    0.0000
    226 C78        2.5233   24.8335   14.1740 C.3       4 RES4    0.0000
    227 H134       1.9402   24.0749   14.4306 H         4 RES4    0.0000
    228 H135       3.4360   24.6387   14.5050 H         4 RES4    0.0000
    229 C79        2.0168   26.0901   14.8476 C.3       4 RES4    0.0000
    230 H136       1.0744   26.2424   14.5876 H         4 RES4    0.0000
    231 H137       2.5468   26.8633   14.5298 H         4 RES4    0.0000
    232 C80        2.1075   26.0121   16.3639 C.3       4 RES4    0.0000
    233 H138       3.0626   25.9614   16.6173 H         4 RES4    0.0000
    234 H139       1.6780   25.1701   16.6586 H         4 RES4    0.0000
    235 C81        1.4685   27.1710   17.1223 C.3       4 RES4    0.0000
    236 H140       1.8116   27.1726   18.0521 H         4 RES4    0.0000
    237 H141       1.7430   28.0219   16.6971 H         4 RES4    0.0000
    238 C82       -0.0534   27.1091   17.1598 C.3       4 RES4    0.0000
    239 H142      -0.3919   26.2463   17.5123 H         4 RES4    0.0000
    240 H143      -0.4652   27.3032   16.2813 H         4 RES4    0.0000
    241 C83       -0.2225   28.3375   18.2256 C.3       4 RES4    0.0000
    242 H144      -1.1738   28.4833   18.4073 H         4 RES4    0.0000
    243 H145       0.2392   28.1146   19.0600 H         4 RES4    0.0000
    244 H146       0.1663   29.1525   17.8455 H         4 RES4    0.0000
    245 N10        2.9925   25.3396    7.5359 N.3       4 RES4    0.0000
    246 H147       3.1350   25.1771    6.6838 H         4 RES4    0.0000
    247 N11        3.0225   23.6993   12.0570 N.3       4 RES4    0.0000
    248 H148       3.1816   23.0182   12.5910 H         4 RES4    0.0000
    249 N12        4.0606   22.7722    6.6731 N.pl3     4 RES4    0.0000
    250 O7         3.8914   23.6299    5.7615 O.2       4 RES4    0.0000
    251 O8         4.5191   21.6424    6.3982 O.2       4 RES4    0.0000
    252 C84       -0.8415   27.9671   18.0466 Du       10 SUP10   0.0000
    253 H149      -1.7945   27.7748   17.9226 Du       10 SUP10   0.0000
    254 H150      -0.5912   27.7909   18.9774 Du       10 SUP10   0.0000
    255 H151      -0.6653   28.9071   17.8318 Du       10 SUP10   0.0000
    256 C85        4.7966   19.6761   14.9057 C.ar      5 RES5    0.0000
    257 C86        4.6811   19.9609   16.3042 C.ar      5 RES5    0.0000
    258 C87        4.9981   18.9224   17.2080 C.ar      5 RES5    0.0000
    259 H152       4.9253   19.0860   18.1402 H         5 RES5    0.0000
    260 C88        5.4104   17.6701   16.7740 C.ar      5 RES5    0.0000
    261 C89        5.5159   17.4245   15.3711 C.ar      5 RES5    0.0000
    262 H153       5.7950   16.5708   15.0613 H         5 RES5    0.0000
    263 C90        5.2236   18.3935   14.4912 C.ar      5 RES5    0.0000
    264 H154       5.3050   18.2138   13.5632 H         5 RES5    0.0000
    265 C91        4.1129   21.4952   18.1576 C.3       5 RES5    0.0000
    266 H155       4.9756   21.4117   18.6332 H         5 RES5    0.0000
    267 H156       3.4708   20.8613   18.5671 H         5 RES5    0.0000
    268 C92        3.5895   22.9116   18.2969 C.3       5 RES5    0.0000
    269 H157       2.7782   23.0117   17.7381 H         5 RES5    0.0000
    270 H158       4.2724   23.5439   17.9584 H         5 RES5    0.0000
    271 C93        3.2522   23.2693   19.7389 C.3       5 RES5    0.0000
    272 H159       2.6085   22.6052   20.0927 H         5 RES5    0.0000
    273 H160       4.0756   23.2118   20.2855 H         5 RES5    0.0000
    274 C94        2.6553   24.6618   19.8906 C.3       5 RES5    0.0000
    275 H161       3.3277   25.3304   19.6081 H         5 RES5    0.0000
    276 H162       1.8754   24.7439   19.2886 H         5 RES5    0.0000
    277 C95        2.2186   24.9743   21.3059 C.3       5 RES5    0.0000
    278 H163       1.5787   24.2794   21.6019 H         5 RES5    0.0000
    279 H164       3.0087   24.9293   21.9021 H         5 RES5    0.0000
    280 C96        1.5686   26.3311   21.4606 C.3       5 RES5    0.0000
    281 H165       2.2345   27.0317   21.2466 H         5 RES5    0.0000
    282 H166       0.8301   26.4102   20.8060 H         5 RES5    0.0000
    283 C97        1.0274   26.5780   22.8370 C.3       5 RES5    0.0000
    284 H167       0.6210   27.4688   22.8742 H         5 RES5    0.0000
    285 H168       0.3499   25.9026   23.0477 H         5 RES5    0.0000
    286 H169       1.7565   26.5242   23.4884 H         5 RES5    0.0000
    287 C98        5.5707   16.7928   19.0765 C.3       5 RES5    0.0000
    288 H170       4.6375   17.0297   19.3051 H         5 RES5    0.0000
    289 H171       6.1597   17.5226   19.3960 H         5 RES5    0.0000
    290 C99        5.9459   15.5041   19.7738 C.3       5 RES5    0.0000
    291 H172       6.8833   15.2758   19.5530 H         5 RES5    0.0000
    292 H173       5.3671   14.7715   19.4401 H         5 RES5    0.0000
    293 C100       5.7976   15.6137   21.2937 C.3       5 RES5    0.0000
    294 H174       6.3340   16.3821   21.6129 H         5 RES5    0.0000
    295 H175       4.8490   15.7996   21.5083 H         5 RES5    0.0000
    296 C101       6.2322   14.3734   22.0417 C.3       5 RES5    0.0000
    297 H176       7.1750   14.1764   21.8140 H         5 RES5    0.0000
    298 H177       5.6836   13.6095   21.7396 H         5 RES5    0.0000
    299 C102       6.1047   14.5018   23.5567 C.3       5 RES5    0.0000
    300 H178       5.2496   14.9688   23.7335 H         5 RES5    0.0000
    301 H179       6.0159   13.5896   23.9317 H         5 RES5    0.0000
    302 C103       7.0338   15.1182   24.2595 C.3       5 RES5    0.0000
    303 H180       6.9316   16.0933   24.1245 H         5 RES5    0.0000
    304 H181       7.9174   14.8588   23.8932 H         5 RES5    0.0000
    305 C104       7.0503   14.8162   25.7989 C.3       5 RES5    0.0000
    306 H182       7.7748   15.3224   26.2230 H         5 RES5    0.0000
    307 H183       6.1936   15.0807   26.1927 H         5 RES5    0.0000
    308 H184       7.1944   13.8576   25.9421 H         5 RES5    0.0000
    309 N13        4.2943   21.1646   16.7610 N.3       5 RES5    0.0000
    310 H185       4.1417   21.7980   16.1684 H         5 RES5    0.0000
    311 N14        5.6956   16.6695   17.6360 N.3       5 RES5    0.0000
    312 H186       5.9713   15.9027   17.3058 H         5 RES5    0.0000
    313 N15        4.5061   20.6063   13.9079 N.pl3     5 RES5    0.0000
    314 O9         4.0652   21.7552   14.2139 O.2       5 RES5    0.0000
    315 O10        4.6525   20.3056   12.7119 O.2       5 RES5    0.0000
    316 H187       6.4825   15.3294   23.8106 Du       10 SUP10   0.0000
    317 H188       5.1237   14.5146   23.7472 Du       10 SUP10   0.0000
    318 C105       6.6031   13.6080   24.4054 Du       10 SUP10   0.0000
    319 H189       7.5673   13.5073   24.2044 Du       10 SUP10   0.0000
    320 H190       6.1761   12.7360   24.2016 Du       10 SUP10   0.0000
    321 C106       6.4529   13.8375   25.9091 Du       10 SUP10   0.0000
    322 H191       6.8680   13.0963   26.3965 Du       10 SUP10   0.0000
    323 H192       6.8938   14.6789   26.1542 Du       10 SUP10   0.0000
    324 H193       5.5020   13.8883   26.1376 Du       10 SUP10   0.0000
    325 C107       7.0906   12.2582   15.3915 C.ar      6 RES6    0.0000
    326 C108       7.2646   11.1911   16.3333 C.ar      6 RES6    0.0000
    327 C109       7.6437    9.9339   15.8101 C.ar      6 RES6    0.0000
    328 H194       7.7469    9.1983   16.4025 H         6 RES6    0.0000
    329 C110       7.8722    9.7410   14.4447 C.ar      6 RES6    0.0000
    330 C111       7.7259   10.8361   13.5464 C.ar      6 RES6    0.0000
    331 H195       7.9026   10.7196   12.6213 H         6 RES6    0.0000
    332 C112       7.3334   12.0447   14.0165 C.ar      6 RES6    0.0000
    333 H196       7.2195   12.7667   13.4089 H         6 RES6    0.0000
    334 C113       7.2585   10.3000   18.6334 C.3       6 RES6    0.0000
    335 H197       8.1720    9.9218   18.5671 H         6 RES6    0.0000
    336 H198       6.6102    9.5749   18.4514 H         6 RES6    0.0000
    337 C114       7.0325   10.8487   20.0382 C.3       6 RES6    0.0000
    338 H199       6.1301   11.2550   20.0845 H         6 RES6    0.0000
    339 H200       7.6960   11.5599   20.2194 H         6 RES6    0.0000
    340 C115       7.1508    9.7723   21.1131 C.3       6 RES6    0.0000
    341 H201       6.4551    9.0847   20.9575 H         6 RES6    0.0000
    342 H202       8.0338    9.3338   21.0318 H         6 RES6    0.0000
    343 C116       6.9998   10.3194   22.5267 C.3       6 RES6    0.0000
    344 H203       7.7088   10.9918   22.6870 H         6 RES6    0.0000
    345 H204       6.1273   10.7813   22.5988 H         6 RES6    0.0000
    346 C117       7.0829    9.2594   23.6043 C.3       6 RES6    0.0000
    347 H205       7.9681    8.8200   23.5572 H         6 RES6    0.0000
    348 H206       6.3927    8.5696   23.4333 H         6 RES6    0.0000
    349 C118       6.8800    9.8367   25.0176 C.3       6 RES6    0.0000
    350 H207       7.6679   10.3925   25.2481 H         6 RES6    0.0000
    351 H208       6.0895   10.4340   25.0030 H         6 RES6    0.0000
    352 C119       6.6977    8.8717   26.0302 C.3       6 RES6    0.0000
    353 H209       6.5767    9.3229   26.8922 H         6 RES6    0.0000
    354 H210       5.9047    8.3341   25.8292 H         6 RES6    0.0000
    355 H211       7.4853    8.2927   26.0743 H         6 RES6    0.0000
    356 C120       8.4306    7.3725   14.7677 C.3       6 RES6    0.0000
    357 H212       7.5724    7.1440   15.2045 H         6 RES6    0.0000
    358 H213       9.0887    7.5764   15.4799 H         6 RES6    0.0000
    359 C121       8.9145    6.1748   13.9727 C.3       6 RES6    0.0000
    360 H214       9.7796    6.3936   13.5439 H         6 RES6    0.0000
    361 H215       8.2605    5.9678   13.2575 H         6 RES6    0.0000
    362 C122       9.0859    4.9606   14.8652 C.3       6 RES6    0.0000
    363 H216       8.2185    4.7607   15.2981 H         6 RES6    0.0000
    364 H217       9.7328    5.1851   15.5818 H         6 RES6    0.0000
    365 C123       9.5680    3.7045   14.1464 C.3       6 RES6    0.0000
    366 H218       8.9429    3.4951   13.4089 H         6 RES6    0.0000
    367 H219      10.4572    3.8838   13.7477 H         6 RES6    0.0000
    368 C124       9.6727    2.4942   15.0654 C.3       6 RES6    0.0000
    369 H220      10.2966    2.7053   15.8021 H         6 RES6    0.0000
    370 H221       8.7839    2.3210   15.4661 H         6 RES6    0.0000
    371 C125      10.1475    1.2425   14.3701 C.3       6 RES6    0.0000
    372 H222      11.0517    1.4041   14.0038 H         6 RES6    0.0000
    373 H223       9.5431    1.0511   13.6100 H         6 RES6    0.0000
    374 C126      10.1969    0.0218   15.2789 C.3       6 RES6    0.0000
    375 H224      10.5110   -0.7514   14.7694 H         6 RES6    0.0000
    376 H225      10.8098    0.1932   16.0252 H         6 RES6    0.0000
    377 H226       9.3000   -0.1598   15.6314 H         6 RES6    0.0000
    378 N16        7.0963   11.3527   17.6583 N.3       6 RES6    0.0000
    379 H227       6.8735   12.1511   17.9502 H         6 RES6    0.0000
    380 N17        8.2476    8.5412   13.9493 N.3       6 RES6    0.0000
    381 H228       8.3873    8.4718   13.0840 H         6 RES6    0.0000
    382 N18        6.6864   13.5383   15.7793 N.pl3     6 RES6    0.0000
    383 O11        6.5011   13.8090   17.0023 O.2       6 RES6    0.0000
    384 O12        6.5229   14.4161   14.9074 O.2       6 RES6    0.0000
    385 C127       4.2596   34.0949    6.3690 C.ar      7 RES7    0.0000
    386 C128       4.1106   34.3698    7.7766 C.ar      7 RES7    0.0000
    387 C129       4.3251   33.3023    8.6669 C.ar      7 RES7    0.0000
    388 H229       4.2271   33.4554    9.6002 H         7 RES7    0.0000
    389 C130       4.6763   32.0312    8.2238 C.ar      7 RES7    0.0000
    390 C131       4.8187   31.7907    6.8309 C.ar      7 RES7    0.0000
    391 H230       5.0600   30.9266    6.5186 H         7 RES7    0.0000
    392 C132       4.6099   32.7997    5.9438 C.ar      7 RES7    0.0000
    393 H231       4.7029   32.6278    5.0149 H         7 RES7    0.0000
    394 C133       3.5531   35.9204    9.6292 C.3       7 RES7    0.0000
    395 H232       4.4015   35.8285   10.1317 H         7 RES7    0.0000
    396 H233       2.8979   35.2847   10.0133 H         7 RES7    0.0000
    397 C134       3.0289   37.3397    9.7724 C.3       7 RES7    0.0000
    398 H234       3.7203   37.9760    9.4570 H         7 RES7    0.0000
    399 H235       2.2295   37.4514    9.1982 H         7 RES7    0.0000
    400 C135       2.6620   37.6747   11.2072 C.3       7 RES7    0.0000
    401 H236       3.4509   37.5217   11.7841 H         7 RES7    0.0000
    402 H237       1.9435   37.0635   11.5060 H         7 RES7    0.0000
    403 C136       2.1936   39.1129   11.3804 C.3       7 RES7    0.0000
    404 H238       1.3741   39.2533   10.8423 H         7 RES7    0.0000
    405 H239       2.8910   39.7255   11.0350 H         7 RES7    0.0000
    406 C137       1.8998   39.4671   12.8339 C.3       7 RES7    0.0000
    407 H240       2.7124   39.2952   13.3731 H         7 RES7    0.0000
    408 H241       1.1844   38.8723   13.1693 H         7 RES7    0.0000
    409 C138       1.4702   40.9174   13.0413 C.3       7 RES7    0.0000
    410 H242       2.1525   41.5165   12.6461 H         7 RES7    0.0000
    411 H243       0.6180   41.0722   12.5607 H         7 RES7    0.0000
    412 C139       1.2859   41.2778   14.5091 C.3       7 RES7    0.0000
    413 H244       1.0100   42.2136   14.5821 H         7 RES7    0.0000
    414 H245       0.5953   40.7014   14.9016 H         7 RES7    0.0000
    415 H246       2.1310   41.1457   14.9869 H         7 RES7    0.0000
    416 C140       4.7961   31.1261   10.5275 C.3       7 RES7    0.0000
    417 H247       3.8743   31.3911   10.7734 H         7 RES7    0.0000
    418 H248       5.4119   31.8346   10.8395 H         7 RES7    0.0000
    419 C141       5.1430   29.8235   11.2151 C.3       7 RES7    0.0000
    420 H249       6.0775   29.5803   10.9937 H         7 RES7    0.0000
    421 H250       4.5528   29.1070   10.8698 H         7 RES7    0.0000
    422 C142       4.9943   29.9085   12.7276 C.3       7 RES7    0.0000
    423 H251       5.6051   30.6049   13.0730 H         7 RES7    0.0000
    424 H252       4.0687   30.1820   12.9463 H         7 RES7    0.0000
    425 C143       5.2975   28.5985   13.4246 C.3       7 RES7    0.0000
    426 H253       6.2116   28.3144   13.1748 H         7 RES7    0.0000
    427 H254       4.6696   27.9115   13.0867 H         7 RES7    0.0000
    428 C144       5.2008   28.6330   14.9517 C.3       7 RES7    0.0000
    429 H255       4.4031   29.1620   15.2073 H         7 RES7    0.0000
    430 H256       5.0679   27.7096   15.2816 H         7 RES7    0.0000
    431 C145       6.3952   29.2177   15.6286 C.3       7 RES7    0.0000
    432 H257       6.3912   30.2041   15.5570 H         7 RES7    0.0000
    433 H258       7.2297   28.8712   15.2238 H         7 RES7    0.0000
    434 C146       6.2846   28.7685   17.1433 C.3       7 RES7    0.0000
    435 H259       7.0477   29.1265   17.6472 H         7 RES7    0.0000
    436 H260       5.4519   29.1158   17.5261 H         7 RES7    0.0000
    437 H261       6.2853   27.7905   17.1956 H         7 RES7    0.0000
    438 N19        3.7775   35.5992    8.2296 N.3       7 RES7    0.0000
    439 H262       3.6911   36.2464    7.6394 H         7 RES7    0.0000
    440 N20        4.8925   31.0105    9.0781 N.3       7 RES7    0.0000
    441 H263       5.1036   30.2243    8.7383 H         7 RES7    0.0000
    442 N21        4.0624   35.0667    5.3911 N.pl3     7 RES7    0.0000
    443 O13        3.7904   36.2564    5.7042 O.2       7 RES7    0.0000
    444 O14        4.1363   34.7455    4.1860 O.2       7 RES7    0.0000
    445 C147       6.3605   26.6082    6.7411 C.ar      8 RES8    0.0000
    446 C148       6.5386   25.5659    7.7116 C.ar      8 RES8    0.0000
    447 C149       7.0025   24.3246    7.2332 C.ar      8 RES8    0.0000
    448 H264       7.1044   23.6050    7.8460 H         8 RES8    0.0000
    449 C150       7.3165   24.1116    5.8929 C.ar      8 RES8    0.0000
    450 C151       7.1545   25.1788    4.9634 C.ar      8 RES8    0.0000
    451 H265       7.3765   25.0506    4.0483 H         8 RES8    0.0000
    452 C152       6.6850   26.3713    5.3875 C.ar      8 RES8    0.0000
    453 H266       6.5698   27.0717    4.7561 H         8 RES8    0.0000
    454 C153       6.5454   24.7514   10.0387 C.3       8 RES8    0.0000
    455 H267       7.4781   24.4261    9.9748 H         8 RES8    0.0000
    456 H268       5.9415   23.9802    9.8922 H         8 RES8    0.0000
    457 C154       6.3032   25.3316   11.4187 C.3       8 RES8    0.0000
    458 H269       6.8792   26.1257   11.5390 H         8 RES8    0.0000
    459 H270       5.3602   25.6284   11.4812 H         8 RES8    0.0000
    460 C155       6.5855   24.3447   12.5302 C.3       8 RES8    0.0000
    461 H271       7.4928   23.9694   12.4037 H         8 RES8    0.0000
    462 H272       5.9376   23.5972   12.4698 H         8 RES8    0.0000
    463 C156       6.4951   24.9690   13.9099 C.3       8 RES8    0.0000
    464 H273       7.0964   25.7539   13.9432 H         8 RES8    0.0000
    465 H274       5.5709   25.2915   14.0534 H         8 RES8    0.0000
    466 C157       6.8625   24.0258   15.0379 C.3       8 RES8    0.0000
    467 H275       7.7447   23.6208   14.8410 H         8 RES8    0.0000
    468 H276       6.1977   23.2928   15.0696 H         8 RES8    0.0000
    469 C158       6.9222   24.6960   16.4094 C.3       8 RES8    0.0000
    470 H277       7.5437   25.4654   16.3667 H         8 RES8    0.0000
    471 H278       6.0238   25.0427   16.6366 H         8 RES8    0.0000
    472 C159       7.3787   23.7547   17.5021 C.3       8 RES8    0.0000
    473 H279       7.3993   24.2328   18.3578 H         8 RES8    0.0000
    474 H280       6.7557   23.0015   17.5646 H         8 RES8    0.0000
    475 H281       8.2753   23.4198   17.2920 H         8 RES8    0.0000
    476 C160       7.9279   21.7589    6.2749 C.3       8 RES8    0.0000
    477 H282       7.0465   21.5080    6.6480 H         8 RES8    0.0000
    478 H283       8.5297   21.9744    7.0308 H         8 RES8    0.0000
    479 C161       8.5006   20.5738    5.5013 C.3       8 RES8    0.0000
    480 H284       7.9672   20.4256    4.6817 H         8 RES8    0.0000
    481 H285       9.4319   20.7758    5.2297 H         8 RES8    0.0000
    482 C162       8.4816   19.3117    6.3561 C.3       8 RES8    0.0000
    483 H286       7.5631   19.1721    6.6976 H         8 RES8    0.0000
    484 H287       9.0739   19.4455    7.1382 H         8 RES8    0.0000
    485 C163       8.9270   18.0579    5.6109 C.3       8 RES8    0.0000
    486 H288       9.8513   18.1864    5.2793 H         8 RES8    0.0000
    487 H289       8.3400   17.9212    4.8249 H         8 RES8    0.0000
    488 C164       8.8824   16.8088    6.4963 C.3       8 RES8    0.0000
    489 H290       9.5200   16.9242    7.2429 H         8 RES8    0.0000
    490 H291       7.9762   16.7272    6.8849 H         8 RES8    0.0000
    491 C165       9.2156   15.5322    5.7720 C.3       8 RES8    0.0000
    492 H292      10.1117   15.6232    5.3619 H         8 RES8    0.0000
    493 H293       8.5614   15.4019    5.0397 H         8 RES8    0.0000
    494 C166       9.2079   14.3011    6.6590 C.3       8 RES8    0.0000
    495 H294       9.4315   13.5106    6.1220 H         8 RES8    0.0000
    496 H295       9.8688   14.4066    7.3723 H         8 RES8    0.0000
    497 H296       8.3174   14.1853    7.0501 H         8 RES8    0.0000
    498 N22        6.3127   25.7491    9.0203 N.3       8 RES8    0.0000
    499 H297       5.9998   26.5302    9.2753 H         8 RES8    0.0000
    500 N23        7.7753   22.9297    5.4379 N.3       8 RES8    0.0000
    501 H298       7.9931   22.8670    4.5881 H         8 RES8    0.0000
    502 N24        5.8796   27.8657    7.0732 N.pl3     8 RES8    0.0000
    503 O15        5.6160   28.1741    8.2819 O.2       8 RES8    0.0000
    504 O16        5.7160   28.7280    6.1760 O.2       8 RES8    0.0000
    505 C167       8.9473   23.0923    0.3605 C.ar      9 RES9    0.0000
    506 C168       9.4363   21.8230   -0.0631 C.ar      9 RES9    0.0000
    507 C169       9.8064   21.6822   -1.4169 C.ar      9 RES9    0.0000
    508 H299      10.1464   20.8469   -1.7212 H         9 RES9    0.0000
    509 C170       9.6840   22.7358   -2.3210 C.ar      9 RES9    0.0000
    510 C171       9.2038   23.9947   -1.8774 C.ar      9 RES9    0.0000
    511 H300       9.1249   24.7193   -2.4868 H         9 RES9    0.0000
    512 C172       8.8561   24.1540   -0.5701 C.ar      9 RES9    0.0000
    513 H301       8.5441   24.9996   -0.2754 H         9 RES9    0.0000
    514 C173      10.0638   19.4802    0.4001 C.3       9 RES9    0.0000
    515 H302      10.9468   19.5923   -0.0330 H         9 RES9    0.0000
    516 H303       9.4493   19.0694   -0.2589 H         9 RES9    0.0000
    517 C174      10.2048   18.5615    1.6000 C.3       9 RES9    0.0000
    518 H304      10.7863   18.9936    2.2748 H         9 RES9    0.0000
    519 H305       9.3147   18.4233    2.0104 H         9 RES9    0.0000
    520 C175      10.7938   17.2180    1.2172 C.3       9 RES9    0.0000
    521 H306      11.6598   17.3654    0.7601 H         9 RES9    0.0000
    522 H307      10.1868   16.7738    0.5728 H         9 RES9    0.0000
    523 C176      11.0155   16.2889    2.3992 C.3       9 RES9    0.0000
    524 H308      11.6044   16.7412    3.0541 H         9 RES9    0.0000
    525 H309      10.1466   16.1185    2.8421 H         9 RES9    0.0000
    526 C177      11.6379   14.9613    2.0159 C.3       9 RES9    0.0000
    527 H310      12.4954   15.1324    1.5532 H         9 RES9    0.0000
    528 H311      11.0373   14.5007    1.3770 H         9 RES9    0.0000
    529 C178      11.8961   14.0358    3.2026 C.3       9 RES9    0.0000
    530 H312      12.5073   14.4903    3.8362 H         9 RES9    0.0000
    531 H313      11.0417   13.8718    3.6738 H         9 RES9    0.0000
    532 C179      12.5017   12.7045    2.8079 C.3       9 RES9    0.0000
    533 H314      12.6426   12.1589    3.6104 H         9 RES9    0.0000
    534 H315      11.8937   12.2361    2.1976 H         9 RES9    0.0000
    535 H316      13.3605   12.8545    2.3601 H         9 RES9    0.0000
    536 C180      10.4747   21.3531   -4.2099 C.3       9 RES9    0.0000
    537 H317       9.8198   20.6399   -4.0097 H         9 RES9    0.0000
    538 H318      11.3356   21.1005   -3.7922 H         9 RES9    0.0000
    539 C181      10.6609   21.4485   -5.7097 C.3       9 RES9    0.0000
    540 H319      11.3491   22.1305   -5.9155 H         9 RES9    0.0000
    541 H320       9.8121   21.7310   -6.1330 H         9 RES9    0.0000
    542 C182      11.0888   20.1063   -6.2765 C.3       9 RES9    0.0000
    543 H321      10.3983   19.4324   -6.0587 H         9 RES9    0.0000
    544 H322      11.9317   19.8258   -5.8411 H         9 RES9    0.0000
    545 C183      11.2980   20.1287   -7.7923 C.3       9 RES9    0.0000
    546 H323      11.9455   20.8426   -8.0195 H         9 RES9    0.0000
    547 H324      10.4404   20.3423   -8.2370 H         9 RES9    0.0000
    548 C184      11.8214   18.7785   -8.3252 C.3       9 RES9    0.0000
    549 H325      12.6596   18.5585   -7.8460 H         9 RES9    0.0000
    550 H326      11.1584   18.0781   -8.1021 H         9 RES9    0.0000
    551 C185      12.0800   18.7278   -9.7489 C.3       9 RES9    0.0000
    552 H327      12.7140   19.4531   -9.9830 H         9 RES9    0.0000
    553 H328      11.2338   18.8991  -10.2336 H         9 RES9    0.0000
    554 C186      12.6710   17.3574  -10.2199 C.3       9 RES9    0.0000
    555 H329      12.8248   17.3838  -11.1865 H         9 RES9    0.0000
    556 H330      13.5194   17.1930   -9.7572 H         9 RES9    0.0000
    557 H331      12.0392   16.6390  -10.0078 H         9 RES9    0.0000
    558 N25        9.5522   20.7816    0.7865 N.3       9 RES9    0.0000
    559 H332       9.3019   20.8989    1.6221 H         9 RES9    0.0000
    560 N26       10.0133   22.5931   -3.6258 N.3       9 RES9    0.0000
    561 H333       9.9414   23.2954   -4.1502 H         9 RES9    0.0000
    562 N27        8.5615   23.3726    1.6810 N.pl3     9 RES9    0.0000
    563 O17        8.6182   22.4656    2.5568 O.2       9 RES9    0.0000
    564 O18        8.1516   24.5068    1.9707 O.2       9 RES9    0.0000
@<TRIPOS>BOND
     1    1    2 ar
     2    2    3 ar
     3    3    4 1
     4    5    3 ar
     5    6    5 ar
     6    7    6 1
     7    8    1 ar
     8    9    8 1
     9   10   11 1
    10   12   10 1
    11   13   10 1
    12   14   13 1
    13   15   13 1
    14   16   13 1
    15   17   16 1
    16   18   16 1
    17   19   16 1
    18   20   19 1
    19   21   19 1
    20   22   19 1
    21   23   22 1
    22   24   22 1
    23   25   22 1
    24   26   25 1
    25   27   25 1
    26   28   25 1
    27   29   28 1
    28   30   28 1
    29   31   28 1
    30   32   33 1
    31   34   32 1
    32   35   32 1
    33   36   35 1
    34   37   35 1
    35   38   35 1
    36   39   38 1
    37   40   38 1
    38   41   38 1
    39   42   41 1
    40   43   41 1
    41   44   41 1
    42   45   44 1
    43   46   44 1
    44   47   44 1
    45   48   47 1
    46   49   47 1
    47   50   47 1
    48   51   50 1
    49   52   50 1
    50   53   50 1
    51   54    2 1
    52   55   54 1
    53   56    5 1
    54   57   56 1
    55   58    1 1
    56   59   58 2
    57   60   58 2
    58   61   62 ar
    59   62   63 ar
    60   63   64 1
    61   65   63 ar
    62   66   65 ar
    63   67   66 1
    64   68   61 ar
    65   69   68 1
    66   70   71 1
    67   72   70 1
    68   73   70 1
    69   74   73 1
    70   75   73 1
    71   76   73 1
    72   77   76 1
    73   78   76 1
    74   79   76 1
    75   80   79 1
    76   81   79 1
    77   82   79 1
    78   83   82 1
    79   84   82 1
    80   85   82 1
    81   86   85 1
    82   87   85 1
    83   88   85 1
    84   89   88 1
    85   90   88 1
    86   91   88 1
    87   92   93 1
    88   94   92 1
    89   95   92 1
    90   96   95 1
    91   97   95 1
    92   98   95 1
    93   99   98 1
    94  100   98 1
    95  101   98 1
    96  102  101 1
    97  103  101 1
    98  104  101 1
    99  105  104 1
   100  106  104 1
   101  107  104 1
   102  108  107 1
   103  109  107 1
   104  110  107 1
   105  111  110 1
   106  112  110 1
   107  113  110 1
   108  114   62 1
   109  115  114 1
   110  116   65 1
   111  117  116 1
   112  118   61 1
   113  119  118 2
   114  120  118 2
   115  128  129 ar
   116  129  130 ar
   117  130  131 1
   118  132  130 ar
   119  133  132 ar
   120  134  133 1
   121  135  128 ar
   122  136  135 1
   123  137  138 1
   124  139  137 1
   125  140  137 1
   126  141  140 1
   127  142  140 1
   128  143  140 1
   129  144  143 1
   130  145  143 1
   131  146  143 1
   132  147  146 1
   133  148  146 1
   134  149  146 1
   135  150  149 1
   136  151  149 1
   137  152  149 1
   138  153  152 1
   139  154  152 1
   140  155  152 1
   141  156  155 1
   142  157  155 1
   143  158  155 1
   144  159  160 1
   145  161  159 1
   146  162  159 1
   147  163  162 1
   148  164  162 1
   149  165  162 1
   150  166  165 1
   151  167  165 1
   152  168  165 1
   153  169  168 1
   154  170  168 1
   155  171  168 1
   156  172  171 1
   157  173  171 1
   158  174  171 1
   159  175  174 1
   160  176  174 1
   161  177  174 1
   162  178  177 1
   163  179  177 1
   164  180  177 1
   165  181  129 1
   166  182  181 1
   167  183  132 1
   168  184  183 1
   169  185  128 1
   170  186  185 2
   171  187  185 2
   172  192  193 ar
   173  193  194 ar
   174  194  195 1
   175  196  194 ar
   176  197  196 ar
   177  198  197 1
   178  199  192 ar
   179  200  199 1
   180  201  202 1
   181  203  201 1
   182  204  201 1
   183  205  204 1
   184  206  204 1
   185  207  204 1
   186  208  207 1
   187  209  207 1
   188  210  207 1
   189  211  210 1
   190  212  210 1
   191  213  210 1
   192  214  213 1
   193  215  213 1
   194  216  213 1
   195  217  216 1
   196  218  216 1
   197  219  216 1
   198  220  219 1
   199  221  219 1
   200  222  219 1
   201  223  224 1
   202  225  223 1
   203  226  223 1
   204  227  226 1
   205  228  226 1
   206  229  226 1
   207  230  229 1
   208  231  229 1
   209  232  229 1
   210  233  232 1
   211  234  232 1
   212  235  232 1
   213  236  235 1
   214  237  235 1
   215  238  235 1
   216  239  238 1
   217  240  238 1
   218  241  238 1
   219  242  241 1
   220  243  241 1
   221  244  241 1
   222  245  193 1
   223  246  245 1
   224  247  196 1
   225  248  247 1
   226  249  192 1
   227  250  249 2
   228  251  249 2
   229  256  257 ar
   230  257  258 ar
   231  258  259 1
   232  260  258 ar
   233  261  260 ar
   234  262  261 1
   235  263  256 ar
   236  264  263 1
   237  265  266 1
   238  267  265 1
   239  268  265 1
   240  269  268 1
   241  270  268 1
   242  271  268 1
   243  272  271 1
   244  273  271 1
   245  274  271 1
   246  275  274 1
   247  276  274 1
   248  277  274 1
   249  278  277 1
   250  279  277 1
   251  280  277 1
   252  281  280 1
   253  282  280 1
   254  283  280 1
   255  284  283 1
   256  285  283 1
   257  286  283 1
   258  287  288 1
   259  289  287 1
   260  290  287 1
   261  291  290 1
   262  292  290 1
   263  293  290 1
   264  294  293 1
   265  295  293 1
   266  296  293 1
   267  297  296 1
   268  298  296 1
   269  299  296 1
   270  300  299 1
   271  301  299 1
   272  302  299 1
   273  303  302 1
   274  304  302 1
   275  305  302 1
   276  306  305 1
   277  307  305 1
   278  308  305 1
   279  309  257 1
   280  310  309 1
   281  311  260 1
   282  312  311 1
   283  313  256 1
   284  314  313 2
   285  315  313 2
   286  325  326 ar
   287  326  327 ar
   288  327  328 1
   289  329  327 ar
   290  330  329 ar
   291  331  330 1
   292  332  325 ar
   293  333  332 1
   294  334  335 1
   295  336  334 1
   296  337  334 1
   297  338  337 1
   298  339  337 1
   299  340  337 1
   300  341  340 1
   301  342  340 1
   302  343  340 1
   303  344  343 1
   304  345  343 1
   305  346  343 1
   306  347  346 1
   307  348  346 1
   308  349  346 1
   309  350  349 1
   310  351  349 1
   311  352  349 1
   312  353  352 1
   313  354  352 1
   314  355  352 1
   315  356  357 1
   316  358  356 1
   317  359  356 1
   318  360  359 1
   319  361  359 1
   320  362  359 1
   321  363  362 1
   322  364  362 1
   323  365  362 1
   324  366  365 1
   325  367  365 1
   326  368  365 1
   327  369  368 1
   328  370  368 1
   329  371  368 1
   330  372  371 1
   331  373  371 1
   332  374  371 1
   333  375  374 1
   334  376  374 1
   335  377  374 1
   336  378  326 1
   337  379  378 1
   338  380  329 1
   339  381  380 1
   340  382  325 1
   341  383  382 2
   342  384  382 2
   343  385  386 ar
   344  386  387 ar
   345  387  388 1
   346  389  387 ar
   347  390  389 ar
   348  391  390 1
   349  392  385 ar
   350  393  392 1
   351  394  395 1
   352  396  394 1
   353  397  394 1
   354  398  397 1
   355  399  397 1
   356  400  397 1
   357  401  400 1
   358  402  400 1
   359  403  400 1
   360  404  403 1
   361  405  403 1
   362  406  403 1
   363  407  406 1
   364  408  406 1
   365  409  406 1
   366  410  409 1
   367  411  409 1
   368  412  409 1
   369  413  412 1
   370  414  412 1
   371  415  412 1
   372  416  417 1
   373  418  416 1
   374  419  416 1
   375  420  419 1
   376  421  419 1
   377  422  419 1
   378  423  422 1
   379  424  422 1
   380  425  422 1
   381  426  425 1
   382  427  425 1
   383  428  425 1
   384  429  428 1
   385  430  428 1
   386  431  428 1
   387  432  431 1
   388  433  431 1
   389  434  431 1
   390  435  434 1
   391  436  434 1
   392  437  434 1
   393  438  386 1
   394  439  438 1
   395  440  389 1
   396  441  440 1
   397  442  385 1
   398  443  442 2
   399  444  442 2
   400  445  446 ar
   401  446  447 ar
   402  447  448 1
   403  449  447 ar
   404  450  449 ar
   405  451  450 1
   406  452  445 ar
   407  453  452 1
   408  454  455 1
   409  456  454 1
   410  457  454 1
   411  458  457 1
   412  459  457 1
   413  460  457 1
   414  461  460 1
   415  462  460 1
   416  463  460 1
   417  464  463 1
   418  465  463 1
   419  466  463 1
   420  467  466 1
   421  468  466 1
   422  469  466 1
   423  470  469 1
   424  471  469 1
   425  472  469 1
   426  473  472 1
   427  474  472 1
   428  475  472 1
   429  476  477 1
   430  478  476 1
   431  479  476 1
   432  480  479 1
   433  481  479 1
   434  482  479 1
   435  483  482 1
   436  484  482 1
   437  485  482 1
   438  486  485 1
   439  487  485 1
   440  488  485 1
   441  489  488 1
   442  490  488 1
   443  491  488 1
   444  492  491 1
   445  493  491 1
   446  494  491 1
   447  495  494 1
   448  496  494 1
   449  497  494 1
   450  498  446 1
   451  499  498 1
   452  500  449 1
   453  501  500 1
   454  502  445 1
   455  503  502 2
   456  504  502 2
   457  505  506 ar
   458  506  507 ar
   459  507  508 1
   460  509  507 ar
   461  510  509 ar
   462  511  510 1
   463  512  505 ar
   464  513  512 1
   465  514  515 1
   466  516  514 1
   467  517  514 1
   468  518  517 1
   469  519  517 1
   470  520  517 1
   471  521  520 1
   472  522  520 1
   473  523  520 1
   474  524  523 1
   475  525  523 1
   476  526  523 1
   477  527  526 1
   478  528  526 1
   479  529  526 1
   480  530  529 1
   481  531  529 1
   482  532  529 1
   483  533  532 1
   484  534  532 1
   485  535  532 1
   486  536  537 1
   487  538  536 1
   488  539  536 1
   489  540  539 1
   490  541  539 1
   491  542  539 1
   492  543  542 1
   493  544  542 1
   494  545  542 1
   495  546  545 1
   496  547  545 1
   497  548  545 1
   498  549  548 1
   499  550  548 1
   500  551  548 1
   501  552  551 1
   502  553  551 1
   503  554  551 1
   504  555  554 1
   505  556  554 1
   506  557  554 1
   507  558  506 1
   508  559  558 1
   509  560  509 1
   510  561  560 1
   511  562  505 1
   512  563  562 2
   513  564  562 2
   514    6    8 ar
   515   10   54 1
   516   32   56 1
   517   66   68 ar
   518   70  114 1
   519   92  116 1
   520  133  135 ar
   521  137  181 1
   522  159  183 1
   523  197  199 ar
   524  201  245 1
   525  223  247 1
   526  261  263 ar
   527  265  309 1
   528  287  311 1
   529  330  332 ar
   530  334  378 1
   531  356  380 1
   532  390  392 ar
   533  394  438 1
   534  416  440 1
   535  450  452 ar
   536  454  498 1
   537  476  500 1
   538  510  512 ar
   539  514  558 1
   540  536  560 1
@<TRIPOS>SUBSTRUCTURE
     1 RES1 1
     2 RES2 61
     3 RES3 128
     4 RES4 192
     5 RES5 256
     6 RES6 325
     7 RES7 385
     8 RES8 445
     9 RES9 505
    10 SUP10 121

@<TRIPOS>CRYSIN
  11.2731   30.5744   31.0881  62.6030  85.5180  87.6590   2 1

