# MOL2 file generated by ConQuest
# Please check atom types

@<TRIPOS>MOLECULE
RAYMOT
    68    68     2
SMALL
USER_CHARGES
****
Generated from CSD

@<TRIPOS>ATOM
      1 O1        16.1259    2.2066    2.9654 O.3       1 RES1    0.0000
      2 O2        16.1156    2.7987    4.3047 O.3       1 RES1    0.0000
      3 O3        13.4818    3.9880    1.4026 O.2       1 RES1   -1.0000
      4 O4        12.8077    0.3715    5.0805 O.2       1 RES1    0.0000
      5 O5        10.6293   -0.0801    5.2716 O.3       1 RES1    0.0000
      6 N1        14.0881    3.1295    2.1615 N.pl3     1 RES1    1.0000
      7 C1        15.6122    3.1163    2.0252 C.3       1 RES1    0.0000
      8 C2        15.9313    2.4823    0.6788 C.3       1 RES1    0.0000
      9 C3        17.4348    2.5059    0.4048 C.3       1 RES1    0.0000
     10 C4        18.0049    3.9237    0.5565 C.3       1 RES1    0.0000
     11 C5        17.6548    4.5301    1.9099 C.3       1 RES1    0.0000
     12 C6        16.1474    4.5262    2.1460 C.3       1 RES1    0.0000
     13 C7        13.4436    2.2539    2.8979 C.2       1 RES1    0.0000
     14 C8        12.0238    2.1450    2.8276 C.2       1 RES1    0.0000
     15 C9        11.2327    1.3744    3.5922 C.2       1 RES1    0.0000
     16 C10       11.6775    0.5277    4.7095 C.2       1 RES1    0.0000
     17 C11       10.9050   -0.9333    6.4058 C.3       1 RES1    0.0000
     18 O6        20.5693    0.0827    3.3252 O.3       2 RES2    0.0000
     19 O7        19.9526    0.1116    1.9999 O.3       2 RES2    0.0000
     20 O8        18.7801    2.7068    4.9231 O.2       2 RES2   -1.0000
     21 O9        22.5741    3.3553    1.4841 O.2       2 RES2    0.0000
     22 O10       22.9242    5.5370    1.1482 O.3       2 RES2    0.0000
     23 N2        19.6652    2.1161    4.1867 N.pl3     2 RES2    1.0000
     24 C12       19.6917    0.5907    4.2893 C.3       2 RES2    0.0000
     25 C13       20.3702    0.2665    5.6173 C.3       2 RES2    0.0000
     26 C14       20.3548   -1.2418    5.8900 C.3       2 RES2    0.0000
     27 C15       18.9544   -1.8076    5.8000 C.3       2 RES2    0.0000
     28 C16       18.3046   -1.4715    4.4635 C.3       2 RES2    0.0000
     29 C17       18.2822    0.0420    4.2204 C.3       2 RES2    0.0000
     30 C18       20.5705    2.7567    3.4924 C.2       2 RES2    0.0000
     31 C19       20.6799    4.1915    3.5880 C.2       2 RES2    0.0000
     32 C20       21.4842    4.9673    2.8558 C.2       2 RES2    0.0000
     33 C21       22.3584    4.4999    1.7708 C.2       2 RES2    0.0000
     34 C22       23.7626    5.2114    0.0253 C.3       2 RES2    0.0000
     35 H1        15.4592    2.9798   -0.0422 H         1 RES1    0.0000
     36 H2        15.6279    1.5359    0.6746 H         1 RES1    0.0000
     37 H3        17.6015    2.1922   -0.5340 H         1 RES1    0.0000
     38 H4        17.9042    1.9034    1.0400 H         1 RES1    0.0000
     39 H5        17.6309    4.5026   -0.1686 H         1 RES1    0.0000
     40 H6        19.0072    3.8856    0.4497 H         1 RES1    0.0000
     41 H7        18.0012    5.4740    1.9394 H         1 RES1    0.0000
     42 H8        18.1103    3.9906    2.6281 H         1 RES1    0.0000
     43 H9        15.9553    4.8832    3.0638 H         1 RES1    0.0000
     44 H10       15.7128    5.1064    1.4616 H         1 RES1    0.0000
     45 H11       13.9367    1.6803    3.4854 H         1 RES1    0.0000
     46 H12       11.5906    2.6648    2.1643 H         1 RES1    0.0000
     47 H13       10.3014    1.3915    3.4010 H         1 RES1    0.0000
     48 H14       10.0507   -1.3390    6.7318 H         1 RES1    0.0000
     49 H15       11.5161   -1.6671    6.1275 H         1 RES1    0.0000
     50 H16       11.3194   -0.4069    7.1394 H         1 RES1    0.0000
     51 H17       17.1979    2.7304    4.3848 H         1 RES1    0.0000
     52 H18       19.8994    0.7351    6.3664 H         2 RES2    0.0000
     53 H19       21.3267    0.5776    5.5935 H         2 RES2    0.0000
     54 H20       20.9285   -1.6934    5.2140 H         2 RES2    0.0000
     55 H21       20.7225   -1.4177    6.8021 H         2 RES2    0.0000
     56 H22       19.0035   -2.7961    5.9026 H         2 RES2    0.0000
     57 H23       18.4086   -1.4177    6.5351 H         2 RES2    0.0000
     58 H24       18.8102   -1.9034    3.7243 H         2 RES2    0.0000
     59 H25       17.3667   -1.8115    4.4551 H         2 RES2    0.0000
     60 H26       17.9004    0.2232    3.3167 H         2 RES2    0.0000
     61 H27       17.7175    0.4726    4.9189 H         2 RES2    0.0000
     62 H28       21.1618    2.2710    2.9232 H         2 RES2    0.0000
     63 H29       20.1344    4.6207    4.2302 H         2 RES2    0.0000
     64 H30       21.4895    5.8940    3.0497 H         2 RES2    0.0000
     65 H31       24.1443    6.0515   -0.3795 H         2 RES2    0.0000
     66 H32       24.5194    4.6207    0.3092 H         2 RES2    0.0000
     67 H33       23.2201    4.7257   -0.6746 H         2 RES2    0.0000
     68 H34       20.0538   -0.8139    1.7567 H         2 RES2    0.0000
@<TRIPOS>BOND
     1    1    2 1
     2    2   51 1
     3    3    6 1
     4    4   16 2
     5    5   16 1
     6    6    7 1
     7    7    1 1
     8    8    7 1
     9    9    8 1
    10   10    9 1
    11   11   10 1
    12   12    7 1
    13   13    6 2
    14   14   13 1
    15   15   14 2
    16   16   15 1
    17   17    5 1
    18   18   19 1
    19   19   68 1
    20   20   23 1
    21   21   33 2
    22   22   33 1
    23   23   24 1
    24   24   18 1
    25   25   24 1
    26   26   25 1
    27   27   26 1
    28   28   27 1
    29   29   24 1
    30   30   23 2
    31   31   30 1
    32   32   31 2
    33   33   32 1
    34   34   22 1
    35   35    8 1
    36   36    8 1
    37   37    9 1
    38   38    9 1
    39   39   10 1
    40   40   10 1
    41   41   11 1
    42   42   11 1
    43   43   12 1
    44   44   12 1
    45   45   13 1
    46   46   14 1
    47   47   15 1
    48   48   17 1
    49   49   17 1
    50   50   17 1
    51   52   25 1
    52   53   25 1
    53   54   26 1
    54   55   26 1
    55   56   27 1
    56   57   27 1
    57   58   28 1
    58   59   28 1
    59   60   29 1
    60   61   29 1
    61   62   30 1
    62   63   31 1
    63   64   32 1
    64   65   34 1
    65   66   34 1
    66   67   34 1
    67   11   12 1
    68   28   29 1
@<TRIPOS>SUBSTRUCTURE
     1 RES1 1
     2 RES2 18

@<TRIPOS>CRYSIN
  13.2950   13.1270   14.4760  90.0000 103.8700  90.0000   9 1

