# MOL2 file generated by ConQuest
# Please check atom types

@<TRIPOS>MOLECULE
RAYRUE
    24    24     1
SMALL
NO_CHARGES
****
Generated from CSD

@<TRIPOS>ATOM
      1 O1         0.6737    1.9920   -0.9281 O.2       1 RES1    0.0000
      2 O2         2.2443    4.8219    0.4147 O.3       1 RES1    0.0000
      3 O3         1.1188    1.3723    5.3462 O.3       1 RES1    0.0000
      4 N1         1.5812    3.9819   -0.4794 N.am      1 RES1    0.0000
      5 C1         1.1218    2.4812    1.3670 C.ar      1 RES1    0.0000
      6 C2         1.5978    1.2471    1.7861 C.ar      1 RES1    0.0000
      7 C3         1.5895    0.9080    3.1180 C.ar      1 RES1    0.0000
      8 C4         1.0637    1.7923    4.0494 C.ar      1 RES1    0.0000
      9 C5         0.5439    2.9918    3.6347 C.ar      1 RES1    0.0000
     10 C6         0.5922    3.3395    2.3006 C.ar      1 RES1    0.0000
     11 C7         1.1135    2.7921   -0.0878 C.2       1 RES1    0.0000
     12 C8         1.5631    4.4494   -1.8442 C.3       1 RES1    0.0000
     13 C9         0.6118    2.2263    6.3412 C.3       1 RES1    0.0000
     14 H1         1.9365    0.6230    1.1399 H         1 RES1    0.0000
     15 H2         1.9456    0.0637    3.4032 H         1 RES1    0.0000
     16 H3         0.1464    3.5889    4.2732 H         1 RES1    0.0000
     17 H4         0.2512    4.1914    2.0209 H         1 RES1    0.0000
     18 H5         1.0909    3.8178   -2.3917 H         1 RES1    0.0000
     19 H6         2.4639    4.5391   -2.1635 H         1 RES1    0.0000
     20 H7         1.1218    5.3002   -1.8848 H         1 RES1    0.0000
     21 H8         0.7122    1.8096    7.2014 H         1 RES1    0.0000
     22 H9        -0.3184    2.3948    6.1745 H         1 RES1    0.0000
     23 H10        1.0954    3.0556    6.3292 H         1 RES1    0.0000
     24 H11        3.0470    4.4289    0.6045 H         1 RES1    0.0000
@<TRIPOS>BOND
     1    1   11 2
     2    2    4 1
     3    3    8 1
     4    4   11 1
     5    5    6 ar
     6    6    7 ar
     7    7    8 ar
     8    8    9 ar
     9    9   10 ar
    10   10    5 ar
    11   11    5 1
    12   12    4 1
    13   13    3 1
    14   14    6 1
    15   15    7 1
    16   16    9 1
    17   17   10 1
    18   18   12 1
    19   19   12 1
    20   20   12 1
    21   21   13 1
    22   22   13 1
    23   23   13 1
    24   24    2 1
@<TRIPOS>SUBSTRUCTURE
     1 RES1 1

@<TRIPOS>CRYSIN
   7.5440   10.7970   10.9710  90.0000  90.0000  90.0000  19 1

