# MOL2 file generated by ConQuest
# Please check atom types

@<TRIPOS>MOLECULE
RAYXUK
    26    27     1
SMALL
NO_CHARGES
****
Generated from CSD

@<TRIPOS>ATOM
      1 O1         1.2948    0.7957    4.3596 O.2       1 RES1    0.0000
      2 O2         0.2865    3.1345    8.2354 O.3       1 RES1    0.0000
      3 O3        -0.9966    4.9988    7.1625 O.2       1 RES1    0.0000
      4 O4         2.2111    4.1698   -0.6249 O.2       1 RES1    0.0000
      5 O5         2.7303    2.2328    0.1290 O.2       1 RES1    0.0000
      6 N1        -0.1360    4.7730    5.1231 N.am      1 RES1    0.0000
      7 N2         2.2318    3.3325    0.2545 N.pl3     1 RES1    0.0000
      8 C1         1.0232    3.0400    3.7826 C.ar      1 RES1    0.0000
      9 C2         1.5695    2.7457    2.5412 C.ar      1 RES1    0.0000
     10 C3         1.6269    3.6844    1.5579 C.ar      1 RES1    0.0000
     11 C4         1.1430    4.9599    1.7467 C.ar      1 RES1    0.0000
     12 C5         0.5897    5.2655    2.9415 C.ar      1 RES1    0.0000
     13 C6         0.5090    4.3289    3.9857 C.ar      1 RES1    0.0000
     14 C7         1.0548    1.9311    4.7587 C.2       1 RES1    0.0000
     15 C8         0.9059    2.1000    6.1900 C.2       1 RES1    0.0000
     16 C9         0.3860    3.1083    6.9009 C.2       1 RES1    0.0000
     17 C10       -0.3118    4.3447    6.3907 C.2       1 RES1    0.0000
     18 C11        0.8963    2.0712    9.0000 C.3       1 RES1    0.0000
     19 H1        -0.5729    5.6032    4.9737 H         1 RES1    0.0000
     20 H2         1.9091    1.8736    2.3752 H         1 RES1    0.0000
     21 H3         1.1964    5.6091    1.0538 H         1 RES1    0.0000
     22 H4         0.2454    6.1402    3.0801 H         1 RES1    0.0000
     23 H5         1.2306    1.3749    6.7097 H         1 RES1    0.0000
     24 H6         0.6719    2.2688   10.0466 H         1 RES1    0.0000
     25 H7         0.7489    1.1503    8.8256 H         1 RES1    0.0000
     26 H8         1.9391    1.9540    8.6583 H         1 RES1    0.0000
@<TRIPOS>BOND
     1    1   14 2
     2    2   16 1
     3    3   17 2
     4    4    7 2
     5    5    7 2
     6    6   13 1
     7    7   10 1
     8    8    9 ar
     9    9   10 ar
    10   10   11 ar
    11   11   12 ar
    12   12   13 ar
    13   13    8 ar
    14   14    8 1
    15   15   14 1
    16   16   15 2
    17   17    6 1
    18   18    2 1
    19   19    6 1
    20   20    9 1
    21   21   11 1
    22   22   12 1
    23   23   15 1
    24   24   18 1
    25   25   18 1
    26   26   18 1
    27   16   17 1
@<TRIPOS>SUBSTRUCTURE
     1 RES1 1

@<TRIPOS>CRYSIN
   3.8800   11.8650   11.9560  87.9000  89.2600  84.0900   2 1

