# MOL2 file generated by ConQuest
# Please check atom types

@<TRIPOS>MOLECULE
RAZFIH
    39    34     2
SMALL
NO_CHARGES
****
Generated from CSD

@<TRIPOS>ATOM
      1 O1         3.1768   12.1918    8.1079 O.2       1 RES1    0.0000
      2 O2         5.6839   10.9840    5.9860 O.3       1 RES1    0.0000
      3 N1         4.3972   11.1901    6.5373 N.am      1 RES1    0.0000
      4 C1         4.2765   12.0172    7.5764 C.2       1 RES1    0.0000
      5 C2         5.4882   12.7550    8.0718 C.ar      1 RES1    0.0000
      6 C3         5.5404   14.1278    7.8443 C.ar      1 RES1    0.0000
      7 C4         6.5876   14.8643    8.4000 C.ar      1 RES1    0.0000
      8 C5         7.5561   14.2305    9.1251 C.ar      1 RES1    0.0000
      9 C6         7.5315   12.8468    9.3373 C.ar      1 RES1    0.0000
     10 C7         8.6505   12.2020   10.1314 C.3       1 RES1    0.0000
     11 C8         8.7519   10.6665    9.8360 C.3       1 RES1    0.0000
     12 C9         7.3600   10.1208   10.1478 C.3       1 RES1    0.0000
     13 C10        6.3841   10.6016    9.0496 C.3       1 RES1    0.0000
     14 C11        6.4782   12.0967    8.8200 C.ar      1 RES1    0.0000
     15 C12        3.3986   10.2505    6.0965 C.3       1 RES1    0.0000
     16 C13        5.8361   11.7603    4.7950 C.3       1 RES1    0.0000
     17 H1         4.7766   14.6208    7.2515 H         1 RES1    0.0000
     18 H2         6.6494   15.9300    8.2468 H         1 RES1    0.0000
     19 H3         8.3683   14.8166    9.5374 H         1 RES1    0.0000
     20 H4         3.7625    9.7268    5.2172 H         1 RES1    0.0000
     21 H5         3.1997    9.5311    6.8797 H         1 RES1    0.0000
     22 H6         2.4738   10.7668    5.8406 H         1 RES1    0.0000
     23 H7         6.8154   11.5988    4.3750 H         1 RES1    0.0000
     24 H8         5.0857   11.4520    4.0687 H         1 RES1    0.0000
     25 H9         5.7111   12.8100    5.0203 H         1 RES1    0.0000
     26 H10        8.5452   12.4675   11.1671 H         1 RES1    0.0000
     27 H11        9.5928   12.5898    9.7562 H         1 RES1    0.0000
     28 H12        6.4115   10.1061    8.0828 H         1 RES1    0.0000
     29 H13        5.4278   10.3875    9.5156 H         1 RES1    0.0000
     30 H14        9.5253   10.2040   10.4999 H         1 RES1    0.0000
     31 H15        9.0337   10.4365    8.8156 H         1 RES1    0.0000
     32 H16        7.3308    9.1028   10.3796 H         1 RES1    0.0000
     33 H17        6.9773   10.6077   11.2437 H         1 RES1    0.0000
     34 C14        8.6283   10.7729   10.1828 Du        2 SUP2    0.0000
     35 C15        7.4883   10.0290    9.8142 Du        2 SUP2    0.0000
     36 H18        9.2483   10.5221    8.9687 Du        2 SUP2    0.0000
     37 H19        9.3656   10.3263   10.7078 Du        2 SUP2    0.0000
     38 H20        7.5849    9.0539    9.7234 Du        2 SUP2    0.0000
     39 H21        7.0164   10.0939   11.0359 Du        2 SUP2    0.0000
@<TRIPOS>BOND
     1    1    4 2
     2    2    3 1
     3    3    4 1
     4    4    5 1
     5    5    6 ar
     6    6    7 ar
     7    7    8 ar
     8    8    9 ar
     9    9   10 1
    10   10   11 1
    11   11   12 1
    12   12   13 1
    13   13   14 1
    14   14    5 ar
    15   15    3 1
    16   16    2 1
    17   17    6 1
    18   18    7 1
    19   19    8 1
    20   20   15 1
    21   21   15 1
    22   22   15 1
    23   23   16 1
    24   24   16 1
    25   25   16 1
    26   26   10 1
    27   27   10 1
    28   28   13 1
    29   29   13 1
    30   30   11 1
    31   31   11 1
    32   32   12 1
    33   33   12 1
    34    9   14 ar
@<TRIPOS>SUBSTRUCTURE
     1 RES1 1
     2 SUP2 34

@<TRIPOS>CRYSIN
   8.6127   12.2350   11.2223  90.0000 102.9370  90.0000  14 2

