# MOL2 file generated by ConQuest
# Please check atom types

@<TRIPOS>MOLECULE
RAZLIP
    57    52     2
SMALL
NO_CHARGES
****
Generated from CSD

@<TRIPOS>ATOM
      1 C1         1.5903    4.2235   21.8699 C.3       1 RES1    0.0000
      2 H1         1.2937    5.0645   22.2757 H         1 RES1    0.0000
      3 C2         2.1246    3.3073   22.9538 C.3       1 RES1    0.0000
      4 H2         3.0013    3.6359   23.2424 H         1 RES1    0.0000
      5 C3         2.2371    1.8194   22.6263 C.3       1 RES1    0.0000
      6 H3         3.0693    1.6348   22.1419 H         1 RES1    0.0000
      7 C4         1.0253    1.3485   21.8154 C.3       1 RES1    0.0000
      8 H4         0.2238    1.4088   22.3760 H         1 RES1    0.0000
      9 C5         0.8291    2.2036   20.5880 C.3       1 RES1    0.0000
     10 H5         1.6396    2.2168   20.0377 H         1 RES1    0.0000
     11 C6         0.4477    3.6293   21.0453 C.3       1 RES1    0.0000
     12 H6         0.2924    4.1906   20.2585 H         1 RES1    0.0000
     13 O1         2.6938    4.4816   21.0032 O.3       1 RES1    0.0000
     14 C7         2.7335    5.8112   20.4924 C.3       1 RES1    0.0000
     15 H7         2.9465    6.4328   21.2052 H         1 RES1    0.0000
     16 H8         1.8683    6.0514   20.1247 H         1 RES1    0.0000
     17 C8         3.7775    5.8809   19.4252 C.ar      1 RES1    0.0000
     18 C9         3.7703    5.0503   18.3397 C.ar      1 RES1    0.0000
     19 H9         3.1060    4.4043   18.2648 H         1 RES1    0.0000
     20 C10        4.7300    5.1530   17.3536 C.ar      1 RES1    0.0000
     21 H10        4.7197    4.5682   16.6290 H         1 RES1    0.0000
     22 C11        5.6927    6.1126   17.4415 C.ar      1 RES1    0.0000
     23 H11        6.3299    6.1964   16.7695 H         1 RES1    0.0000
     24 C12        5.7216    6.9460   18.5127 C.ar      1 RES1    0.0000
     25 H12        6.3858    7.5939   18.5792 H         1 RES1    0.0000
     26 C13        4.7667    6.8377   19.5059 C.ar      1 RES1    0.0000
     27 H13        4.7913    7.4140   20.2351 H         1 RES1    0.0000
     28 O2         1.2576    3.2733   24.0701 O.3       1 RES1    0.0000
     29 C14        1.6348    2.1405   24.8518 C.3       1 RES1    0.0000
     30 O3         2.2702    1.2374   23.9125 O.3       1 RES1    0.0000
     31 C15        0.3983    1.5048   25.4158 C.3       1 RES1    0.0000
     32 H14       -0.0499    2.1311   25.9889 H         1 RES1    0.0000
     33 H15        0.6408    0.7251   25.9186 H         1 RES1    0.0000
     34 H16       -0.1877    1.2525   24.6976 H         1 RES1    0.0000
     35 C16        2.6511    2.5181   25.9059 C.3       1 RES1    0.0000
     36 H17        3.4080    2.9334   25.4871 H         1 RES1    0.0000
     37 H18        2.9363    1.7299   26.3736 H         1 RES1    0.0000
     38 H19        2.2534    3.1321   26.5274 H         1 RES1    0.0000
     39 N1         1.2503   -0.0961   21.4327 N.pl3     1 RES1    0.0000
     40 O4         0.7774   -0.9408   22.1522 O.2       1 RES1    0.0000
     41 O5         1.8966   -0.3324   20.4355 O.2       1 RES1    0.0000
     42 C17       -0.3490    1.5726   19.8203 C.2       1 RES1    0.0000
     43 O6        -1.1890    0.8343   20.2753 O.2       1 RES1    0.0000
     44 O7        -0.3520    1.9503   18.5558 O.3       1 RES1    0.0000
     45 C18       -1.4730    1.4417   17.7898 C.3       1 RES1    0.0000
     46 H20       -1.3833    0.4916   17.6861 H         1 RES1    0.0000
     47 H21       -1.4862    1.8589   16.9267 H         1 RES1    0.0000
     48 H22       -2.2913    1.6367   18.2548 H         1 RES1    0.0000
     49 O8        -0.7238    3.5982   21.8318 O.3       1 RES1    0.0000
     50 H23       -1.3358    3.8139   21.3089 H         1 RES1    0.0000
     51 C19        0.1805    1.9239   19.2650 Du        2 SUP2    0.0000
     52 C20       -1.8171    0.8664   18.5324 Du        2 SUP2    0.0000
     53 H24       -2.3123    1.6291   18.2280 Du        2 SUP2    0.0000
     54 H25       -2.4267    0.2015   18.8636 Du        2 SUP2    0.0000
     55 H26       -1.3141    0.4982   17.7998 Du        2 SUP2    0.0000
     56 O9         0.5114    2.1640   18.1711 Du        2 SUP2    0.0000
     57 O10       -0.9025    1.2713   19.5995 Du        2 SUP2    0.0000
@<TRIPOS>BOND
     1    1    2 1
     2    3    1 1
     3    4    3 1
     4    5    3 1
     5    6    5 1
     6    7    5 1
     7    8    7 1
     8    9    7 1
     9   10    9 1
    10   11    1 1
    11   12   11 1
    12   13    1 1
    13   14   13 1
    14   15   14 1
    15   16   14 1
    16   17   14 1
    17   18   17 ar
    18   19   18 1
    19   20   18 ar
    20   21   20 1
    21   22   20 ar
    22   23   22 1
    23   24   22 ar
    24   25   24 1
    25   26   17 ar
    26   27   26 1
    27   28    3 1
    28   29   28 1
    29   30    5 1
    30   31   29 1
    31   32   31 1
    32   33   31 1
    33   34   31 1
    34   35   29 1
    35   36   35 1
    36   37   35 1
    37   38   35 1
    38   39    7 1
    39   40   39 2
    40   41   39 2
    41   42    9 1
    42   43   42 2
    43   44   42 1
    44   45   44 1
    45   46   45 1
    46   47   45 1
    47   48   45 1
    48   49   11 1
    49   50   49 1
    50    9   11 1
    51   24   26 ar
    52   29   30 1
@<TRIPOS>SUBSTRUCTURE
     1 RES1 1
     2 SUP2 51

@<TRIPOS>CRYSIN
   6.0170    9.4170   33.4520  90.0000  90.0000  90.0000  19 1

