# MOL2 file generated by ConQuest
# Please check atom types

@<TRIPOS>MOLECULE
RAZWEU
   136   144     2
SMALL
NO_CHARGES
****
Generated from CSD

@<TRIPOS>ATOM
      1 C1         2.6626   11.7382   11.0714 C.3       1 RES1    0.0000
      2 C2         2.2821   10.2639   10.9187 C.2       1 RES1    0.0000
      3 C3         1.0936    9.8077   10.0317 C.3       1 RES1    0.0000
      4 C4         0.0846    9.0118   10.9066 C.3       1 RES1    0.0000
      5 C5        -1.0438    8.3570   10.1165 C.3       1 RES1    0.0000
      6 C6        -0.5067    7.4917    8.9992 C.3       1 RES1    0.0000
      7 C7         0.3233    8.3504    8.0854 C.3       1 RES1    0.0000
      8 C8         1.5558    9.0118    8.7374 C.3       1 RES1    0.0000
      9 C9         1.9775   10.1619    7.8188 C.3       1 RES1    0.0000
     10 C10        1.2644   11.4010    8.3569 C.3       1 RES1    0.0000
     11 C11        2.0944   12.6191    8.7544 C.3       1 RES1    0.0000
     12 C12        3.2549   12.3786    9.7917 C.3       1 RES1    0.0000
     13 O1         0.4507   10.9540    9.4774 O.3       1 RES1    0.0000
     14 C13        1.1253   13.6791    9.3118 C.3       1 RES1    0.0000
     15 C14        0.5859   13.2634   10.6594 C.2       1 RES1    0.0000
     16 C15        1.5596   12.6439   11.6361 C.3       1 RES1    0.0000
     17 O2         2.9197    9.4248   11.5266 O.2       1 RES1    0.0000
     18 C16       -0.5676    9.8391   12.0191 C.3       1 RES1    0.0000
     19 O3         0.4177   10.0848   13.0712 O.3       1 RES1    0.0000
     20 C17       -0.0666   10.5449   14.2343 C.2       1 RES1    0.0000
     21 O4        -1.2322   10.7265   14.4508 O.2       1 RES1    0.0000
     22 C18        1.0286   10.8010   15.2135 C.ar      1 RES1    0.0000
     23 C19        0.6672   11.2062   16.5029 C.ar      1 RES1    0.0000
     24 C20        1.6328   11.4611   17.4530 C.ar      1 RES1    0.0000
     25 C21        2.9544   11.3121   17.0991 C.ar      1 RES1    0.0000
     26 C22        3.3461   10.8899   15.8437 C.ar      1 RES1    0.0000
     27 C23        2.3772   10.6416   14.9033 C.ar      1 RES1    0.0000
     28 N1         3.9836   11.5839   18.1026 N.pl3     1 RES1    0.0000
     29 O5         5.1452   11.3500   17.8500 O.2       1 RES1    0.0000
     30 O6         3.6354   12.0911   19.1666 O.2       1 RES1    0.0000
     31 C24        2.6558    7.9805    8.9507 C.3       1 RES1    0.0000
     32 C25        3.8995   13.7157   10.1601 C.3       1 RES1    0.0000
     33 C26        4.4213   11.5330    9.2512 C.3       1 RES1    0.0000
     34 C27        0.0044   14.0999    8.3375 C.3       1 RES1    0.0000
     35 O7        -0.5556   13.5052   11.0031 O.2       1 RES1    0.0000
     36 C28        3.7905   10.4076    1.9971 C.3       2 RES2    0.0000
     37 C29        4.2165    9.0131    1.4833 C.2       2 RES2    0.0000
     38 C30        5.4400    8.2459    2.0795 C.3       2 RES2    0.0000
     39 C31        6.4143    7.9518    0.8992 C.3       2 RES2    0.0000
     40 C32        7.5809    7.0473    1.2821 C.3       2 RES2    0.0000
     41 C33        7.1187    5.7678    1.9365 C.3       2 RES2    0.0000
     42 C34        6.3172    6.1285    3.1653 C.3       2 RES2    0.0000
     43 C35        5.0485    6.9715    2.9084 C.3       2 RES2    0.0000
     44 C36        4.6776    7.6028    4.2633 C.3       2 RES2    0.0000
     45 C37        5.3422    8.9830    4.2754 C.3       2 RES2    0.0000
     46 C38        4.4979   10.2495    4.4232 C.3       2 RES2    0.0000
     47 C39        3.2855   10.4286    3.4610 C.3       2 RES2    0.0000
     48 O8         6.0857    9.0771    3.0299 O.3       2 RES2    0.0000
     49 C40        5.4508   11.4532    4.2996 C.3       2 RES2    0.0000
     50 C41        5.9043   11.6558    2.8527 C.2       2 RES2    0.0000
     51 C42        4.8409   11.5121    1.7693 C.3       2 RES2    0.0000
     52 O9         3.6068    8.5086    0.5630 O.2       2 RES2    0.0000
     53 C43        6.9021    9.2692    0.3175 C.3       2 RES2    0.0000
     54 O10        7.9437    9.0588   -0.6854 O.3       2 RES2    0.0000
     55 C44        7.5092    8.8523   -1.9438 C.2       2 RES2    0.0000
     56 O11        6.3541    8.7857   -2.2419 O.2       2 RES2    0.0000
     57 C45        8.6330    8.7830   -2.9036 C.ar      2 RES2    0.0000
     58 C46        9.9722    8.7987   -2.4867 C.ar      2 RES2    0.0000
     59 C47       10.9730    8.7138   -3.4174 C.ar      2 RES2    0.0000
     60 C48       10.6303    8.6027   -4.7529 C.ar      2 RES2    0.0000
     61 C49        9.3318    8.6210   -5.1940 C.ar      2 RES2    0.0000
     62 C50        8.3265    8.7138   -4.2487 C.ar      2 RES2    0.0000
     63 N2        11.7024    8.4406   -5.7466 N.pl3     2 RES2    0.0000
     64 O12       12.8523    8.6275   -5.4036 O.2       2 RES2    0.0000
     65 O13       11.3792    8.1335   -6.8855 O.2       2 RES2    0.0000
     66 C51        3.9450    6.0998    2.3146 C.3       2 RES2    0.0000
     67 C52        2.1541    9.3869    3.6186 C.3       2 RES2    0.0000
     68 C53        2.5870   11.7708    3.7519 C.3       2 RES2    0.0000
     69 C54        6.6288   11.4480    5.2691 C.3       2 RES2    0.0000
     70 O14        7.0192   12.0205    2.5691 O.2       2 RES2    0.0000
     71 H1         3.3731   11.7525   11.7161 H         1 RES1    0.0000
     72 H2         0.5597    8.3034   11.3477 H         1 RES1    0.0000
     73 H3        -1.5836    9.0523    9.7335 H         1 RES1    0.0000
     74 H4        -1.6003    7.8302   10.6958 H         1 RES1    0.0000
     75 H5        -1.2156    7.0434    8.5314 H         1 RES1    0.0000
     76 H6         0.0752    6.8265    9.3748 H         1 RES1    0.0000
     77 H7        -0.2496    9.0510    7.7655 H         1 RES1    0.0000
     78 H8         0.6139    7.8342    7.3317 H         1 RES1    0.0000
     79 H9         1.7466    9.9685    6.9075 H         1 RES1    0.0000
     80 H10        2.9261   10.2939    7.8770 H         1 RES1    0.0000
     81 H11        0.6616   11.6924    7.6686 H         1 RES1    0.0000
     82 H12        2.4924   12.9824    7.9594 H         1 RES1    0.0000
     83 H13        1.6550   14.4659    9.4645 H         1 RES1    0.0000
     84 H14        1.9498   13.3445   12.1621 H         1 RES1    0.0000
     85 H15        1.0448   12.0911   12.2275 H         1 RES1    0.0000
     86 H16       -1.3333    9.3895   12.3851 H         1 RES1    0.0000
     87 H17       -0.8528   10.6756   11.6458 H         1 RES1    0.0000
     88 H18       -0.2629   11.3212   16.7138 H         1 RES1    0.0000
     89 H19        1.3894   11.7369   18.3401 H         1 RES1    0.0000
     90 H20        4.2814   10.7945   15.6498 H         1 RES1    0.0000
     91 H21        2.6199   10.3397   14.0235 H         1 RES1    0.0000
     92 H22        2.8811    7.5518    8.1218 H         1 RES1    0.0000
     93 H23        3.4324    8.4184    9.3070 H         1 RES1    0.0000
     94 H24        2.3447    7.3231    9.5784 H         1 RES1    0.0000
     95 H25        4.6119   13.5693   10.7854 H         1 RES1    0.0000
     96 H26        4.2488   14.1365    9.3700 H         1 RES1    0.0000
     97 H27        3.2348   14.2829   10.5576 H         1 RES1    0.0000
     98 H28        5.0955   11.4415    9.9299 H         1 RES1    0.0000
     99 H29        4.0857   10.6651    9.0161 H         1 RES1    0.0000
    100 H30        4.8014   11.9512    8.4757 H         1 RES1    0.0000
    101 H31       -0.5470   14.7782    8.7350 H         1 RES1    0.0000
    102 H32        0.3867   14.4358    7.5231 H         1 RES1    0.0000
    103 H33       -0.5297   13.3262    8.1436 H         1 RES1    0.0000
    104 H34        3.0269   10.6416    1.4639 H         2 RES2    0.0000
    105 H35        5.9257    7.5113    0.2012 H         2 RES2    0.0000
    106 H36        8.1328    7.5283    1.9050 H         2 RES2    0.0000
    107 H37        8.1088    6.8526    0.5041 H         2 RES2    0.0000
    108 H38        7.8723    5.2123    2.1474 H         2 RES2    0.0000
    109 H39        6.5439    5.2881    1.3355 H         2 RES2    0.0000
    110 H40        6.8871    6.6552    3.7301 H         2 RES2    0.0000
    111 H41        6.0807    5.3313    3.6428 H         2 RES2    0.0000
    112 H42        4.9934    7.0604    4.9904 H         2 RES2    0.0000
    113 H43        3.7255    7.6995    4.3408 H         2 RES2    0.0000
    114 H44        5.9830    8.9869    4.9904 H         2 RES2    0.0000
    115 H45        4.1490   10.2482    5.3176 H         2 RES2    0.0000
    116 H46        4.9261   12.2231    4.5275 H         2 RES2    0.0000
    117 H47        4.3692   12.3459    1.7111 H         2 RES2    0.0000
    118 H48        5.2739   11.3644    0.9234 H         2 RES2    0.0000
    119 H49        7.2595    9.7855    1.0422 H         2 RES2    0.0000
    120 H50        6.1725    9.7554   -0.0727 H         2 RES2    0.0000
    121 H51       10.1715    8.8379   -1.5487 H         2 RES2    0.0000
    122 H52       11.8938    8.7530   -3.1484 H         2 RES2    0.0000
    123 H53        9.1300    8.5609   -6.1295 H         2 RES2    0.0000
    124 H54        7.4040    8.7020   -4.5153 H         2 RES2    0.0000
    125 H55        4.2438    5.7364    1.4785 H         2 RES2    0.0000
    126 H56        3.7159    5.3848    2.9109 H         2 RES2    0.0000
    127 H57        3.1737    6.6526    2.1668 H         2 RES2    0.0000
    128 H58        1.4443    9.5699    2.9981 H         2 RES2    0.0000
    129 H59        2.5305    8.5256    3.4271 H         2 RES2    0.0000
    130 H60        1.8059    9.3947    4.5129 H         2 RES2    0.0000
    131 H61        1.8464   11.8636    3.1484 H         2 RES2    0.0000
    132 H62        2.2700   11.8153    4.6559 H         2 RES2    0.0000
    133 H63        3.2154   12.4805    3.5968 H         2 RES2    0.0000
    134 H64        7.1483   12.2427    5.1310 H         2 RES2    0.0000
    135 H65        6.3294   11.4140    6.1804 H         2 RES2    0.0000
    136 H66        7.1687   10.6769    5.0801 H         2 RES2    0.0000
@<TRIPOS>BOND
     1    1    2 1
     2    2    3 1
     3    3    4 1
     4    4    5 1
     5    5    6 1
     6    6    7 1
     7    7    8 1
     8    8    3 1
     9    9    8 1
    10   10    9 1
    11   11   10 1
    12   12    1 1
    13   13    3 1
    14   14   11 1
    15   15   14 1
    16   16    1 1
    17   17    2 2
    18   18    4 1
    19   19   18 1
    20   20   19 1
    21   21   20 2
    22   22   20 1
    23   23   22 ar
    24   24   23 ar
    25   25   24 ar
    26   26   25 ar
    27   27   22 ar
    28   28   25 1
    29   29   28 2
    30   30   28 2
    31   31    8 1
    32   32   12 1
    33   33   12 1
    34   34   14 1
    35   35   15 2
    36   36   37 1
    37   37   38 1
    38   38   39 1
    39   39   40 1
    40   40   41 1
    41   41   42 1
    42   42   43 1
    43   43   38 1
    44   44   43 1
    45   45   44 1
    46   46   45 1
    47   47   36 1
    48   48   38 1
    49   49   46 1
    50   50   49 1
    51   51   36 1
    52   52   37 2
    53   53   39 1
    54   54   53 1
    55   55   54 1
    56   56   55 2
    57   57   55 1
    58   58   57 ar
    59   59   58 ar
    60   60   59 ar
    61   61   60 ar
    62   62   57 ar
    63   63   60 1
    64   64   63 2
    65   65   63 2
    66   66   43 1
    67   67   47 1
    68   68   47 1
    69   69   49 1
    70   70   50 2
    71   71    1 1
    72   72    4 1
    73   73    5 1
    74   74    5 1
    75   75    6 1
    76   76    6 1
    77   77    7 1
    78   78    7 1
    79   79    9 1
    80   80    9 1
    81   81   10 1
    82   82   11 1
    83   83   14 1
    84   84   16 1
    85   85   16 1
    86   86   18 1
    87   87   18 1
    88   88   23 1
    89   89   24 1
    90   90   26 1
    91   91   27 1
    92   92   31 1
    93   93   31 1
    94   94   31 1
    95   95   32 1
    96   96   32 1
    97   97   32 1
    98   98   33 1
    99   99   33 1
   100  100   33 1
   101  101   34 1
   102  102   34 1
   103  103   34 1
   104  104   36 1
   105  105   39 1
   106  106   40 1
   107  107   40 1
   108  108   41 1
   109  109   41 1
   110  110   42 1
   111  111   42 1
   112  112   44 1
   113  113   44 1
   114  114   45 1
   115  115   46 1
   116  116   49 1
   117  117   51 1
   118  118   51 1
   119  119   53 1
   120  120   53 1
   121  121   58 1
   122  122   59 1
   123  123   61 1
   124  124   62 1
   125  125   66 1
   126  126   66 1
   127  127   66 1
   128  128   67 1
   129  129   67 1
   130  130   67 1
   131  131   68 1
   132  132   68 1
   133  133   68 1
   134  134   69 1
   135  135   69 1
   136  136   69 1
   137   10   13 1
   138   11   12 1
   139   15   16 1
   140   26   27 ar
   141   45   48 1
   142   46   47 1
   143   50   51 1
   144   61   62 ar
@<TRIPOS>SUBSTRUCTURE
     1 RES1 1
     2 RES2 36

@<TRIPOS>CRYSIN
   7.6530   13.0700   24.3560  90.0000  95.6680  90.0000   4 1

