# MOL2 file generated by ConQuest
# Please check atom types

@<TRIPOS>MOLECULE
RCXPYO01
    19    26     2
SMALL
NO_CHARGES
****
Generated from CSD

@<TRIPOS>ATOM
      1 O1         0.0642    7.5225    7.3581 O.2       1 RES1    0.0000
      2 O2         5.5327    6.7713    6.9418 O.3       1 RES1    0.0000
      3 O3         5.5431    6.6429    6.7850 Du        2 SUP2    0.0000
      4 O4         5.1941    8.6980    5.9648 O.3       1 RES1    0.0000
      5 O5         5.2976    8.1133    5.1965 Du        2 SUP2    0.0000
      6 N1         1.1377    7.5225    6.6627 N.2       1 RES1    0.0000
      7 C1         2.4655    7.5225    7.3284 C.3       1 RES1    0.0000
      8 C2         3.3568    7.1394    6.1019 C.3       1 RES1    0.0000
      9 C3         2.6388    7.8033    4.9223 C.3       1 RES1    0.0000
     10 C4         1.1513    7.5225    5.1817 C.3       1 RES1    0.0000
     11 C5         0.4597    6.2808    4.6616 C.2       1 RES1    0.0000
     12 C6         2.5914    8.7542    8.1869 C.2       1 RES1    0.0000
     13 C7         4.7817    7.5225    6.2575 C.3       1 RES1    0.0000
     14 C2G        3.3568    7.9056    6.1019 C.3       1 RES1    0.0000
     15 C6G        2.5914    6.2908    8.1869 C.2       1 RES1    0.0000
     16 C3G        2.6388    7.2417    4.9223 C.3       1 RES1    0.0000
     17 O2G        5.5327    8.2737    6.9418 O.3       1 RES1    0.0000
     18 O4G        5.1941    6.3470    5.9648 O.3       1 RES1    0.0000
     19 C5G        0.4597    8.7642    4.6616 C.2       1 RES1    0.0000
@<TRIPOS>BOND
     1    1    6 1
     2    2   13 1
     3    4   13 1
     4    6    7 1
     5    7    8 1
     6    8    9 1
     7    9   10 1
     8   10    6 1
     9   11   10 1
    10   12    7 1
    11   13    8 1
    12   14    7 1
    13   15    7 1
    14   16    8 1
    15   17    2 1
    16   18    2 1
    17   19   10 1
    18    4   17 1
    19    8   14 1
    20    9   14 1
    21    9   16 1
    22   10   16 1
    23   13   14 1
    24   13   18 1
    25   13   17 1
    26   14   16 1
@<TRIPOS>SUBSTRUCTURE
     1 RES1 1
     2 SUP2 3

@<TRIPOS>CRYSIN
   8.0230   10.0300   12.3520  90.0000  90.0000  90.0000  62 1

