# MOL2 file generated by ConQuest
# Please check atom types

@<TRIPOS>MOLECULE
REBLER
    40    42     1
SMALL
NO_CHARGES
****
Generated from CSD

@<TRIPOS>ATOM
      1 C1         6.0741    4.3950    3.2991 C.ar      1 RES1    0.0000
      2 C2         6.4447    3.7231    2.1444 C.ar      1 RES1    0.0000
      3 H1         5.8180    3.5598    1.4756 H         1 RES1    0.0000
      4 C3         7.7453    3.2985    1.9926 C.ar      1 RES1    0.0000
      5 H2         8.0051    2.8568    1.2172 H         1 RES1    0.0000
      6 C4         8.6531    3.5309    2.9897 C.ar      1 RES1    0.0000
      7 H3         9.5368    3.2517    2.9059 H         1 RES1    0.0000
      8 C5         8.2247    4.1894    4.1229 C.ar      1 RES1    0.0000
      9 H4         8.8375    4.3423    4.8045 H         1 RES1    0.0000
     10 C6         4.6726    4.8471    3.5144 C.2       1 RES1    0.0000
     11 C7         4.3965    5.8367    6.8884 C.2       1 RES1    0.0000
     12 C8         5.3990    5.9310    8.0089 C.ar      1 RES1    0.0000
     13 C9         5.0012    6.5754    9.1705 C.ar      1 RES1    0.0000
     14 H5         4.1422    6.9251    9.2330 H         1 RES1    0.0000
     15 C10        5.8738    6.7016   10.2355 C.ar      1 RES1    0.0000
     16 H6         5.6126    7.1463   11.0094 H         1 RES1    0.0000
     17 C11        7.1257    6.1634   10.1342 C.ar      1 RES1    0.0000
     18 C12        7.5705    5.5509    8.9931 C.ar      1 RES1    0.0000
     19 H7         8.4365    5.2183    8.9353 H         1 RES1    0.0000
     20 C13        6.6943    5.4433    7.9323 C.ar      1 RES1    0.0000
     21 H8         6.9792    5.0335    7.1479 H         1 RES1    0.0000
     22 C14        3.7181    4.7981    2.3700 C.ar      1 RES1    0.0000
     23 C15        2.5103    4.1381    2.5144 C.ar      1 RES1    0.0000
     24 H9         2.3254    3.6830    3.3038 H         1 RES1    0.0000
     25 C16        1.5745    4.1493    1.4957 C.ar      1 RES1    0.0000
     26 H10        0.7590    3.7172    1.6088 H         1 RES1    0.0000
     27 C17        1.8502    4.8011    0.3136 C.ar      1 RES1    0.0000
     28 H11        1.2229    4.8048   -0.3728 H         1 RES1    0.0000
     29 C18        3.0509    5.4455    0.1513 C.ar      1 RES1    0.0000
     30 H12        3.2402    5.8768   -0.6501 H         1 RES1    0.0000
     31 C19        3.9806    5.4544    1.1753 C.ar      1 RES1    0.0000
     32 H13        4.7876    5.9036    1.0621 H         1 RES1    0.0000
     33 N1         6.9710    4.6177    4.2875 N.ar      1 RES1    0.0000
     34 N2         4.1280    5.2651    4.6149 N.2       1 RES1    0.0000
     35 N3         4.9209    5.3631    5.7268 N.am      1 RES1    0.0000
     36 H14        5.7446    5.1196    5.6927 H         1 RES1    0.0000
     37 N4         8.0446    6.2525   11.2874 N.pl3     1 RES1    0.0000
     38 O1         3.2371    6.1693    7.0239 O.2       1 RES1    0.0000
     39 O2         7.6541    6.8472   12.2850 O.2       1 RES1    0.0000
     40 O3         9.1261    5.7105   11.2030 O.2       1 RES1    0.0000
@<TRIPOS>BOND
     1    1    2 ar
     2    2    3 1
     3    4    2 ar
     4    5    4 1
     5    6    4 ar
     6    7    6 1
     7    8    6 ar
     8    9    8 1
     9   10    1 1
    10   11   12 1
    11   12   13 ar
    12   13   14 1
    13   15   13 ar
    14   16   15 1
    15   17   15 ar
    16   18   17 ar
    17   19   18 1
    18   20   12 ar
    19   21   20 1
    20   22   10 1
    21   23   22 ar
    22   24   23 1
    23   25   23 ar
    24   26   25 1
    25   27   25 ar
    26   28   27 1
    27   29   27 ar
    28   30   29 1
    29   31   22 ar
    30   32   31 1
    31   33    1 ar
    32   34   10 2
    33   35   11 1
    34   36   35 1
    35   37   17 1
    36   38   11 2
    37   39   37 2
    38   40   37 2
    39    8   33 ar
    40   18   20 ar
    41   29   31 ar
    42   34   35 1
@<TRIPOS>SUBSTRUCTURE
     1 RES1 1

@<TRIPOS>CRYSIN
  13.9892    7.4240   15.6813  90.0000  92.6110  90.0000  14 2

