# MOL2 file generated by ConQuest
# Please check atom types

@<TRIPOS>MOLECULE
REBNUK01
    23    23     1
SMALL
NO_CHARGES
****
Generated from CSD

@<TRIPOS>ATOM
      1 O1        10.8581    1.7028    1.4728 O.3       1 RES1    0.0000
      2 N1         9.7379    2.2150    2.2384 N.2       1 RES1    0.0000
      3 C1         9.1236    2.9637    1.3460 C.2       1 RES1    0.0000
      4 N2         9.7017    3.0322    0.1080 N.2       1 RES1    0.0000
      5 C2        10.7377    2.2294    0.2439 C.2       1 RES1    0.0000
      6 N3         7.9472    3.6052    1.6076 N.3       1 RES1    0.0000
      7 H1         7.7617    4.2981    1.0994 H         1 RES1    0.0000
      8 C3         7.4136    3.6129    2.9430 C.3       1 RES1    0.0000
      9 H2         7.3582    4.5482    3.2635 H         1 RES1    0.0000
     10 H3         8.0328    3.1244    3.5418 H         1 RES1    0.0000
     11 C4         6.0279    2.9726    3.0279 C.3       1 RES1    0.0000
     12 N4         5.9344    1.6835    2.2245 N.pl3     1 RES1    0.0000
     13 O2         5.0197    1.5702    1.4332 O.2       1 RES1    0.0000
     14 O3         6.8032    0.8790    2.4729 O.2       1 RES1    0.0000
     15 N5         5.6818    2.6288    4.4634 N.pl3     1 RES1    0.0000
     16 O4         5.1281    1.5758    4.6875 O.2       1 RES1    0.0000
     17 O5         5.9937    3.4859    5.2743 O.2       1 RES1    0.0000
     18 N6         4.9093    3.8796    2.5250 N.pl3     1 RES1    0.0000
     19 O6         3.8344    3.7971    3.0861 O.2       1 RES1    0.0000
     20 O7         5.2039    4.5957    1.5933 O.2       1 RES1    0.0000
     21 N7        11.6239    1.8791   -0.6654 N.3       1 RES1    0.0000
     22 H4        11.5613    2.1935   -1.4851 H         1 RES1    0.0000
     23 H5        12.2784    1.3302   -0.4538 H         1 RES1    0.0000
@<TRIPOS>BOND
     1    1    2 1
     2    2    3 2
     3    3    4 1
     4    4    5 2
     5    5    1 1
     6    6    3 1
     7    7    6 1
     8    8    6 1
     9    9    8 1
    10   10    8 1
    11   11    8 1
    12   12   11 1
    13   13   12 2
    14   14   12 2
    15   15   11 1
    16   16   15 2
    17   17   15 2
    18   18   11 1
    19   19   18 2
    20   20   18 2
    21   21    5 1
    22   22   21 1
    23   23   21 1
@<TRIPOS>SUBSTRUCTURE
     1 RES1 1

@<TRIPOS>CRYSIN
   8.8068    9.2631   11.7896  90.0000 101.6180  90.0000  14 1

