# MOL2 file generated by ConQuest
# Please check atom types

@<TRIPOS>MOLECULE
REBPAS
    26    25     1
SMALL
NO_CHARGES
****
Generated from CSD

@<TRIPOS>ATOM
      1 C1        -5.2077    9.1853    7.1941 C.2       1 RES1    0.0000
      2 C2        -2.7590    8.9520    7.4033 C.2       1 RES1    0.0000
      3 C3        -1.7498    7.2554    8.7890 C.3       1 RES1    0.0000
      4 H1        -1.8793    7.2624    9.7705 H         1 RES1    0.0000
      5 H2        -0.9483    7.7985    8.5839 H         1 RES1    0.0000
      6 C4        -1.5166    5.8335    8.3285 C.3       1 RES1    0.0000
      7 N1        -6.2179    9.8760    6.5284 N.am      1 RES1    0.0000
      8 H3        -6.9760    9.6770    6.7175 H         1 RES1    0.0000
      9 N2        -3.9273    9.5849    6.9629 N.am      1 RES1    0.0000
     10 H4        -3.8044   10.2076    6.4661 H         1 RES1    0.0000
     11 N3        -2.9015    7.8524    8.1545 N.am      1 RES1    0.0000
     12 H5        -3.6456    7.5699    8.3566 H         1 RES1    0.0000
     13 N4        -6.1148   10.8788    5.6023 N.pl3     1 RES1    0.0000
     14 N5        -1.5954    5.6891    6.8251 N.pl3     1 RES1    0.0000
     15 N6        -0.1401    5.3707    8.7780 N.pl3     1 RES1    0.0000
     16 N7        -2.5097    4.8416    8.9359 N.pl3     1 RES1    0.0000
     17 O1        -5.0137   11.3564    5.3529 O.2       1 RES1    0.0000
     18 O2        -7.1671   11.2487    5.1075 O.2       1 RES1    0.0000
     19 O3        -5.5470    8.2894    7.9363 O.2       1 RES1    0.0000
     20 O4        -1.6979    9.4436    7.0795 O.2       1 RES1    0.0000
     21 O5        -2.4068    4.8994    6.3726 O.2       1 RES1    0.0000
     22 O6        -0.8388    6.4180    6.2137 O.2       1 RES1    0.0000
     23 O7         0.4932    4.6590    8.0258 O.2       1 RES1    0.0000
     24 O8         0.1994    5.7328    9.8791 O.2       1 RES1    0.0000
     25 O9        -2.1083    3.7342    9.1993 O.2       1 RES1    0.0000
     26 O10       -3.6351    5.2732    9.0907 O.2       1 RES1    0.0000
@<TRIPOS>BOND
     1    1    7 1
     2    2    9 1
     3    3    4 1
     4    5    3 1
     5    6    3 1
     6    7    8 1
     7    9    1 1
     8   10    9 1
     9   11    2 1
    10   12   11 1
    11   13    7 1
    12   14    6 1
    13   15    6 1
    14   16    6 1
    15   17   13 2
    16   18   13 2
    17   19    1 2
    18   20    2 2
    19   21   14 2
    20   22   14 2
    21   23   15 2
    22   24   15 2
    23   25   16 2
    24   26   16 2
    25    3   11 1
@<TRIPOS>SUBSTRUCTURE
     1 RES1 1

@<TRIPOS>CRYSIN
   7.1401    7.8040   10.6428  90.0000 109.1130  90.0000   4 1

