# MOL2 file generated by ConQuest
# Please check atom types

@<TRIPOS>MOLECULE
REBPEU
    74    74     2
SMALL
NO_CHARGES
****
Generated from CSD

@<TRIPOS>ATOM
      1 O1         5.4456    4.4146    7.3943 O.3       1 RES1    0.0000
      2 O2         9.4791    5.3993    3.3263 O.2       1 RES1    0.0000
      3 O3         8.9509    6.8233    4.8505 O.2       1 RES1    0.0000
      4 N1         6.2462    2.7096    5.9617 N.3       1 RES1    0.0000
      5 N2         4.4481    1.0713    3.5223 N.1       1 RES1    0.0000
      6 N3         4.0102    4.7495    2.2404 N.1       1 RES1    0.0000
      7 N4         6.1946    5.3331    4.8476 N.3       1 RES1    0.0000
      8 N5         8.9910    5.6937    4.4012 N.pl3     1 RES1    0.0000
      9 C1         4.9626    1.9356    4.0632 C.1       1 RES1    0.0000
     10 C2         5.5998    3.0096    4.7649 C.2       1 RES1    0.0000
     11 C3         5.4972    4.2765    4.2891 C.2       1 RES1    0.0000
     12 C4         4.6777    4.5428    3.1451 C.1       1 RES1    0.0000
     13 C5         7.1476    4.9967    5.8877 C.3       1 RES1    0.0000
     14 C6         6.5838    3.8618    6.7675 C.3       1 RES1    0.0000
     15 C7         4.8866    3.5583    8.3900 C.3       1 RES1    0.0000
     16 C8         8.4889    4.5751    5.2788 C.3       1 RES1    0.0000
     17 C9         9.5854    4.2918    6.3056 C.3       1 RES1    0.0000
     18 C10       10.9642    4.0961    5.7172 C.3       1 RES1    0.0000
     19 O4        -0.3365    6.7542    0.7465 O.3       2 RES2    0.0000
     20 O5         3.6442    8.5220   -1.8775 O.2       2 RES2    0.0000
     21 O6         3.9441   10.2204   -0.5806 O.2       2 RES2    0.0000
     22 N6        -0.0398    8.9756    1.5509 N.3       2 RES2    0.0000
     23 N7         1.0924   10.1677    4.6059 N.1       2 RES2    0.0000
     24 N8         3.9151    7.5551    3.8453 N.1       2 RES2    0.0000
     25 N9         2.3192    7.5622    0.8041 N.3       2 RES2    0.0000
     26 N10        3.2317    9.3715   -1.1007 N.pl3     2 RES2    0.0000
     27 C11        1.0595    9.5841    3.6236 C.1       2 RES2    0.0000
     28 C12        1.0660    8.8695    2.3789 C.2       2 RES2    0.0000
     29 C13        2.1387    8.1032    2.0675 C.2       2 RES2    0.0000
     30 C14        3.1292    7.8308    3.0652 C.1       2 RES2    0.0000
     31 C15        1.3812    8.0154   -0.2055 C.3       2 RES2    0.0000
     32 C16       -0.0363    8.0887    0.4029 C.3       2 RES2    0.0000
     33 C17       -1.6599    6.5636    1.2434 C.3       2 RES2    0.0000
     34 C18        1.7742    9.3948   -0.7571 C.3       2 RES2    0.0000
     35 C19        0.9990    9.8109   -1.9981 C.3       2 RES2    0.0000
     36 C20        1.4379   11.1413   -2.5811 C.3       2 RES2    0.0000
     37 C21        6.8931    1.4277    6.0816 C.3       1 RES1    0.0000
     38 H1         6.3385    0.7757    5.6269 H         1 RES1    0.0000
     39 H2         7.7318    1.4763    5.5968 H         1 RES1    0.0000
     40 C22        7.1765    0.9216    7.3811 C.3       1 RES1    0.0000
     41 H3         7.5957    0.0608    7.3045 H         1 RES1    0.0000
     42 H4         6.3596    0.8361    7.8769 H         1 RES1    0.0000
     43 H5         7.7670    1.5245    7.8385 H         1 RES1    0.0000
     44 C23       -0.7893   10.2469    1.4995 C.3       2 RES2    0.0000
     45 H6        -0.4689   10.7705    0.7491 H         2 RES2    0.0000
     46 H7        -0.6089   10.7496    2.3088 H         2 RES2    0.0000
     47 C24       -2.2595   10.0639    1.3653 C.3       2 RES2    0.0000
     48 H8        -2.6872   10.9231    1.3407 H         2 RES2    0.0000
     49 H9        -2.5892    9.5638    2.1157 H         2 RES2    0.0000
     50 H10       -2.4496    9.5869    0.5546 H         2 RES2    0.0000
     51 H11        5.7654    6.0731    4.9874 H         1 RES1    0.0000
     52 H12        2.5209    6.7152    0.7463 H         2 RES2    0.0000
     53 H13        7.2666    5.7719    6.4143 H         1 RES1    0.0000
     54 H14        1.4302    7.3186   -0.8559 H         2 RES2    0.0000
     55 H15        7.2694    3.6033    7.4345 H         1 RES1    0.0000
     56 H16       -0.6997    8.4296   -0.2602 H         2 RES2    0.0000
     57 H17        5.6062    3.2462    8.9998 H         1 RES1    0.0000
     58 H18       -2.3066    6.8884    0.6080 H         2 RES2    0.0000
     59 H19        4.5249    2.7497    8.0056 H         1 RES1    0.0000
     60 H20       -1.7450    7.0407    2.0486 H         2 RES2    0.0000
     61 H21        4.1687    4.0552    8.7889 H         1 RES1    0.0000
     62 H22       -1.8087    5.6379    1.3037 H         2 RES2    0.0000
     63 H23        8.4162    3.8189    4.6601 H         1 RES1    0.0000
     64 H24        1.6776   10.0550   -0.0685 H         2 RES2    0.0000
     65 H25        9.5433    5.0479    6.8813 H         1 RES1    0.0000
     66 H26        1.1171    9.0784   -2.6279 H         2 RES2    0.0000
     67 H27        9.3372    3.4924    6.7786 H         1 RES1    0.0000
     68 H28       -0.0241    9.9007   -1.7118 H         2 RES2    0.0000
     69 H29       11.2503    4.9275    5.3311 H         1 RES1    0.0000
     70 H30        2.3605   11.0730   -2.8005 H         2 RES2    0.0000
     71 H31       11.5316    3.8645    6.4047 H         1 RES1    0.0000
     72 H32        0.8757   11.4699   -3.2852 H         2 RES2    0.0000
     73 H33       10.9637    3.3128    5.1435 H         1 RES1    0.0000
     74 H34        1.3854   11.9527   -1.9049 H         2 RES2    0.0000
@<TRIPOS>BOND
     1    1   14 1
     2    2    8 2
     3    3    8 2
     4    4   10 1
     5    5    9 3
     6    6   12 3
     7    7   11 1
     8    8   16 1
     9    9   10 1
    10   10   11 2
    11   11   12 1
    12   13    7 1
    13   14    4 1
    14   15    1 1
    15   16   13 1
    16   17   16 1
    17   18   17 1
    18   19   32 1
    19   20   26 2
    20   21   26 2
    21   22   28 1
    22   23   27 3
    23   24   30 3
    24   25   29 1
    25   26   34 1
    26   27   28 1
    27   28   29 2
    28   29   30 1
    29   31   25 1
    30   32   22 1
    31   33   19 1
    32   34   31 1
    33   35   34 1
    34   36   35 1
    35   37    4 1
    36   38   37 1
    37   39   37 1
    38   40   37 1
    39   41   40 1
    40   42   40 1
    41   43   40 1
    42   44   22 1
    43   45   44 1
    44   46   44 1
    45   47   44 1
    46   48   47 1
    47   49   47 1
    48   50   47 1
    49   51    7 1
    50   52   25 1
    51   53   13 1
    52   54   31 1
    53   55   14 1
    54   56   32 1
    55   57   15 1
    56   58   33 1
    57   59   15 1
    58   60   33 1
    59   61   15 1
    60   62   33 1
    61   63   16 1
    62   64   34 1
    63   65   17 1
    64   66   35 1
    65   67   17 1
    66   68   35 1
    67   69   18 1
    68   70   36 1
    69   71   18 1
    70   72   36 1
    71   73   18 1
    72   74   36 1
    73   13   14 1
    74   31   32 1
@<TRIPOS>SUBSTRUCTURE
     1 RES1 1
     2 RES2 19

@<TRIPOS>CRYSIN
   8.7900   11.9620   13.7240  86.2700  88.6600  78.6200   2 1

