# MOL2 file generated by ConQuest
# Please check atom types

@<TRIPOS>MOLECULE
REBQAR
    48    50     1
SMALL
NO_CHARGES
****
Generated from CSD

@<TRIPOS>ATOM
      1 C1         1.0423   -1.0344    3.7167 C.2       1 RES1    0.0000
      2 H1         0.2105   -1.4695    3.5707 H         1 RES1    0.0000
      3 C2         1.3597    0.1395    2.8640 C.3       1 RES1    0.0000
      4 C3         1.6843   -0.3200    1.4297 C.2       1 RES1    0.0000
      5 C4         1.9860    1.9992    1.2745 C.3       1 RES1    0.0000
      6 H2         2.2426    2.7119    0.6214 H         1 RES1    0.0000
      7 C5         2.9963    1.9568    2.4033 C.3       1 RES1    0.0000
      8 H3         3.0952    2.8590    2.7980 H         1 RES1    0.0000
      9 H4         3.8782    1.6737    2.0531 H         1 RES1    0.0000
     10 C6         2.5216    0.9650    3.4842 C.3       1 RES1    0.0000
     11 C7         3.6130   -0.0490    3.8903 C.3       1 RES1    0.0000
     12 H5         4.3721    0.4698    4.2855 H         1 RES1    0.0000
     13 C8         4.1770   -0.9144    2.8066 C.2       1 RES1    0.0000
     14 H6         3.6241   -1.6280    2.5103 H         1 RES1    0.0000
     15 C9         5.3635   -0.8023    2.2090 C.2       1 RES1    0.0000
     16 C10        6.3958    0.2375    2.5128 C.3       1 RES1    0.0000
     17 H7         6.1132    0.7597    3.2916 H         1 RES1    0.0000
     18 H8         6.4983    0.8326    1.7408 H         1 RES1    0.0000
     19 H9         7.2523   -0.1985    2.7046 H         1 RES1    0.0000
     20 C11        5.7532   -1.7614    1.1224 C.3       1 RES1    0.0000
     21 H10        6.5645   -2.2435    1.3877 H         1 RES1    0.0000
     22 H11        5.9236   -1.2653    0.2941 H         1 RES1    0.0000
     23 H12        5.0258   -2.4020    0.9756 H         1 RES1    0.0000
     24 C12        0.1165    1.0389    2.6214 C.3       1 RES1    0.0000
     25 H13       -0.5910    0.5241    2.1583 H         1 RES1    0.0000
     26 H14       -0.2449    1.3624    3.4848 H         1 RES1    0.0000
     27 C13        0.5614    2.2345    1.7501 C.3       1 RES1    0.0000
     28 H15       -0.0422    2.3263    0.9713 H         1 RES1    0.0000
     29 H16        0.5170    3.0704    2.2785 H         1 RES1    0.0000
     30 C14        2.0231    1.7133    4.7446 C.3       1 RES1    0.0000
     31 H17        1.3421    2.3749    4.4636 H         1 RES1    0.0000
     32 H18        1.5733    1.0596    5.3362 H         1 RES1    0.0000
     33 C15        3.0912    2.4416    5.5596 C.3       1 RES1    0.0000
     34 H19        3.6967    1.7765    5.9737 H         1 RES1    0.0000
     35 H20        3.6315    3.0118    4.9563 H         1 RES1    0.0000
     36 C16        2.4773    3.3013    6.6418 C.3       1 RES1    0.0000
     37 H21        3.1839    3.8201    7.1028 H         1 RES1    0.0000
     38 H22        1.8349    3.9386    6.2420 H         1 RES1    0.0000
     39 C17        1.1824    3.2166    8.6063 C.3       1 RES1    0.0000
     40 H23        1.8510    3.7787    9.0507 H         1 RES1    0.0000
     41 H24        0.7812    2.6077    9.2611 H         1 RES1    0.0000
     42 H25        0.4851    3.7844    8.2179 H         1 RES1    0.0000
     43 N1         1.8088   -1.5098    4.6416 N.pl3     1 RES1    0.0000
     44 O1         3.0708   -0.9071    4.9471 O.3       1 RES1    0.0000
     45 O2         1.5802   -2.4737    5.4135 O.2       1 RES1    0.0000
     46 O3         2.0000    0.6913    0.6050 O.3       1 RES1    0.0000
     47 O4         1.5856   -1.4478    1.0076 O.2       1 RES1    0.0000
     48 O5         1.8079    2.4593    7.5742 O.3       1 RES1    0.0000
@<TRIPOS>BOND
     1    1    2 1
     2    3    1 1
     3    4    3 1
     4    5    6 1
     5    7    5 1
     6    8    7 1
     7    9    7 1
     8   10    3 1
     9   11   10 1
    10   12   11 1
    11   13   11 1
    12   14   13 1
    13   15   13 2
    14   16   15 1
    15   17   16 1
    16   18   16 1
    17   19   16 1
    18   20   15 1
    19   21   20 1
    20   22   20 1
    21   23   20 1
    22   24    3 1
    23   25   24 1
    24   26   24 1
    25   27    5 1
    26   28   27 1
    27   29   27 1
    28   30   10 1
    29   31   30 1
    30   32   30 1
    31   33   30 1
    32   34   33 1
    33   35   33 1
    34   36   33 1
    35   37   36 1
    36   38   36 1
    37   39   40 1
    38   41   39 1
    39   42   39 1
    40   43    1 2
    41   44   11 1
    42   45   43 2
    43   46    4 1
    44   47    4 2
    45   48   36 1
    46    5   46 1
    47    7   10 1
    48   24   27 1
    49   39   48 1
    50   43   44 1
@<TRIPOS>SUBSTRUCTURE
     1 RES1 1

@<TRIPOS>CRYSIN
  10.5451   14.2808   10.7325  90.0000  90.1250  90.0000 231 1

