# MOL2 file generated by ConQuest
# Please check atom types

@<TRIPOS>MOLECULE
RECNOF
    13    14     1
SMALL
NO_CHARGES
****
Generated from CSD

@<TRIPOS>ATOM
      1 O1         5.2683    6.6783    7.0135 O.3       1 RES1    0.0000
      2 O2         4.2550    3.7024    9.9915 O.3       1 RES1    0.0000
      3 N1         6.2172    5.7586    6.7231 N.pl3     1 RES1    0.0000
      4 N2         7.3331    3.9416    6.6266 N.2       1 RES1    0.0000
      5 N3         5.7910    2.6824    8.7739 N.2       1 RES1    0.0000
      6 N4         4.7398    4.6672    9.0916 N.2       1 RES1    0.0000
      7 N5         7.7461    4.7715    5.6412 N.2       1 RES1    0.0000
      8 N6         7.0609    5.8878    5.6839 N.2       1 RES1    0.0000
      9 C1         6.3827    4.5719    7.3009 C.2       1 RES1    0.0000
     10 C2         5.6298    4.0019    8.4138 C.2       1 RES1    0.0000
     11 C3         4.9290    2.5814    9.7266 C.2       1 RES1    0.0000
     12 H1         5.6895    7.6169    6.8530 H         1 RES1    0.0000
     13 H2         4.7193    1.8505   10.2762 H         1 RES1    0.0000
@<TRIPOS>BOND
     1    1    3 1
     2    2    6 1
     3    3    8 1
     4    4    7 1
     5    5   10 1
     6    6   10 2
     7    7    8 2
     8    9    3 1
     9   10    9 1
    10   11    2 1
    11   12    1 1
    12   13   11 1
    13    4    9 2
    14    5   11 2
@<TRIPOS>SUBSTRUCTURE
     1 RES1 1

@<TRIPOS>CRYSIN
   9.0167   10.2240   13.1460  90.0000  90.0000  90.0000  61 1

