# MOL2 file generated by ConQuest
# Please check atom types

@<TRIPOS>MOLECULE
REDLUK
    43    46     1
SMALL
NO_CHARGES
****
Generated from CSD

@<TRIPOS>ATOM
      1 C1         2.0166    1.9531    2.2435 C.ar      1 RES1    0.0000
      2 O1         4.1055    7.2889    0.4963 O.2       1 RES1    0.0000
      3 C2         1.7326    1.8823    3.6089 C.ar      1 RES1    0.0000
      4 N1         4.1918    7.5070    1.6752 N.pl3     1 RES1    0.0000
      5 C3         2.4696    0.9983    4.3867 C.ar      1 RES1    0.0000
      6 H1         2.3033    0.9469    5.3201 H         1 RES1    0.0000
      7 C4         1.3283    2.9634    1.3564 C.3       1 RES1    0.0000
      8 H2         0.6350    2.5075    0.8177 H         1 RES1    0.0000
      9 H3         1.9903    3.3551    0.7328 H         1 RES1    0.0000
     10 C5         2.0096    4.8961    4.1823 C.ar      1 RES1    0.0000
     11 C6         2.9764    1.0955    1.6958 C.ar      1 RES1    0.0000
     12 H4         3.1308    1.1343    0.7598 H         1 RES1    0.0000
     13 C7         3.4392    0.1970    3.8249 C.ar      1 RES1    0.0000
     14 N2         4.2009   -0.6529    4.7531 N.pl3     1 RES1    0.0000
     15 C8         1.7280    4.9655    2.8208 C.ar      1 RES1    0.0000
     16 O2         4.1080   -0.4383    5.9257 O.2       1 RES1    0.0000
     17 C9        -0.2123    3.4254    3.2142 C.3       1 RES1    0.0000
     18 H5        -0.7885    2.7426    2.7861 H         1 RES1    0.0000
     19 H6        -0.7951    4.1041    3.6385 H         1 RES1    0.0000
     20 C10        2.4650    5.8528    2.0429 C.ar      1 RES1    0.0000
     21 H7         2.3018    5.9039    1.1083 H         1 RES1    0.0000
     22 C11        3.4311    6.6595    2.6099 C.ar      1 RES1    0.0000
     23 C12        3.7183    0.1896    2.4479 C.ar      1 RES1    0.0000
     24 C13        1.3216    3.8897    5.0720 C.3       1 RES1    0.0000
     25 H8         0.6256    4.3471    5.6081 H         1 RES1    0.0000
     26 H9         1.9821    3.5009    5.6994 H         1 RES1    0.0000
     27 C14        2.9618    5.7564    4.7326 C.ar      1 RES1    0.0000
     28 H10        3.1147    5.7201    5.6698 H         1 RES1    0.0000
     29 O3         4.8529   -1.5667    4.3289 O.2       1 RES1    0.0000
     30 C15        3.6984    6.6660    3.9766 C.ar      1 RES1    0.0000
     31 C16        0.6793    4.0839    2.1702 C.3       1 RES1    0.0000
     32 H11        0.1140    4.6425    1.5621 H         1 RES1    0.0000
     33 C17        0.6802    2.7741    4.2607 C.3       1 RES1    0.0000
     34 H12        0.1144    2.2163    4.8676 H         1 RES1    0.0000
     35 C18        4.7474   -0.6549    1.7652 C.3       1 RES1    0.0000
     36 H13        4.5389   -1.6017    1.9054 H         1 RES1    0.0000
     37 H14        5.6324   -0.4561    2.1381 H         1 RES1    0.0000
     38 H15        4.7463   -0.4587    0.8048 H         1 RES1    0.0000
     39 O4         4.8335    8.4324    2.0918 O.2       1 RES1    0.0000
     40 C19        4.7263    7.5060    4.6696 C.3       1 RES1    0.0000
     41 H16        5.6105    7.3190    4.2903 H         1 RES1    0.0000
     42 H17        4.7296    7.2947    5.6261 H         1 RES1    0.0000
     43 H18        4.5113    8.4536    4.5436 H         1 RES1    0.0000
@<TRIPOS>BOND
     1    1    3 ar
     2    2    4 2
     3    3    5 ar
     4    4   22 1
     5    5    6 1
     6    7    1 1
     7    8    7 1
     8    9    7 1
     9   10   15 ar
    10   11    1 ar
    11   12   11 1
    12   13    5 ar
    13   14   13 1
    14   15   20 ar
    15   16   14 2
    16   17   18 1
    17   19   17 1
    18   20   21 1
    19   22   20 ar
    20   23   11 ar
    21   24   10 1
    22   25   24 1
    23   26   24 1
    24   27   10 ar
    25   28   27 1
    26   29   14 2
    27   30   22 ar
    28   31    7 1
    29   32   31 1
    30   33    3 1
    31   34   33 1
    32   35   23 1
    33   36   35 1
    34   37   35 1
    35   38   35 1
    36   39    4 2
    37   40   30 1
    38   41   40 1
    39   42   40 1
    40   43   40 1
    41   13   23 ar
    42   15   31 1
    43   17   31 1
    44   17   33 1
    45   24   33 1
    46   27   30 ar
@<TRIPOS>SUBSTRUCTURE
     1 RES1 1

@<TRIPOS>CRYSIN
   5.5910   11.3290   13.4320  75.6800  78.0850  75.8280   2 1

