# MOL2 file generated by ConQuest
# Please check atom types

@<TRIPOS>MOLECULE
REFGEO
    41    42     1
SMALL
NO_CHARGES
****
Generated from CSD

@<TRIPOS>ATOM
      1 O1        25.1789    2.7847    3.3519 O.2       1 RES1    0.0000
      2 O2        25.8416    1.0402    4.3706 O.2       1 RES1    0.0000
      3 N1        10.9728    1.1797    5.9487 N.pl3     1 RES1    0.0000
      4 N2        17.3705    1.0095    5.4430 N.2       1 RES1    0.0000
      5 N3        18.6741    1.3736    5.0677 N.2       1 RES1    0.0000
      6 N4        24.9695    1.7979    4.0087 N.pl3     1 RES1    0.0000
      7 C1        10.4490    0.0783    6.7179 C.3       1 RES1    0.0000
      8 C2        10.0348    2.1472    5.4021 C.3       1 RES1    0.0000
      9 C3        12.3016    1.2659    5.6351 C.ar      1 RES1    0.0000
     10 C4        12.7873    2.2799    4.8003 C.ar      1 RES1    0.0000
     11 C5        14.1466    2.3832    4.5494 C.ar      1 RES1    0.0000
     12 C6        15.0729    1.4984    5.0982 C.ar      1 RES1    0.0000
     13 C7        14.5872    0.4571    5.8891 C.ar      1 RES1    0.0000
     14 C8        13.2316    0.3323    6.1535 C.ar      1 RES1    0.0000
     15 C9        16.4849    1.6980    4.8413 C.2       1 RES1    0.0000
     16 C10       19.5725    0.4866    5.3492 C.2       1 RES1    0.0000
     17 C11       19.2751   -0.8689    5.9375 C.3       1 RES1    0.0000
     18 C12       20.9695    0.8485    5.0252 C.ar      1 RES1    0.0000
     19 C13       21.2482    1.9725    4.2418 C.ar      1 RES1    0.0000
     20 C14       22.5623    2.3004    3.9141 C.ar      1 RES1    0.0000
     21 C15       23.5827    1.4825    4.3796 C.ar      1 RES1    0.0000
     22 C16       23.3304    0.3766    5.1511 C.ar      1 RES1    0.0000
     23 C17       22.0238    0.0567    5.4750 C.ar      1 RES1    0.0000
     24 H1         9.4135    0.3176    6.6278 H         1 RES1    0.0000
     25 H2        10.6184   -0.6806    5.9576 H         1 RES1    0.0000
     26 H3        10.9197   -0.2155    7.5959 H         1 RES1    0.0000
     27 H4        10.0913    2.0985    4.4086 H         1 RES1    0.0000
     28 H5         9.0370    1.8943    5.5927 H         1 RES1    0.0000
     29 H6        10.5431    2.9832    5.6597 H         1 RES1    0.0000
     30 H7        12.0869    2.8811    4.2224 H         1 RES1    0.0000
     31 H8        14.4591    3.1760    3.9469 H         1 RES1    0.0000
     32 H9        15.2499   -0.3289    6.2555 H         1 RES1    0.0000
     33 H10       12.7647   -0.4877    6.8215 H         1 RES1    0.0000
     34 H11       16.7560    2.4614    4.1256 H         1 RES1    0.0000
     35 H12       19.6930   -1.6107    5.3618 H         1 RES1    0.0000
     36 H13       19.9190   -0.8961    6.8587 H         1 RES1    0.0000
     37 H14       18.1869   -1.0776    6.0544 H         1 RES1    0.0000
     38 H15       20.3708    2.6429    3.8650 H         1 RES1    0.0000
     39 H16       22.8183    3.1534    3.2246 H         1 RES1    0.0000
     40 H17       24.0233   -0.2949    5.4363 H         1 RES1    0.0000
     41 H18       21.7264   -0.7827    6.0395 H         1 RES1    0.0000
@<TRIPOS>BOND
     1    1    6 2
     2    2    6 2
     3    3    7 1
     4    4    5 1
     5    5   16 2
     6    6   21 1
     7    7   24 1
     8    8    3 1
     9    9    3 1
    10   10    9 ar
    11   11   10 ar
    12   12   11 ar
    13   13   12 ar
    14   14    9 ar
    15   15    4 2
    16   16   17 1
    17   17   35 1
    18   18   16 1
    19   19   18 ar
    20   20   19 ar
    21   21   20 ar
    22   22   21 ar
    23   23   18 ar
    24   25    7 1
    25   26    7 1
    26   27    8 1
    27   28    8 1
    28   29    8 1
    29   30   10 1
    30   31   11 1
    31   32   13 1
    32   33   14 1
    33   34   15 1
    34   36   17 1
    35   37   17 1
    36   38   19 1
    37   39   20 1
    38   40   22 1
    39   41   23 1
    40   12   15 1
    41   13   14 ar
    42   22   23 ar
@<TRIPOS>SUBSTRUCTURE
     1 RES1 1

@<TRIPOS>CRYSIN
  37.6540   11.3430    7.4470  90.0000  90.0000  90.0000  61 1

