# MOL2 file generated by ConQuest
# Please check atom types

@<TRIPOS>MOLECULE
REFRID
    44    41     2
SMALL
NO_CHARGES
****
Generated from CSD

@<TRIPOS>ATOM
      1 O1         9.8558    3.6048    2.4535 O.3       1 RES1    0.0000
      2 N1        10.2843    2.6649    3.3445 N.2       1 RES1    0.0000
      3 N2        10.4144    0.3156    3.3445 N.2       1 RES1    0.0000
      4 N3         6.1245    1.0836    4.8763 N.2       1 RES1    0.0000
      5 C1         9.4560    1.4308    3.3445 C.3       1 RES1    0.0000
      6 C2        11.7076    2.2758    3.3445 C.3       1 RES1    0.0000
      7 C3        11.6023    0.7805    3.3445 C.2       1 RES1    0.0000
      8 C4        12.2614    2.6943    1.8582 C.3       1 RES1    0.0000
      9 C5        12.7980   -0.1097    3.3445 C.2       1 RES1    0.0000
     10 C6         8.5014    1.3189    4.5244 C.2       1 RES1    0.0000
     11 C7         8.7520    1.2917    5.8689 C.2       1 RES1    0.0000
     12 C8         7.6663    1.1594    6.7117 C.2       1 RES1    0.0000
     13 C9         6.4085    1.0712    6.1860 C.2       1 RES1    0.0000
     14 C10        7.1862    1.2035    4.0830 C.2       1 RES1    0.0000
     15 H1        12.3809    3.6308    1.7619 H         1 RES1    0.0000
     16 H2        13.0849    2.2509    1.6896 H         1 RES1    0.0000
     17 H3        11.6081    2.3934    1.2375 H         1 RES1    0.0000
     18 H4        12.7769   -0.6572    4.1191 H         1 RES1    0.0000
     19 H5         9.6291    1.3596    6.2114 H         1 RES1    0.0000
     20 H6         7.7677    1.1820    7.7004 H         1 RES1    0.0000
     21 H7         5.6921    0.9965    6.7960 H         1 RES1    0.0000
     22 H8         9.7726    4.3955    3.3445 H         1 RES1    0.0000
     23 C11       12.5837    2.8492    2.3906 Du        2 SUP2    0.0000
     24 H9        12.6115    3.7926    2.4977 Du        2 SUP2    0.0000
     25 H10       13.4637    2.4975    2.4495 Du        2 SUP2    0.0000
     26 H11       12.2145    2.6377    1.5398 Du        2 SUP2    0.0000
     27 H12       13.5938    0.4083    3.3445 Du        2 SUP2    0.0000
     28 H13       12.4833   -1.1797    3.3445 Du        2 SUP2    0.0000
     29 H14       13.3173    0.1436    2.4816 Du        2 SUP2    0.0000
     30 O1E        9.8558    3.6048    4.2355 O.3       1 RES1    0.0000
     31 C4E       12.2614    2.6943    4.8308 C.3       1 RES1    0.0000
     32 H1E       12.3809    3.6308    4.9271 H         1 RES1    0.0000
     33 H2E       13.0849    2.2509    4.9994 H         1 RES1    0.0000
     34 H3E       11.6081    2.3934    5.4515 H         1 RES1    0.0000
     35 H4E       12.7769   -0.6572    2.5699 H         1 RES1    0.0000
     36 C10E       7.1862    1.2035    2.6060 C.2       1 RES1    0.0000
     37 N3E        6.1245    1.0836    1.8127 N.2       1 RES1    0.0000
     38 C9E        6.4085    1.0712    0.5030 C.2       1 RES1    0.0000
     39 C8E        7.6663    1.1594   -0.0227 C.2       1 RES1    0.0000
     40 C7E        8.7520    1.2917    0.8201 C.2       1 RES1    0.0000
     41 C6E        8.5014    1.3189    2.1646 C.2       1 RES1    0.0000
     42 H5E        9.6291    1.3596    0.4776 H         1 RES1    0.0000
     43 H6E        7.7677    1.1820   -1.0114 H         1 RES1    0.0000
     44 H7E        5.6921    0.9965   -0.1070 H         1 RES1    0.0000
@<TRIPOS>BOND
     1    1    2 1
     2    2    5 1
     3    3    5 1
     4    4   13 1
     5    5   10 1
     6    6    2 1
     7    7    3 1
     8    8    6 1
     9    9    7 1
    10   10   11 1
    11   11   12 1
    12   12   13 1
    13   13   21 1
    14   14    4 1
    15   15    8 1
    16   16    8 1
    17   17    8 1
    18   18    9 1
    19   19   11 1
    20   20   12 1
    21   22    1 1
    22   30    2 1
    23   31    6 1
    24   32   31 1
    25   33   31 1
    26   34   31 1
    27   35    9 1
    28   36   14 1
    29   37   36 1
    30   38   37 1
    31   39   38 1
    32   40   39 1
    33   41    5 1
    34   42   40 1
    35   43   39 1
    36   44   38 1
    37    6    7 1
    38   10   14 1
    39   22   30 1
    40   36   41 1
    41   40   41 1
@<TRIPOS>SUBSTRUCTURE
     1 RES1 1
     2 SUP2 23

@<TRIPOS>CRYSIN
   9.5650   11.3110   13.3780  90.0000  90.0000  90.0000  57 1

