# MOL2 file generated by ConQuest
# Please check atom types

@<TRIPOS>MOLECULE
REFXUV
    37    39     1
SMALL
NO_CHARGES
****
Generated from CSD

@<TRIPOS>ATOM
      1 O1        13.5397    7.4858    6.9411 O.2       1 RES1    0.0000
      2 O2        11.3634    4.5241    4.1525 O.2       1 RES1    0.0000
      3 N1        12.6847    6.9972    6.1194 N.3       1 RES1    0.0000
      4 N2        11.6432    5.6099    4.8168 N.pl3     1 RES1    0.0000
      5 N3        13.7107    3.5187    5.2627 N.3       1 RES1    0.0000
      6 N4        14.2081    4.5844    7.1947 N.2       1 RES1    0.0000
      7 C1        12.7003    5.7104    5.6561 C.2       1 RES1    0.0000
      8 C2        11.5033    7.8216    5.6211 C.3       1 RES1    0.0000
      9 C3        10.7571    6.8163    4.6945 C.3       1 RES1    0.0000
     10 C4        12.1562    9.0079    4.8868 C.3       1 RES1    0.0000
     11 C5        10.7727    8.3042    6.8188 C.3       1 RES1    0.0000
     12 C6        10.7105    7.1983    3.1996 C.3       1 RES1    0.0000
     13 C7         9.3892    6.3940    5.1490 C.3       1 RES1    0.0000
     14 C8        13.5397    4.6648    6.0145 C.2       1 RES1    0.0000
     15 C9        14.4879    2.6340    5.9533 C.ar      1 RES1    0.0000
     16 C10       14.7678    3.3378    7.1422 C.ar      1 RES1    0.0000
     17 C11       15.5450    2.6943    8.1213 C.ar      1 RES1    0.0000
     18 C12       15.9958    1.4477    7.8591 C.ar      1 RES1    0.0000
     19 C13       15.7005    0.7440    6.6527 C.ar      1 RES1    0.0000
     20 C14       14.9232    1.3472    5.6998 C.ar      1 RES1    0.0000
     21 H1        13.3345    3.3601    4.3857 H         1 RES1    0.0000
     22 H2        11.4209    9.5442    4.5744 H         1 RES1    0.0000
     23 H3        12.6723    8.6876    4.1513 H         1 RES1    0.0000
     24 H4        12.7189    9.5301    5.4661 H         1 RES1    0.0000
     25 H5        10.0396    8.8382    6.4985 H         1 RES1    0.0000
     26 H6        11.3609    8.8382    7.3552 H         1 RES1    0.0000
     27 H7        10.4453    7.5715    7.3394 H         1 RES1    0.0000
     28 H8        10.1445    7.9720    3.1241 H         1 RES1    0.0000
     29 H9        10.3730    6.4741    2.6835 H         1 RES1    0.0000
     30 H10       11.6026    7.4130    2.8968 H         1 RES1    0.0000
     31 H11        8.8205    7.1539    5.0757 H         1 RES1    0.0000
     32 H12        9.4532    6.0983    6.0653 H         1 RES1    0.0000
     33 H13        9.0662    5.6619    4.6150 H         1 RES1    0.0000
     34 H14       15.7567    3.1337    8.9460 H         1 RES1    0.0000
     35 H15       16.5410    1.0039    8.5082 H         1 RES1    0.0000
     36 H16       16.0183   -0.1532    6.5221 H         1 RES1    0.0000
     37 H17       14.7575    0.9199    4.8548 H         1 RES1    0.0000
@<TRIPOS>BOND
     1    1    3 1
     2    2    4 1
     3    3    7 1
     4    4    7 2
     5    5   14 1
     6    6   14 2
     7    7   14 1
     8    8    3 1
     9    9    4 1
    10   10    8 1
    11   11    8 1
    12   12    9 1
    13   13    9 1
    14   15    5 1
    15   16    6 1
    16   17   16 ar
    17   18   17 ar
    18   19   18 ar
    19   20   15 ar
    20   21    5 1
    21   22   10 1
    22   23   10 1
    23   24   10 1
    24   25   11 1
    25   26   11 1
    26   27   11 1
    27   28   12 1
    28   29   12 1
    29   30   12 1
    30   31   13 1
    31   32   13 1
    32   33   13 1
    33   34   17 1
    34   35   18 1
    35   36   19 1
    36   37   20 1
    37    8    9 1
    38   15   16 ar
    39   19   20 ar
@<TRIPOS>SUBSTRUCTURE
     1 RES1 1

@<TRIPOS>CRYSIN
  15.5450   20.1070    8.7420  90.0000  90.0000  90.0000  61 1

