# MOL2 file generated by ConQuest
# Please check atom types

@<TRIPOS>MOLECULE
REGCUB
    27    29     1
SMALL
NO_CHARGES
****
Generated from CSD

@<TRIPOS>ATOM
      1 O1        -2.3369    1.5722   -2.1129 O.2       1 RES1    0.0000
      2 O2        -0.5589    1.2280   -0.9561 O.2       1 RES1    0.0000
      3 N1        -1.1498    1.2770   -2.0223 N.pl3     1 RES1    0.0000
      4 N2        -0.6466    0.4082   -8.1322 N.pl3     1 RES1    0.0000
      5 N3        -2.4484    0.7914   -6.9288 N.2       1 RES1    0.0000
      6 N4        -2.7741    0.6924   -8.2534 N.3       1 RES1    0.0000
      7 N5         0.5579    0.1383   -8.7480 N.2       1 RES1    0.0000
      8 C1        -0.4089    0.6419   -5.6043 C.ar      1 RES1    0.0000
      9 C2         0.9227    0.2543   -5.5272 C.ar      1 RES1    0.0000
     10 C3         1.5750    0.2369   -4.3054 C.ar      1 RES1    0.0000
     11 C4         0.9071    0.5813   -3.1474 C.ar      1 RES1    0.0000
     12 C5        -0.4144    0.9565   -3.2477 C.ar      1 RES1    0.0000
     13 C6        -1.0795    1.0016   -4.4401 C.ar      1 RES1    0.0000
     14 C7        -1.1495    0.6240   -6.8627 C.2       1 RES1    0.0000
     15 C8        -1.6780    0.4294   -9.0136 C.2       1 RES1    0.0000
     16 C9        -1.1723    0.1744  -10.2574 C.2       1 RES1    0.0000
     17 C10        0.1921   -0.0017  -10.0419 C.2       1 RES1    0.0000
     18 C11        1.2210   -0.3251  -11.0653 C.3       1 RES1    0.0000
     19 H1         1.4165    0.0344   -6.3535 H         1 RES1    0.0000
     20 H2         2.4967   -0.0830   -4.2601 H         1 RES1    0.0000
     21 H3         1.3055    0.6057   -2.2647 H         1 RES1    0.0000
     22 H4        -3.5993    0.5953   -8.4958 H         1 RES1    0.0000
     23 H5        -1.9915    1.2858   -4.4560 H         1 RES1    0.0000
     24 H6        -1.6054    0.0901  -11.0665 H         1 RES1    0.0000
     25 H7         0.8142   -0.3883  -11.9210 H         1 RES1    0.0000
     26 H8         1.8889    0.3495  -11.0812 H         1 RES1    0.0000
     27 H9         1.6180   -1.1590  -10.8413 H         1 RES1    0.0000
@<TRIPOS>BOND
     1    1    3 2
     2    2    3 2
     3    3   12 1
     4    4    7 1
     5    5    6 1
     6    6   15 1
     7    7   17 2
     8    8    9 ar
     9    9   10 ar
    10   10   11 ar
    11   11   12 ar
    12   12   13 ar
    13   13    8 ar
    14   14    4 1
    15   15    4 1
    16   16   15 2
    17   17   16 1
    18   18   17 1
    19   19    9 1
    20   20   10 1
    21   21   11 1
    22   22    6 1
    23   23   13 1
    24   24   16 1
    25   25   18 1
    26   26   18 1
    27   27   18 1
    28    5   14 2
    29    8   14 1
@<TRIPOS>SUBSTRUCTURE
     1 RES1 1

@<TRIPOS>CRYSIN
   6.3213    6.9531   12.5594  78.0500  82.4900  76.3100   2 1

