# MOL2 file generated by ConQuest
# Please check atom types

@<TRIPOS>MOLECULE
REGKOE
    30    31     1
SMALL
NO_CHARGES
****
Generated from CSD

@<TRIPOS>ATOM
      1 O1         4.7170    3.4046    4.2079 O.3       1 RES1    0.0000
      2 N1         1.7539    2.9548    3.5810 N.2       1 RES1    0.0000
      3 O2         2.3628    2.9717    2.3053 O.3       1 RES1    0.0000
      4 C1         3.9532    2.2433    3.8875 C.3       1 RES1    0.0000
      5 C2         2.5850    2.5460    4.4453 C.2       1 RES1    0.0000
      6 C3         4.5484    1.0022    4.5349 C.3       1 RES1    0.0000
      7 C4         2.8653    1.0789    6.4149 C.3       1 RES1    0.0000
      8 C5         2.3036    2.4119    5.8948 C.3       1 RES1    0.0000
      9 C6         3.5866    2.1676    2.3775 C.3       1 RES1    0.0000
     10 C7         4.3325    0.9924    6.0439 C.3       1 RES1    0.0000
     11 C8         4.5927    2.7968    1.4503 C.3       1 RES1    0.0000
     12 C9         3.1946    0.7697    1.9271 C.3       1 RES1    0.0000
     13 C10        2.6265    0.9438    7.9122 C.3       1 RES1    0.0000
     14 H1         5.5545    3.2541    3.9619 H         1 RES1    0.0000
     15 H2         4.1443    0.1838    4.1576 H         1 RES1    0.0000
     16 H3         5.4912    0.9406    4.3168 H         1 RES1    0.0000
     17 H4         2.4175    0.3784    5.9437 H         1 RES1    0.0000
     18 H5         2.7974    3.1460    6.3434 H         1 RES1    0.0000
     19 H6         1.3930    2.4433    6.0764 H         1 RES1    0.0000
     20 H7         4.8063    1.7406    6.4462 H         1 RES1    0.0000
     21 H8         4.7199    0.2054    6.4163 H         1 RES1    0.0000
     22 H9         4.3112    2.7568    0.5108 H         1 RES1    0.0000
     23 H10        4.7947    3.7082    1.6667 H         1 RES1    0.0000
     24 H11        5.4855    2.2811    1.4975 H         1 RES1    0.0000
     25 H12        2.8665    0.7784    1.0945 H         1 RES1    0.0000
     26 H13        3.9601    0.2054    1.9635 H         1 RES1    0.0000
     27 H14        2.4463    0.4000    2.5871 H         1 RES1    0.0000
     28 H15        1.6577    0.9946    8.1212 H         1 RES1    0.0000
     29 H16        3.1082    1.6865    8.3915 H         1 RES1    0.0000
     30 H17        3.0737    0.0108    8.2422 H         1 RES1    0.0000
@<TRIPOS>BOND
     1    1    4 1
     2    2    3 1
     3    3    9 1
     4    4    5 1
     5    5    2 2
     6    6    4 1
     7    7    8 1
     8    8    5 1
     9    9    4 1
    10   10    6 1
    11   11    9 1
    12   12    9 1
    13   13    7 1
    14   14    1 1
    15   15    6 1
    16   16    6 1
    17   17    7 1
    18   18    8 1
    19   19    8 1
    20   20   10 1
    21   21   10 1
    22   22   11 1
    23   23   11 1
    24   24   11 1
    25   25   12 1
    26   26   12 1
    27   27   12 1
    28   28   13 1
    29   29   13 1
    30   30   13 1
    31    7   10 1
@<TRIPOS>SUBSTRUCTURE
     1 RES1 1

@<TRIPOS>CRYSIN
   5.7560   10.8110   16.5840  90.0000  90.0000  90.0000  19 1

