# MOL2 file generated by ConQuest
# Please check atom types

@<TRIPOS>MOLECULE
REHKOE
    52    52     4
SMALL
NO_CHARGES
****
Generated from CSD

@<TRIPOS>ATOM
      1 C1         1.6524    0.4120    4.8747 C.2       1 RES1    0.0000
      2 H1         2.0765    0.3390    5.6986 H         1 RES1    0.0000
      3 C2         0.3819   -0.0022    4.5520 C.2       1 RES1    0.0000
      4 H2        -0.2311   -0.4098    5.1190 H         1 RES1    0.0000
      5 C3         0.1989    0.3103    3.2096 C.2       1 RES1    0.0000
      6 N1         1.3085    0.8903    2.7099 N.2       1 RES1    0.0000
      7 N2         2.1506    0.9411    3.7500 N.pl3     1 RES1    0.0000
      8 O1         3.3735    1.5138    3.5839 O.3       1 RES1    0.0000
      9 H3         4.0632    0.8674    3.4868 H         1 RES1    0.0000
     10 C4        -0.9942    0.0848    2.3167 C.3       1 RES1    0.0000
     11 H4        -1.7870    0.4054    2.7553 H         1 RES1    0.0000
     12 H5        -1.0852   -0.8534    2.1366 H         1 RES1    0.0000
     13 H6        -0.8696    0.5594    1.4928 H         1 RES1    0.0000
     14 C5         1.7493    4.6402    0.6924 C.2       2 RES2    0.0000
     15 H7         0.8712    4.9224    0.8051 H         2 RES2    0.0000
     16 C6         2.8619    5.4147    0.5968 C.2       2 RES2    0.0000
     17 H8         2.8934    6.3426    0.6454 H         2 RES2    0.0000
     18 C7         3.9326    4.5723    0.4120 C.2       2 RES2    0.0000
     19 N3         3.5080    3.3032    0.3838 N.2       2 RES2    0.0000
     20 N4         2.1919    3.3887    0.5921 N.pl3     2 RES2    0.0000
     21 O2         1.4252    2.2515    0.4590 O.3       2 RES2    0.0000
     22 H9         1.4765    1.7651    1.2735 H         2 RES2    0.0000
     23 C8         5.3817    4.9003    0.2224 C.3       2 RES2    0.0000
     24 H10        5.5590    5.7759    0.5733 H         2 RES2    0.0000
     25 H11        5.5938    4.8812   -0.7127 H         2 RES2    0.0000
     26 H12        5.9184    4.2547    0.6861 H         2 RES2    0.0000
     27 C9         6.2936    1.5956   -1.4740 C.2       3 RES3    0.0000
     28 H13        5.7439    1.6096   -2.2243 H         3 RES3    0.0000
     29 C10        7.6176    1.8698   -1.4489 C.2       3 RES3    0.0000
     30 H14        8.1601    2.1130   -2.1648 H         3 RES3    0.0000
     31 C11        7.9894    1.7091   -0.1222 C.2       3 RES3    0.0000
     32 N5         6.9341    1.3752    0.6140 N.2       3 RES3    0.0000
     33 N6         5.9195    1.3052   -0.2475 N.pl3     3 RES3    0.0000
     34 O3         4.6912    0.9544    0.1848 O.3       3 RES3    0.0000
     35 H15        4.1610    1.7408    0.2365 H         3 RES3    0.0000
     36 C12        9.3329    1.8661    0.4856 C.3       3 RES3    0.0000
     37 H16       10.0026    1.5823   -0.1394 H         3 RES3    0.0000
     38 H17        9.3893    1.3295    1.2798 H         3 RES3    0.0000
     39 H18        9.4774    2.7881    0.7111 H         3 RES3    0.0000
     40 C13        7.2070   -1.2721    3.6121 C.2       4 RES4    0.0000
     41 H19        8.1351   -1.3008    3.5620 H         4 RES4    0.0000
     42 C14        6.3556   -2.3024    3.8925 C.2       4 RES4    0.0000
     43 H20        6.5986   -3.1846    4.0601 H         4 RES4    0.0000
     44 C15        5.0737   -1.8020    3.8831 C.2       4 RES4    0.0000
     45 N7         5.1140   -0.4805    3.6090 N.2       4 RES4    0.0000
     46 N8         6.4239   -0.2277    3.4304 N.pl3     4 RES4    0.0000
     47 O4         6.7973    1.0797    3.2111 O.3       4 RES4    0.0000
     48 H21        6.8897    1.0347    2.2666 H         4 RES4    0.0000
     49 C16        3.7619   -2.4653    4.1525 C.3       4 RES4    0.0000
     50 H22        3.7869   -3.3688    3.8314 H         4 RES4    0.0000
     51 H23        3.0621   -1.9855    3.7030 H         4 RES4    0.0000
     52 H24        3.5923   -2.4660    5.0987 H         4 RES4    0.0000
@<TRIPOS>BOND
     1    1    2 1
     2    3    1 2
     3    4    3 1
     4    5    3 1
     5    6    5 2
     6    7    1 1
     7    8    7 1
     8    9    8 1
     9   10    5 1
    10   11   10 1
    11   12   10 1
    12   13   10 1
    13   14   15 1
    14   16   14 2
    15   17   16 1
    16   18   16 1
    17   19   18 2
    18   20   14 1
    19   21   20 1
    20   22   21 1
    21   23   18 1
    22   24   23 1
    23   25   23 1
    24   26   23 1
    25   27   28 1
    26   29   27 2
    27   30   29 1
    28   31   29 1
    29   32   31 2
    30   33   27 1
    31   34   33 1
    32   35   34 1
    33   36   31 1
    34   37   36 1
    35   38   36 1
    36   39   36 1
    37   40   41 1
    38   42   40 2
    39   43   42 1
    40   44   42 1
    41   45   44 2
    42   46   40 1
    43   47   46 1
    44   48   47 1
    45   49   44 1
    46   50   49 1
    47   51   49 1
    48   52   49 1
    49    6    7 1
    50   19   20 1
    51   32   33 1
    52   45   46 1
@<TRIPOS>SUBSTRUCTURE
     1 RES1 1
     2 RES2 14
     3 RES3 27
     4 RES4 40

@<TRIPOS>CRYSIN
  18.1710    7.3700   15.7430  90.0000  95.7400  90.0000  14 1

