# MOL2 file generated by ConQuest
# Please check atom types

@<TRIPOS>MOLECULE
REHLEV
    65    66     1
SMALL
NO_CHARGES
****
Generated from CSD

@<TRIPOS>ATOM
      1 C1         3.4494    2.8691    3.3450 C.ar      1 RES1    0.0000
      2 C2         3.9925    3.0103    4.6145 C.ar      1 RES1    0.0000
      3 C3         3.7736    1.9757    5.5048 C.ar      1 RES1    0.0000
      4 H1         4.1861    2.0331    6.5011 H         1 RES1    0.0000
      5 C4         3.0688    0.8612    5.1323 C.ar      1 RES1    0.0000
      6 H2         2.9078    0.0664    5.8455 H         1 RES1    0.0000
      7 C5         2.5473    0.7405    3.8694 C.ar      1 RES1    0.0000
      8 H3         2.0096   -0.1517    3.5842 H         1 RES1    0.0000
      9 C6         2.7106    1.7720    2.9568 C.ar      1 RES1    0.0000
     10 H4         2.2749    1.7162    1.9701 H         1 RES1    0.0000
     11 C7         5.8640    5.3841    6.4327 C.ar      1 RES1    0.0000
     12 C8         6.4394    5.3797    7.6828 C.ar      1 RES1    0.0000
     13 H5         6.4002    4.4818    8.2817 H         1 RES1    0.0000
     14 C9         7.0690    6.4933    8.1839 C.ar      1 RES1    0.0000
     15 H6         7.4879    6.4882    9.1793 H         1 RES1    0.0000
     16 C10        7.1536    7.6224    7.4025 C.ar      1 RES1    0.0000
     17 C11        6.5663    7.6495    6.1343 C.ar      1 RES1    0.0000
     18 H7         6.6109    8.5482    5.5370 H         1 RES1    0.0000
     19 C12        5.9236    6.5344    5.6474 C.ar      1 RES1    0.0000
     20 H8         5.4690    6.5517    4.6679 H         1 RES1    0.0000
     21 C13        8.4178    8.8590    9.0345 C.3       1 RES1    0.0000
     22 H9         7.6893    8.7847    9.8285 H         1 RES1    0.0000
     23 H10        9.1439    8.0660    9.1368 H         1 RES1    0.0000
     24 C14        9.1055   10.1938    9.0790 C.3       1 RES1    0.0000
     25 H11        9.8035   10.2481    8.2567 H         1 RES1    0.0000
     26 H12        8.3557   10.9630    8.9664 H         1 RES1    0.0000
     27 C15        9.8720   10.4523   10.3666 C.3       1 RES1    0.0000
     28 H13       10.6403    9.7016   10.4794 H         1 RES1    0.0000
     29 H14        9.1853   10.3923   11.1980 H         1 RES1    0.0000
     30 C16       10.5122   11.8149   10.3615 C.3       1 RES1    0.0000
     31 H15       11.2023   11.8559    9.5316 H         1 RES1    0.0000
     32 H16        9.7354   12.5518   10.2202 H         1 RES1    0.0000
     33 C17       11.2596   12.1681   11.6267 C.3       1 RES1    0.0000
     34 H17       12.0555   11.4514   11.7658 H         1 RES1    0.0000
     35 H18       10.5815   12.1204   12.4659 H         1 RES1    0.0000
     36 C18       11.8697   13.5623   11.5581 C.3       1 RES1    0.0000
     37 H19       12.5811   13.5883   10.7460 H         1 RES1    0.0000
     38 H20       11.0747   14.2668   11.3630 H         1 RES1    0.0000
     39 C19       12.5823   13.9881   12.8345 C.3       1 RES1    0.0000
     40 C20       13.1367   15.3818   12.6718 C.2       1 RES1    0.0000
     41 C21       14.3008   17.1510   13.7480 C.3       1 RES1    0.0000
     42 H21       13.5078   17.8682   13.5960 H         1 RES1    0.0000
     43 H22       15.0160   17.2288   12.9426 H         1 RES1    0.0000
     44 C22       14.9331   17.4002   14.9347 C.3       1 RES1    0.0000
     45 H23       15.3467   18.3975   14.9133 H         1 RES1    0.0000
     46 H24       15.7273   16.6844   15.0880 H         1 RES1    0.0000
     47 H25       14.2191   17.3238   15.7414 H         1 RES1    0.0000
     48 C23       11.5888   14.0281   13.9721 C.2       1 RES1    0.0000
     49 C24       10.9822   13.0795   16.0312 C.3       1 RES1    0.0000
     50 H26       10.2192   12.3516   15.7981 H         1 RES1    0.0000
     51 H27       10.5247   14.0471   16.1754 H         1 RES1    0.0000
     52 C25       11.6076   12.7198   17.1954 C.3       1 RES1    0.0000
     53 H28       10.8809   12.6733   17.9932 H         1 RES1    0.0000
     54 H29       12.3687   13.4447   17.4437 H         1 RES1    0.0000
     55 H30       12.0631   11.7492   17.0663 H         1 RES1    0.0000
     56 N1         3.6206    3.9467    2.3708 N.pl3     1 RES1    0.0000
     57 N2         4.6229    4.2373    4.9610 N.2       1 RES1    0.0000
     58 N3         5.2537    4.1733    6.0337 N.2       1 RES1    0.0000
     59 O1         2.6092    4.3638    1.8312 O.2       1 RES1    0.0000
     60 O2         4.7194    4.3393    2.1312 O.2       1 RES1    0.0000
     61 O3         7.7778    8.7727    7.7509 O.3       1 RES1    0.0000
     62 O4        13.1183   16.0307   11.6689 O.2       1 RES1    0.0000
     63 O5        13.7347   15.7979   13.7615 O.3       1 RES1    0.0000
     64 O6        10.6116   14.7334   14.0058 O.2       1 RES1    0.0000
     65 O7        11.9007   13.1690   14.9171 O.3       1 RES1    0.0000
@<TRIPOS>BOND
     1    1    2 ar
     2    2    3 ar
     3    3    4 1
     4    5    3 ar
     5    6    5 1
     6    7    5 ar
     7    8    7 1
     8    9    1 ar
     9   10    9 1
    10   11   12 ar
    11   12   13 1
    12   14   12 ar
    13   15   14 1
    14   16   14 ar
    15   17   16 ar
    16   18   17 1
    17   19   11 ar
    18   20   19 1
    19   21   22 1
    20   23   21 1
    21   24   21 1
    22   25   24 1
    23   26   24 1
    24   27   24 1
    25   28   27 1
    26   29   27 1
    27   30   27 1
    28   31   30 1
    29   32   30 1
    30   33   30 1
    31   34   33 1
    32   35   33 1
    33   36   33 1
    34   37   36 1
    35   38   36 1
    36   39   36 1
    37   40   39 1
    38   41   42 1
    39   43   41 1
    40   44   41 1
    41   45   44 1
    42   46   44 1
    43   47   44 1
    44   48   39 1
    45   49   50 1
    46   51   49 1
    47   52   49 1
    48   53   52 1
    49   54   52 1
    50   55   52 1
    51   56    1 1
    52   57    2 1
    53   58   11 1
    54   59   56 2
    55   60   56 2
    56   61   16 1
    57   62   40 2
    58   63   40 1
    59   64   48 2
    60   65   48 1
    61    7    9 ar
    62   17   19 ar
    63   21   61 1
    64   41   63 1
    65   49   65 1
    66   57   58 2
@<TRIPOS>SUBSTRUCTURE
     1 RES1 1

@<TRIPOS>CRYSIN
   8.9120    9.6640   16.0640  98.6800  97.5400 105.1100   2 1

