# MOL2 file generated by ConQuest
# Please check atom types

@<TRIPOS>MOLECULE
REHMEW
    71    73     1
SMALL
NO_CHARGES
****
Generated from CSD

@<TRIPOS>ATOM
      1 C1       -10.6854   12.7738    5.3800 C.3       1 RES1    0.0000
      2 H1       -10.6948   13.4614    6.0516 H         1 RES1    0.0000
      3 H2       -11.4621   12.8601    4.8243 H         1 RES1    0.0000
      4 H3        -9.8946   12.8616    4.8432 H         1 RES1    0.0000
      5 C2       -10.6909   11.5705    5.9736 C.3       1 RES1    0.0000
      6 H4       -11.4764   11.5405    6.5411 H         1 RES1    0.0000
      7 H5        -9.9201   11.5428    6.5624 H         1 RES1    0.0000
      8 C3       -10.6789   10.3433    5.2097 C.3       1 RES1    0.0000
      9 H6       -11.0186    9.6420    5.7868 H         1 RES1    0.0000
     10 H7       -11.3188   10.4480    4.4885 H         1 RES1    0.0000
     11 C4        -9.5018    9.8799    4.6493 C.3       1 RES1    0.0000
     12 H8        -8.8482    9.7890    5.3611 H         1 RES1    0.0000
     13 H9        -9.1721   10.5612    4.0415 H         1 RES1    0.0000
     14 C5        -9.5505    8.6173    3.9209 C.3       1 RES1    0.0000
     15 H10      -10.3269    8.6165    3.3392 H         1 RES1    0.0000
     16 H11       -9.6531    7.8897    4.5547 H         1 RES1    0.0000
     17 C6        -8.2781    8.3740    3.0696 C.3       1 RES1    0.0000
     18 H12       -8.5215    7.7981    2.3294 H         1 RES1    0.0000
     19 H13       -8.0049    9.2255    2.6936 H         1 RES1    0.0000
     20 C7        -7.2930    7.8743    3.6277 C.3       1 RES1    0.0000
     21 H14       -7.5489    7.0275    4.0273 H         1 RES1    0.0000
     22 H15       -6.9995    8.4618    4.3418 H         1 RES1    0.0000
     23 C8        -6.0813    7.6326    2.6202 C.3       1 RES1    0.0000
     24 H16       -6.2805    6.9174    1.9959 H         1 RES1    0.0000
     25 H17       -5.8719    8.4394    2.1236 H         1 RES1    0.0000
     26 C9        -3.8132    6.9759    2.9537 C.ar      1 RES1    0.0000
     27 C10       -3.5307    7.0275    1.6057 C.ar      1 RES1    0.0000
     28 H18       -4.1841    7.2938    1.0003 H         1 RES1    0.0000
     29 C11       -2.2659    6.6795    1.1611 C.ar      1 RES1    0.0000
     30 H19       -2.0701    6.7157    0.2530 H         1 RES1    0.0000
     31 C12       -1.2917    6.2791    2.0550 C.ar      1 RES1    0.0000
     32 C13       -1.5933    6.2499    3.4054 C.ar      1 RES1    0.0000
     33 H20       -0.9424    5.9951    4.0179 H         1 RES1    0.0000
     34 C14       -2.8388    6.5894    3.8452 C.ar      1 RES1    0.0000
     35 H21       -3.0302    6.5609    4.7557 H         1 RES1    0.0000
     36 C15        0.0162    5.9027    1.5301 C.2       1 RES1    0.0000
     37 C16        2.2043    5.3206    2.0952 C.ar      1 RES1    0.0000
     38 C17        2.5368    3.9834    1.9817 C.ar      1 RES1    0.0000
     39 C18        3.8222    3.6777    1.5466 C.ar      1 RES1    0.0000
     40 H22        4.0706    2.7862    1.4567 H         1 RES1    0.0000
     41 C19        4.7380    4.6609    1.2463 C.ar      1 RES1    0.0000
     42 C20        4.3895    5.9958    1.4118 C.ar      1 RES1    0.0000
     43 H23        5.0093    6.6664    1.2321 H         1 RES1    0.0000
     44 C21        3.1221    6.3176    1.8398 C.ar      1 RES1    0.0000
     45 H24        2.8841    7.2092    1.9581 H         1 RES1    0.0000
     46 C22        6.0831    4.3098    0.7236 C.2       1 RES1    0.0000
     47 C23        1.6515    2.8193    2.2986 C.2       1 RES1    0.0000
     48 C24       -0.4688    2.0048    2.8662 C.3       1 RES1    0.0000
     49 H25       -0.1574    1.5182    3.6466 H         1 RES1    0.0000
     50 H26       -0.4683    1.4012    2.1071 H         1 RES1    0.0000
     51 C25       -1.8533    2.5368    3.1050 C.ar      1 RES1    0.0000
     52 C26       -2.6072    3.0156    2.0621 C.ar      1 RES1    0.0000
     53 H27       -2.2465    3.0225    1.2037 H         1 RES1    0.0000
     54 C27       -3.8790    3.4845    2.2608 C.ar      1 RES1    0.0000
     55 H28       -4.3846    3.8032    1.5490 H         1 RES1    0.0000
     56 C28       -4.3860    3.4722    3.5260 C.ar      1 RES1    0.0000
     57 C29       -3.6731    3.0149    4.5972 C.ar      1 RES1    0.0000
     58 H29       -4.0354    3.0256    5.4557 H         1 RES1    0.0000
     59 C30       -2.4005    2.5360    4.3679 C.ar      1 RES1    0.0000
     60 H30       -1.9026    2.2065    5.0797 H         1 RES1    0.0000
     61 N1        -5.7452    3.9864    3.7506 N.pl3     1 RES1    0.0000
     62 O1        -5.0262    7.2761    3.4905 O.3       1 RES1    0.0000
     63 O2         0.9388    5.7256    2.5214 O.3       1 RES1    0.0000
     64 O3         0.3013    5.7433    0.3784 O.2       1 RES1    0.0000
     65 O4         6.8701    5.2467    0.4321 O.2       1 RES1    0.0000
     66 O5         6.3610    3.0826    0.5747 O.3       1 RES1    0.0000
     67 H31        7.4369    2.8270    0.0970 H         1 RES1    0.0000
     68 O6         2.0498    1.6860    2.2773 O.2       1 RES1    0.0000
     69 O7         0.3984    3.1419    2.6051 O.3       1 RES1    0.0000
     70 O8        -6.4411    4.2290    2.7763 O.2       1 RES1    0.0000
     71 O9        -6.1307    4.1612    4.8834 O.2       1 RES1    0.0000
@<TRIPOS>BOND
     1    1    2 1
     2    3    1 1
     3    4    1 1
     4    5    1 1
     5    6    5 1
     6    7    5 1
     7    8    5 1
     8    9    8 1
     9   10    8 1
    10   11    8 1
    11   12   11 1
    12   13   11 1
    13   14   11 1
    14   15   14 1
    15   16   14 1
    16   17   14 1
    17   18   17 1
    18   19   17 1
    19   20   17 1
    20   21   20 1
    21   22   20 1
    22   23   20 1
    23   24   23 1
    24   25   23 1
    25   26   27 ar
    26   27   28 1
    27   29   27 ar
    28   30   29 1
    29   31   29 ar
    30   32   31 ar
    31   33   32 1
    32   34   26 ar
    33   35   34 1
    34   36   31 1
    35   37   38 ar
    36   38   39 ar
    37   39   40 1
    38   41   39 ar
    39   42   41 ar
    40   43   42 1
    41   44   37 ar
    42   45   44 1
    43   46   41 1
    44   47   38 1
    45   48   49 1
    46   50   48 1
    47   51   48 1
    48   52   51 ar
    49   53   52 1
    50   54   52 ar
    51   55   54 1
    52   56   54 ar
    53   57   56 ar
    54   58   57 1
    55   59   51 ar
    56   60   59 1
    57   61   56 1
    58   62   23 1
    59   63   36 1
    60   64   36 2
    61   65   46 2
    62   66   46 1
    63   67   66 1
    64   68   47 2
    65   69   47 1
    66   70   61 2
    67   71   61 2
    68   26   62 1
    69   32   34 ar
    70   37   63 1
    71   42   44 ar
    72   48   69 1
    73   57   59 ar
@<TRIPOS>SUBSTRUCTURE
     1 RES1 1

@<TRIPOS>CRYSIN
  15.5750    7.6988   23.8470  90.0000  97.4000  90.0000 231 1

