# MOL2 file generated by ConQuest
# Please check atom types

@<TRIPOS>MOLECULE
REJROQ
    50    52     1
SMALL
NO_CHARGES
****
Generated from CSD

@<TRIPOS>ATOM
      1 C1         4.0049    1.9881    6.1867 C.2       1 RES1    0.0000
      2 C2         3.9320    3.8952    4.4912 C.2       1 RES1    0.0000
      3 C3         3.3288    0.5251    8.2080 C.2       1 RES1    0.0000
      4 C4         4.0920    0.8347    7.0668 C.2       1 RES1    0.0000
      5 C5         1.0172    0.6428    9.1398 C.3       1 RES1    0.0000
      6 H1         0.7618    0.8981   10.0609 H         1 RES1    0.0000
      7 H2         1.1089   -0.3422    9.1096 H         1 RES1    0.0000
      8 C6        -0.0735    1.0707    8.1821 C.3       1 RES1    0.0000
      9 C7         4.5688    5.2876    2.3966 C.2       1 RES1    0.0000
     10 C8         3.8287    5.0317    3.5744 C.2       1 RES1    0.0000
     11 C9         6.8456    4.9913    1.4625 C.3       1 RES1    0.0000
     12 H3         6.8425    5.9793    1.5208 H         1 RES1    0.0000
     13 H4         7.0739    4.7444    0.5307 H         1 RES1    0.0000
     14 C10        7.9256    4.4402    2.4031 C.3       1 RES1    0.0000
     15 N1         3.0484    2.7968    6.3817 N.2       1 RES1    0.0000
     16 N2         4.8634    3.0775    4.2841 N.2       1 RES1    0.0000
     17 N3         3.6532   -0.6542    8.6549 N.2       1 RES1    0.0000
     18 N4         4.9176   -0.1352    6.8300 N.2       1 RES1    0.0000
     19 N5         2.2905    1.2475    8.8161 N.3       1 RES1    0.0000
     20 N6         2.7200    2.3550    9.6140 N.pl3     1 RES1    0.0000
     21 N7         0.3211    0.8944    6.7260 N.pl3     1 RES1    0.0000
     22 N8        -1.3172    0.2112    8.3827 N.pl3     1 RES1    0.0000
     23 N9        -0.5126    2.5047    8.3956 N.pl3     1 RES1    0.0000
     24 N10        4.2561    6.4591    1.9360 N.2       1 RES1    0.0000
     25 N11        3.0432    6.0487    3.8348 N.2       1 RES1    0.0000
     26 N12        5.5288    4.5030    1.7637 N.3       1 RES1    0.0000
     27 N13        5.0218    3.4667    0.9312 N.pl3     1 RES1    0.0000
     28 N14        9.2050    5.2055    2.1722 N.pl3     1 RES1    0.0000
     29 N15        8.2298    2.9586    2.1722 N.pl3     1 RES1    0.0000
     30 N16        7.5848    4.6201    3.8635 N.pl3     1 RES1    0.0000
     31 O1         3.0107    3.9152    5.4705 O.3       1 RES1    0.0000
     32 O2         4.9636    2.0140    5.2477 O.3       1 RES1    0.0000
     33 O3         4.6503   -1.0755    7.8158 O.3       1 RES1    0.0000
     34 O4         1.8443    2.9284   10.2204 O.2       1 RES1    0.0000
     35 O5         3.9005    2.6079    9.5413 O.2       1 RES1    0.0000
     36 O6         1.1214    0.0066    6.5187 O.2       1 RES1    0.0000
     37 O7        -0.2085    1.6133    5.9123 O.2       1 RES1    0.0000
     38 O8        -2.0654    0.0658    7.4465 O.2       1 RES1    0.0000
     39 O9        -1.4439   -0.2782    9.4779 O.2       1 RES1    0.0000
     40 O10       -1.5170    2.6574    9.0363 O.2       1 RES1    0.0000
     41 O11        0.2172    3.3521    7.9661 O.2       1 RES1    0.0000
     42 O12        3.3162    6.9455    2.8097 O.3       1 RES1    0.0000
     43 O13        3.8203    3.2851    1.0020 O.2       1 RES1    0.0000
     44 O14        5.8394    2.8566    0.2884 O.2       1 RES1    0.0000
     45 O15        9.4942    5.3993    1.0141 O.2       1 RES1    0.0000
     46 O16        9.8284    5.5719    3.1387 O.2       1 RES1    0.0000
     47 O17        7.3515    2.2053    2.5167 O.2       1 RES1    0.0000
     48 O18        9.2698    2.6797    1.6483 O.2       1 RES1    0.0000
     49 O19        6.8560    5.5640    4.1055 O.2       1 RES1    0.0000
     50 O20        8.0629    3.8258    4.6446 O.2       1 RES1    0.0000
@<TRIPOS>BOND
     1    1    4 1
     2    2   10 1
     3    3    4 1
     4    4   18 2
     5    5    6 1
     6    7    5 1
     7    8    5 1
     8    9   10 1
     9   10   25 2
    10   11   12 1
    11   13   11 1
    12   14   11 1
    13   15    1 2
    14   16    2 2
    15   17    3 2
    16   18   33 1
    17   19    3 1
    18   20   19 1
    19   21    8 1
    20   22    8 1
    21   23    8 1
    22   24    9 2
    23   25   42 1
    24   26    9 1
    25   27   26 1
    26   28   14 1
    27   29   14 1
    28   30   14 1
    29   31    2 1
    30   32    1 1
    31   33   17 1
    32   34   20 2
    33   35   20 2
    34   36   21 2
    35   37   21 2
    36   38   22 2
    37   39   22 2
    38   40   23 2
    39   41   23 2
    40   42   24 1
    41   43   27 2
    42   44   27 2
    43   45   28 2
    44   46   28 2
    45   47   29 2
    46   48   29 2
    47   49   30 2
    48   50   30 2
    49    5   19 1
    50   11   26 1
    51   15   31 1
    52   16   32 1
@<TRIPOS>SUBSTRUCTURE
     1 RES1 1

@<TRIPOS>CRYSIN
  17.4770    6.0354   21.6470  90.0000  94.7870  90.0000  14 1

