# MOL2 file generated by ConQuest
# Please check atom types

@<TRIPOS>MOLECULE
REJRIK
    46    48     1
SMALL
NO_CHARGES
****
Generated from CSD

@<TRIPOS>ATOM
      1 C1        -0.3475    1.1424    1.3906 C.2       1 RES1    0.0000
      2 C2        -0.5177    2.4891    0.9658 C.2       1 RES1    0.0000
      3 C3         0.7608    0.5603    2.1352 C.2       1 RES1    0.0000
      4 C4         0.0511    4.8334    0.6594 C.3       1 RES1    0.0000
      5 H1         0.3063    5.5082    1.3375 H         1 RES1    0.0000
      6 H2        -0.9227    4.9164    0.5006 H         1 RES1    0.0000
      7 C5         0.7915    5.1207   -0.6312 C.3       1 RES1    0.0000
      8 N1        -1.3685    0.4295    0.9940 N.2       1 RES1    0.0000
      9 N2        -1.6340    2.5938    0.3059 N.2       1 RES1    0.0000
     10 N3         1.6331    1.3759    2.5711 N.2       1 RES1    0.0000
     11 N4         0.3365    3.5256    1.1661 N.3       1 RES1    0.0000
     12 H3         1.0322    3.3846    1.6097 H         1 RES1    0.0000
     13 N5         2.3023    5.2979   -0.4304 N.pl3     1 RES1    0.0000
     14 N6         0.3154    6.4174   -1.2994 N.pl3     1 RES1    0.0000
     15 N7         0.6029    4.0045   -1.6368 N.pl3     1 RES1    0.0000
     16 O1        -2.1778    1.3003    0.3214 O.3       1 RES1    0.0000
     17 O2         0.7163   -0.7852    2.2453 O.3       1 RES1    0.0000
     18 O3         2.6925    5.2426    0.7158 O.2       1 RES1    0.0000
     19 O4         2.9826    5.4761   -1.4139 O.2       1 RES1    0.0000
     20 O5        -0.3729    7.1309   -0.5913 O.2       1 RES1    0.0000
     21 O6         0.6636    6.6280   -2.4400 O.2       1 RES1    0.0000
     22 O7        -0.4168    4.0580   -2.2834 O.2       1 RES1    0.0000
     23 O8         1.4365    3.1220   -1.6213 O.2       1 RES1    0.0000
     24 C1B        3.7913   -1.1424    4.1409 C.2       1 RES1    0.0000
     25 C2B        3.9614   -2.4891    4.5657 C.2       1 RES1    0.0000
     26 C3B        2.6829   -0.5603    3.3964 C.2       1 RES1    0.0000
     27 C4B        3.3926   -4.8334    4.8722 C.3       1 RES1    0.0000
     28 H1B        3.1375   -5.5082    4.1940 H         1 RES1    0.0000
     29 H2B        4.3664   -4.9164    5.0309 H         1 RES1    0.0000
     30 C5B        2.6522   -5.1207    6.1627 C.3       1 RES1    0.0000
     31 N1B        4.8122   -0.4295    4.5375 N.2       1 RES1    0.0000
     32 N2B        5.0777   -2.5938    5.2257 N.2       1 RES1    0.0000
     33 N3B        1.8106   -1.3759    2.9605 N.2       1 RES1    0.0000
     34 N4B        3.1072   -3.5256    4.3655 N.3       1 RES1    0.0000
     35 H3B        2.4116   -3.3846    3.9219 H         1 RES1    0.0000
     36 N5B        1.1414   -5.2979    5.9619 N.pl3     1 RES1    0.0000
     37 N6B        3.1283   -6.4174    6.8309 N.pl3     1 RES1    0.0000
     38 N7B        2.8408   -4.0045    7.1683 N.pl3     1 RES1    0.0000
     39 O1B        5.6216   -1.3003    5.2102 O.3       1 RES1    0.0000
     40 O2B        2.7274    0.7852    3.2863 O.3       1 RES1    0.0000
     41 O3B        0.7512   -5.2426    4.8158 O.2       1 RES1    0.0000
     42 O4B        0.4611   -5.4761    6.9454 O.2       1 RES1    0.0000
     43 O5B        3.8167   -7.1309    6.1229 O.2       1 RES1    0.0000
     44 O6B        2.7801   -6.6280    7.9715 O.2       1 RES1    0.0000
     45 O7B        3.8605   -4.0580    7.8150 O.2       1 RES1    0.0000
     46 O8B        2.0073   -3.1220    7.1529 O.2       1 RES1    0.0000
@<TRIPOS>BOND
     1    1    2 1
     2    2    9 2
     3    3    1 1
     4    4    5 1
     5    6    4 1
     6    7    4 1
     7    8    1 2
     8    9   16 1
     9   10    3 2
    10   11    2 1
    11   12   11 1
    12   13    7 1
    13   14    7 1
    14   15    7 1
    15   16    8 1
    16   17    3 1
    17   18   13 2
    18   19   13 2
    19   20   14 2
    20   21   14 2
    21   22   15 2
    22   23   15 2
    23   24   25 1
    24   25   32 2
    25   26   24 1
    26   27   28 1
    27   29   27 1
    28   30   27 1
    29   31   24 2
    30   32   39 1
    31   33   17 1
    32   34   25 1
    33   35   34 1
    34   36   30 1
    35   37   30 1
    36   38   30 1
    37   39   31 1
    38   40   10 1
    39   41   36 2
    40   42   36 2
    41   43   37 2
    42   44   37 2
    43   45   38 2
    44   46   38 2
    45    4   11 1
    46   26   33 2
    47   26   40 1
    48   27   34 1
@<TRIPOS>SUBSTRUCTURE
     1 RES1 1

@<TRIPOS>CRYSIN
   6.0094   29.7420    6.0976  90.0000 114.8830  90.0000 231 1

