# MOL2 file generated by ConQuest
# Please check atom types

@<TRIPOS>MOLECULE
REKHOH
   112   122     2
SMALL
NO_CHARGES
****
Generated from CSD

@<TRIPOS>ATOM
      1 C1         5.5598    8.3670    5.0021 C.ar      1 RES1    0.0000
      2 C2         5.8801    8.6837    6.3079 C.ar      1 RES1    0.0000
      3 H1         6.6128    8.2687    6.7477 H         1 RES1    0.0000
      4 C3         5.0981    9.6264    6.9575 C.ar      1 RES1    0.0000
      5 H2         5.2989    9.8471    7.8588 H         1 RES1    0.0000
      6 C4         4.0133   10.2621    6.3222 C.ar      1 RES1    0.0000
      7 C5         3.7430    9.9190    4.9936 C.ar      1 RES1    0.0000
      8 H3         3.0190   10.3364    4.5405 H         1 RES1    0.0000
      9 C6         4.5224    8.9715    4.3250 C.ar      1 RES1    0.0000
     10 H4         4.3407    8.7508    3.4189 H         1 RES1    0.0000
     11 C7         3.2405   11.3391    7.0516 C.3       1 RES1    0.0000
     12 H5         3.7135   12.2051    6.8911 H         1 RES1    0.0000
     13 C8         3.1862   11.1304    8.5255 C.2       1 RES1    0.0000
     14 C9         3.6730   11.8980    9.5407 C.2       1 RES1    0.0000
     15 H6         4.1010   12.7424    9.4553 H         1 RES1    0.0000
     16 C10        3.4167   11.1904   10.7659 C.ar      1 RES1    0.0000
     17 C11        3.7350   11.4735   12.1040 C.ar      1 RES1    0.0000
     18 H7         4.1796   12.2819   12.3376 H         1 RES1    0.0000
     19 C12        3.3893   10.5547   13.0708 C.ar      1 RES1    0.0000
     20 H8         3.6195   10.7154   13.9778 H         1 RES1    0.0000
     21 C13        2.6961    9.3769   12.7213 C.ar      1 RES1    0.0000
     22 H9         2.4688    8.7580   13.4051 H         1 RES1    0.0000
     23 C14        2.3355    9.0962   11.4126 C.ar      1 RES1    0.0000
     24 H10        1.8313    8.3214   11.1932 H         1 RES1    0.0000
     25 C15        2.7405    9.9934   10.4411 C.ar      1 RES1    0.0000
     26 C16        1.9471    8.9715    8.2729 C.ar      1 RES1    0.0000
     27 C17        2.0519    7.6234    8.6661 C.ar      1 RES1    0.0000
     28 H11        2.5877    7.3907    9.4154 H         1 RES1    0.0000
     29 C18        1.3798    6.6303    7.9718 C.ar      1 RES1    0.0000
     30 H12        1.4489    5.7235    8.2520 H         1 RES1    0.0000
     31 C19        0.6067    6.9565    6.8664 C.ar      1 RES1    0.0000
     32 H13        0.1603    6.2777    6.3754 H         1 RES1    0.0000
     33 C20        0.4948    8.2687    6.4903 C.ar      1 RES1    0.0000
     34 H14       -0.0586    8.4870    5.7495 H         1 RES1    0.0000
     35 C21        1.1685    9.3001    7.1589 C.ar      1 RES1    0.0000
     36 C22        1.7932   11.5214    6.5967 C.2       1 RES1    0.0000
     37 C23        1.3316   12.8576    6.1152 C.ar      1 RES1    0.0000
     38 C24        2.1886   13.7595    5.4675 C.ar      1 RES1    0.0000
     39 H15        3.0975   13.5220    5.3155 H         1 RES1    0.0000
     40 C25        1.7160   14.9973    5.0458 C.ar      1 RES1    0.0000
     41 H16        2.2979   15.5970    4.5937 H         1 RES1    0.0000
     42 C26        0.3878   15.3571    5.2851 C.ar      1 RES1    0.0000
     43 C27       -0.4753   14.4720    5.9176 C.ar      1 RES1    0.0000
     44 H17       -1.3793   14.7166    6.0819 H         1 RES1    0.0000
     45 C28        0.0016   13.2270    6.3079 C.ar      1 RES1    0.0000
     46 H18       -0.5956   12.6105    6.7173 H         1 RES1    0.0000
     47 C29       -1.2815   17.0747    5.2120 C.3       1 RES1    0.0000
     48 H19       -1.4159   17.9790    4.8596 H         1 RES1    0.0000
     49 H20       -1.9502   16.4702    4.8264 H         1 RES1    0.0000
     50 H21       -1.3768   17.0867    6.1873 H         1 RES1    0.0000
     51 N1         6.3611    7.3139    4.3183 N.pl3     1 RES1    0.0000
     52 N2         2.5933    9.9711    9.0421 N.pl3     1 RES1    0.0000
     53 N3         0.8910   10.5989    6.6859 N.2       1 RES1    0.0000
     54 O1         7.2478    6.7790    4.9451 O.2       1 RES1    0.0000
     55 O2         6.0596    7.0453    3.1606 O.2       1 RES1    0.0000
     56 O3         0.0377   16.6148    4.8634 O.3       1 RES1    0.0000
     57 C30        7.9386    3.9772    3.0723 C.ar      2 RES2    0.0000
     58 C31        6.8330    3.3799    2.3657 C.ar      2 RES2    0.0000
     59 H22        6.6315    3.6246    1.4701 H         2 RES2    0.0000
     60 C32        6.0824    2.4444    3.0334 C.ar      2 RES2    0.0000
     61 H23        5.3339    2.0606    2.5917 H         2 RES2    0.0000
     62 C33        6.3709    2.0390    4.3202 C.ar      2 RES2    0.0000
     63 C34        7.4201    2.6123    4.9917 C.ar      2 RES2    0.0000
     64 H24        7.6118    2.3700    5.8901 H         2 RES2    0.0000
     65 C35        8.2001    3.5598    4.3297 C.ar      2 RES2    0.0000
     66 H25        8.9486    3.9292    4.7837 H         2 RES2    0.0000
     67 C36        5.5523    0.9283    5.0059 C.3       2 RES2    0.0000
     68 H26        6.0143    0.0600    4.8207 H         2 RES2    0.0000
     69 C37        5.4418    1.0627    6.4798 C.2       2 RES2    0.0000
     70 C38        5.8677    0.2975    7.5008 C.2       2 RES2    0.0000
     71 H27        6.2934   -0.5469    7.4020 H         2 RES2    0.0000
     72 C39        5.5985    0.9139    8.7287 C.ar      2 RES2    0.0000
     73 C40        5.8446    0.6525   10.0868 C.ar      2 RES2    0.0000
     74 H28        6.2884   -0.1535   10.3233 H         2 RES2    0.0000
     75 C41        5.4804    1.4921   11.0574 C.ar      2 RES2    0.0000
     76 H29        5.6911    1.3001   11.9634 H         2 RES2    0.0000
     77 C42        4.7772    2.6723   10.7231 C.ar      2 RES2    0.0000
     78 H30        4.5030    3.2576   11.4174 H         2 RES2    0.0000
     79 C43        4.4705    3.0009    9.3764 C.ar      2 RES2    0.0000
     80 H31        3.9719    3.7805    9.1609 H         2 RES2    0.0000
     81 C44        4.9217    2.1493    8.4001 C.ar      2 RES2    0.0000
     82 C45        4.2506    3.2840    6.2215 C.ar      2 RES2    0.0000
     83 C46        4.3982    4.6009    6.6660 C.ar      2 RES2    0.0000
     84 H32        4.9091    4.7832    7.4457 H         2 RES2    0.0000
     85 C47        3.8054    5.6348    5.9717 C.ar      2 RES2    0.0000
     86 H33        3.9046    6.5247    6.2842 H         2 RES2    0.0000
     87 C48        3.0627    5.3877    4.8198 C.ar      2 RES2    0.0000
     88 H34        2.6622    6.1025    4.3383 H         2 RES2    0.0000
     89 C49        2.9217    4.0852    4.3943 C.ar      2 RES2    0.0000
     90 H35        2.4053    3.9004    3.6184 H         2 RES2    0.0000
     91 C50        3.5282    3.0201    5.0876 C.ar      2 RES2    0.0000
     92 C51        4.1156    0.7940    4.5102 C.2       2 RES2    0.0000
     93 C52        3.6591   -0.5373    4.0438 C.ar      2 RES2    0.0000
     94 C53        2.3745   -0.9571    4.3810 C.ar      2 RES2    0.0000
     95 H36        1.8259   -0.3886    4.9081 H         2 RES2    0.0000
     96 C54        1.8757   -2.1877    3.9641 C.ar      2 RES2    0.0000
     97 H37        1.0012   -2.4660    4.2110 H         2 RES2    0.0000
     98 C55        2.6768   -2.9985    3.1853 C.ar      2 RES2    0.0000
     99 C56        3.9615   -2.5907    2.8187 C.ar      2 RES2    0.0000
    100 H38        4.4976   -3.1448    2.2631 H         2 RES2    0.0000
    101 C57        4.4547   -1.3745    3.2641 C.ar      2 RES2    0.0000
    102 H39        5.3393   -1.1130    3.0372 H         2 RES2    0.0000
    103 C58        1.0693   -4.7520    3.1758 C.3       2 RES2    0.0000
    104 H40        0.9032   -5.6180    2.7475 H         2 RES2    0.0000
    105 H41        1.1296   -4.8744    4.1464 H         2 RES2    0.0000
    106 H42        0.3333   -4.1379    2.9688 H         2 RES2    0.0000
    107 N4         4.8288    2.2213    7.0212 N.pl3     2 RES2    0.0000
    108 N5         8.7618    4.9991    2.4749 N.pl3     2 RES2    0.0000
    109 N6         3.2294    1.7247    4.5918 N.2       2 RES2    0.0000
    110 O4         9.6596    5.4789    3.1245 O.2       2 RES2    0.0000
    111 O5         8.4954    5.2654    1.2726 O.2       2 RES2    0.0000
    112 O6         2.2858   -4.2111    2.6924 O.3       2 RES2    0.0000
@<TRIPOS>BOND
     1    1    2 ar
     2    2    3 1
     3    4    2 ar
     4    5    4 1
     5    6    4 ar
     6    7    6 ar
     7    8    7 1
     8    9    1 ar
     9   10    9 1
    10   11    6 1
    11   12   11 1
    12   13   11 1
    13   14   13 2
    14   15   14 1
    15   16   14 1
    16   17   16 ar
    17   18   17 1
    18   19   17 ar
    19   20   19 1
    20   21   19 ar
    21   22   21 1
    22   23   21 ar
    23   24   23 1
    24   25   16 ar
    25   26   27 ar
    26   27   28 1
    27   29   27 ar
    28   30   29 1
    29   31   29 ar
    30   32   31 1
    31   33   31 ar
    32   34   33 1
    33   35   26 ar
    34   36   11 1
    35   37   36 1
    36   38   37 ar
    37   39   38 1
    38   40   38 ar
    39   41   40 1
    40   42   40 ar
    41   43   42 ar
    42   44   43 1
    43   45   37 ar
    44   46   45 1
    45   47   48 1
    46   49   47 1
    47   50   47 1
    48   51    1 1
    49   52   13 1
    50   53   35 1
    51   54   51 2
    52   55   51 2
    53   56   42 1
    54   57   58 ar
    55   58   59 1
    56   60   58 ar
    57   61   60 1
    58   62   60 ar
    59   63   62 ar
    60   64   63 1
    61   65   57 ar
    62   66   65 1
    63   67   62 1
    64   68   67 1
    65   69   67 1
    66   70   69 2
    67   71   70 1
    68   72   70 1
    69   73   72 ar
    70   74   73 1
    71   75   73 ar
    72   76   75 1
    73   77   75 ar
    74   78   77 1
    75   79   77 ar
    76   80   79 1
    77   81   72 ar
    78   82   83 ar
    79   83   84 1
    80   85   83 ar
    81   86   85 1
    82   87   85 ar
    83   88   87 1
    84   89   87 ar
    85   90   89 1
    86   91   82 ar
    87   92   67 1
    88   93   92 1
    89   94   93 ar
    90   95   94 1
    91   96   94 ar
    92   97   96 1
    93   98   96 ar
    94   99   98 ar
    95  100   99 1
    96  101   93 ar
    97  102  101 1
    98  103  104 1
    99  105  103 1
   100  106  103 1
   101  107   69 1
   102  108   57 1
   103  109   91 1
   104  110  108 2
   105  111  108 2
   106  112   98 1
   107    7    9 ar
   108   23   25 ar
   109   25   52 1
   110   26   52 1
   111   33   35 ar
   112   36   53 2
   113   43   45 ar
   114   47   56 1
   115   63   65 ar
   116   79   81 ar
   117   81  107 1
   118   82  107 1
   119   89   91 ar
   120   92  109 2
   121   99  101 ar
   122  103  112 1
@<TRIPOS>SUBSTRUCTURE
     1 RES1 1
     2 RES2 57

@<TRIPOS>CRYSIN
  10.0350   23.9880   11.3390  90.0000 123.1170  90.0000   7 1

