# MOL2 file generated by ConQuest
# Please check atom types

@<TRIPOS>MOLECULE
REKHIB
    52    57     1
SMALL
NO_CHARGES
****
Generated from CSD

@<TRIPOS>ATOM
      1 O1         3.7443   10.6838    3.4122 O.2       1 RES1    0.0000
      2 O2         5.7531   10.1953    4.0111 O.2       1 RES1    0.0000
      3 N1         2.0146    3.3244    8.3994 N.pl3     1 RES1    0.0000
      4 N2         4.5653    9.9328    3.9148 N.pl3     1 RES1    0.0000
      5 N3         3.7225    4.0016    6.0601 N.2       1 RES1    0.0000
      6 C1         2.1164    2.7358   12.0769 C.ar      1 RES1    0.0000
      7 H1         2.4045    2.1320   12.7516 H         1 RES1    0.0000
      8 C2         2.3806    2.4421   10.7547 C.ar      1 RES1    0.0000
      9 H2         2.8542    1.6565   10.5086 H         1 RES1    0.0000
     10 C3         1.9238    3.3457    9.7937 C.ar      1 RES1    0.0000
     11 C4         1.4220    4.4883    7.9121 C.2       1 RES1    0.0000
     12 C5         1.3686    4.7230    6.4324 C.3       1 RES1    0.0000
     13 H3         0.9052    5.5971    6.2909 H         1 RES1    0.0000
     14 C6         2.8151    4.9026    5.9743 C.2       1 RES1    0.0000
     15 C7         3.2405    6.2178    5.4209 C.ar      1 RES1    0.0000
     16 C8         4.5747    6.5967    5.5292 C.ar      1 RES1    0.0000
     17 H4         5.1931    6.0096    5.9463 H         1 RES1    0.0000
     18 C9         5.0152    7.8068    5.0438 C.ar      1 RES1    0.0000
     19 H5         5.9256    8.0635    5.1293 H         1 RES1    0.0000
     20 C10        4.1008    8.6356    4.4297 C.ar      1 RES1    0.0000
     21 C11        2.3541    7.0745    4.7769 C.ar      1 RES1    0.0000
     22 H6         1.4435    6.8216    4.6813 H         1 RES1    0.0000
     23 C12        2.7827    8.2932    4.2725 C.ar      1 RES1    0.0000
     24 H7         2.1780    8.8755    3.8292 H         1 RES1    0.0000
     25 C13        3.4773    2.6948    6.5377 C.ar      1 RES1    0.0000
     26 C14        4.2027    1.6856    5.8999 C.ar      1 RES1    0.0000
     27 H8         4.8030    1.9193    5.2006 H         1 RES1    0.0000
     28 C15        4.0713    0.3656    6.2564 C.ar      1 RES1    0.0000
     29 H9         4.5757   -0.3018    5.8068 H         1 RES1    0.0000
     30 C16        3.2059    0.0135    7.2690 C.ar      1 RES1    0.0000
     31 H10        3.0932   -0.9010    7.5042 H         1 RES1    0.0000
     32 C17        2.5040    0.9918    7.9391 C.ar      1 RES1    0.0000
     33 H11        1.9080    0.7447    8.6364 H         1 RES1    0.0000
     34 C18        2.6528    2.3357    7.6126 C.ar      1 RES1    0.0000
     35 C19        1.4373    3.8943   12.4480 C.ar      1 RES1    0.0000
     36 H12        1.2516    4.0534   13.3656 H         1 RES1    0.0000
     37 C20        1.0331    4.8081   11.5065 C.ar      1 RES1    0.0000
     38 H13        0.5943    5.6080   11.7697 H         1 RES1    0.0000
     39 C21        1.2767    4.5454   10.1513 C.ar      1 RES1    0.0000
     40 C22        0.9789    5.2454    8.9404 C.2       1 RES1    0.0000
     41 H14        0.5482    6.0899    8.8717 H         1 RES1    0.0000
     42 C23        0.5869    3.6672    5.6421 C.ar      1 RES1    0.0000
     43 C24        0.8431    3.4240    4.3054 C.ar      1 RES1    0.0000
     44 H15        1.5562    3.8819    3.8751 H         1 RES1    0.0000
     45 C25        0.0762    2.5241    3.5833 C.ar      1 RES1    0.0000
     46 H16        0.2692    2.3687    2.6667 H         1 RES1    0.0000
     47 C26       -0.9570    1.8595    4.1816 C.ar      1 RES1    0.0000
     48 H17       -1.4797    1.2375    3.6877 H         1 RES1    0.0000
     49 C27       -1.2317    2.0999    5.5061 C.ar      1 RES1    0.0000
     50 H18       -1.9524    1.6479    5.9278 H         1 RES1    0.0000
     51 C28       -0.4640    2.9972    6.2315 C.ar      1 RES1    0.0000
     52 H19       -0.6643    3.1524    7.1469 H         1 RES1    0.0000
@<TRIPOS>BOND
     1    1    4 2
     2    2    4 2
     3    3   10 1
     4    4   20 1
     5    5   14 2
     6    6    7 1
     7    8    6 ar
     8    9    8 1
     9   10    8 ar
    10   11    3 1
    11   12   11 1
    12   13   12 1
    13   14   12 1
    14   15   14 1
    15   16   15 ar
    16   17   16 1
    17   18   16 ar
    18   19   18 1
    19   20   18 ar
    20   21   15 ar
    21   22   21 1
    22   23   20 ar
    23   24   23 1
    24   25    5 1
    25   26   25 ar
    26   27   26 1
    27   28   26 ar
    28   29   28 1
    29   30   28 ar
    30   31   30 1
    31   32   30 ar
    32   33   32 1
    33   34    3 1
    34   35    6 ar
    35   36   35 1
    36   37   35 ar
    37   38   37 1
    38   39   10 ar
    39   40   11 2
    40   41   40 1
    41   42   12 1
    42   43   42 ar
    43   44   43 1
    44   45   43 ar
    45   46   45 1
    46   47   45 ar
    47   48   47 1
    48   49   47 ar
    49   50   49 1
    50   51   42 ar
    51   52   51 1
    52   21   23 ar
    53   25   34 ar
    54   32   34 ar
    55   37   39 ar
    56   39   40 1
    57   49   51 ar
@<TRIPOS>SUBSTRUCTURE
     1 RES1 1

@<TRIPOS>CRYSIN
  10.0299   21.7110   10.4075  90.0000 110.3030  90.0000 231 1

