# MOL2 file generated by ConQuest
# Please check atom types

@<TRIPOS>MOLECULE
REKKAW
    37    39     1
SMALL
NO_CHARGES
****
Generated from CSD

@<TRIPOS>ATOM
      1 C1        17.4933    7.9068    0.7261 C.ar      1 RES1    0.0000
      2 H1        16.9551    8.5921    0.4003 H         1 RES1    0.0000
      3 C2        18.8533    7.9199    0.4750 C.ar      1 RES1    0.0000
      4 H2        19.2253    8.6122   -0.0217 H         1 RES1    0.0000
      5 C3        19.6611    6.9069    0.9598 C.ar      1 RES1    0.0000
      6 H3        20.5767    6.9238    0.7969 H         1 RES1    0.0000
      7 C4        19.1071    5.8710    1.6850 C.ar      1 RES1    0.0000
      8 H4        19.6478    5.1886    2.0114 H         1 RES1    0.0000
      9 C5        17.7447    5.8504    1.9263 C.ar      1 RES1    0.0000
     10 H5        17.3733    5.1442    2.4035 H         1 RES1    0.0000
     11 C6        16.9266    6.8740    1.4627 C.ar      1 RES1    0.0000
     12 C7        15.4805    6.8483    1.7555 C.2       1 RES1    0.0000
     13 C8        14.6911    5.7377    2.1085 C.2       1 RES1    0.0000
     14 H6        14.9776    4.8572    2.1981 H         1 RES1    0.0000
     15 C9        13.4217    6.2087    2.2952 C.2       1 RES1    0.0000
     16 C10       12.1810    5.4805    2.7225 C.3       1 RES1    0.0000
     17 H7        11.5870    5.3900    1.9606 H         1 RES1    0.0000
     18 H8        11.7223    6.0050    3.3962 H         1 RES1    0.0000
     19 C11       12.4807    4.1031    3.2841 C.3       1 RES1    0.0000
     20 H9        13.1138    4.1809    4.0012 H         1 RES1    0.0000
     21 H10       12.8475    3.5481    2.5918 H         1 RES1    0.0000
     22 H11       11.6693    3.7082    3.6135 H         1 RES1    0.0000
     23 C12       12.4919    8.5544    2.1308 C.ar      1 RES1    0.0000
     24 C13       11.1850    8.3090    1.7156 C.ar      1 RES1    0.0000
     25 H12       10.9515    7.4721    1.3840 H         1 RES1    0.0000
     26 C14       10.2363    9.3065    1.7956 C.ar      1 RES1    0.0000
     27 H13        9.3594    9.1483    1.5297 H         1 RES1    0.0000
     28 C15       10.6112   10.5434    2.2773 C.ar      1 RES1    0.0000
     29 C16       11.9041   10.8134    2.6889 C.ar      1 RES1    0.0000
     30 H14       12.1345   11.6564    3.0078 H         1 RES1    0.0000
     31 C17       12.8433    9.8088    2.6172 C.ar      1 RES1    0.0000
     32 H15       13.7164    9.9702    2.8943 H         1 RES1    0.0000
     33 N1        14.7570    7.9610    1.7229 N.2       1 RES1    0.0000
     34 N2        13.4889    7.5573    2.0455 N.pl3     1 RES1    0.0000
     35 N3         9.6092   11.6110    2.3438 N.pl3     1 RES1    0.0000
     36 O1         8.4883   11.3672    2.0032 O.2       1 RES1    0.0000
     37 O2         9.9459   12.6902    2.7762 O.2       1 RES1    0.0000
@<TRIPOS>BOND
     1    1    2 1
     2    3    1 ar
     3    4    3 1
     4    5    3 ar
     5    6    5 1
     6    7    5 ar
     7    8    7 1
     8    9    7 ar
     9   10    9 1
    10   11    1 ar
    11   12   11 1
    12   13   12 1
    13   14   13 1
    14   15   13 2
    15   16   15 1
    16   17   16 1
    17   18   16 1
    18   19   16 1
    19   20   19 1
    20   21   19 1
    21   22   19 1
    22   23   24 ar
    23   24   25 1
    24   26   24 ar
    25   27   26 1
    26   28   26 ar
    27   29   28 ar
    28   30   29 1
    29   31   23 ar
    30   32   31 1
    31   33   12 2
    32   34   15 1
    33   35   28 1
    34   36   35 2
    35   37   35 2
    36    9   11 ar
    37   23   34 1
    38   29   31 ar
    39   33   34 1
@<TRIPOS>SUBSTRUCTURE
     1 RES1 1

@<TRIPOS>CRYSIN
  17.8522   11.1225    7.5034  90.0000  95.4850  90.0000  14 1

