# MOL2 file generated by ConQuest
# Please check atom types

@<TRIPOS>MOLECULE
REKZAL
   127   124     3
SMALL
NO_CHARGES
****
Generated from CSD

@<TRIPOS>ATOM
      1 O1         6.3261   12.2683    6.3981 O.2       1 RES1    0.0000
      2 C1         6.1071   11.0088    8.7888 C.ar      1 RES1    0.0000
      3 H1         5.3929   10.9418    8.1970 H         1 RES1    0.0000
      4 C2         6.0510   10.3995   10.0150 C.ar      1 RES1    0.0000
      5 H2         5.2986    9.9014   10.2396 H         1 RES1    0.0000
      6 C3         5.7993    9.5348   12.8301 C.ar      1 RES1    0.0000
      7 H3         5.0077    9.7675   12.4011 H         1 RES1    0.0000
      8 C4         3.3039    8.4157   14.7561 C.ar      1 RES1    0.0000
      9 H4         2.9124    8.8492   14.0324 H         1 RES1    0.0000
     10 O2        -3.8766    7.2343   15.9501 O.2       1 RES1    0.0000
     11 O3         8.3280   12.9114    6.8121 O.2       1 RES1    0.0000
     12 C5         8.1991    9.4714   12.9315 C.ar      1 RES1    0.0000
     13 H5         9.0209    9.6735   12.5458 H         1 RES1    0.0000
     14 C6         3.1437    7.1625   16.7855 C.ar      1 RES1    0.0000
     15 H6         2.6177    6.7411   17.4264 H         1 RES1    0.0000
     16 C7         7.6354    7.3927   16.8354 C.3       1 RES1    0.0000
     17 H7         8.4947    7.2692   16.4029 H         1 RES1    0.0000
     18 H8         7.3572    6.5388   17.2019 H         1 RES1    0.0000
     19 O4        -3.6486    8.0094   13.9666 O.2       1 RES1    0.0000
     20 C8         7.0858   10.5071   10.9268 C.ar      1 RES1    0.0000
     21 C9         7.0199    9.8385   12.2413 C.ar      1 RES1    0.0000
     22 C10        5.7558    8.8870   14.0532 C.ar      1 RES1    0.0000
     23 C11        4.6835    8.4050   14.8850 C.ar      1 RES1    0.0000
     24 C12        2.5002    7.7857   15.6969 C.ar      1 RES1    0.0000
     25 C13        0.4020    8.2640   14.4085 C.ar      1 RES1    0.0000
     26 H9         0.9255    8.6450   13.7408 H         1 RES1    0.0000
     27 N1        -3.1893    7.6316   15.0422 N.pl3     1 RES1    0.0000
     28 C14        8.1850    8.8382   14.1303 C.ar      1 RES1    0.0000
     29 H10        8.9776    8.6176   14.5641 H         1 RES1    0.0000
     30 C15        6.9547    8.5283   14.6916 C.ar      1 RES1    0.0000
     31 C16        4.5052    7.1457   16.9481 C.ar      1 RES1    0.0000
     32 H11        4.8977    6.7302   17.6817 H         1 RES1    0.0000
     33 C17        5.2764    7.7707   15.9792 C.ar      1 RES1    0.0000
     34 N2         6.6589    7.8425   15.8563 N.pl3     1 RES1    0.0000
     35 C18        0.1854    7.2142   16.5151 C.ar      1 RES1    0.0000
     36 H12        0.5567    6.8735   17.2968 H         1 RES1    0.0000
     37 N3         7.2972   12.3454    7.1383 N.pl3     1 RES1    0.0000
     38 C19        7.2259   11.7165    8.4462 C.ar      1 RES1    0.0000
     39 C20        1.0275    7.7574   15.5472 C.ar      1 RES1    0.0000
     40 C21       -0.9595    8.2199   14.2388 C.ar      1 RES1    0.0000
     41 H13       -1.3502    8.5619   13.4672 H         1 RES1    0.0000
     42 C22       -1.7286    7.6691   15.2149 C.ar      1 RES1    0.0000
     43 C23        8.1914   11.2626   10.5524 C.ar      1 RES1    0.0000
     44 H14        8.8953   11.3630   11.1518 H         1 RES1    0.0000
     45 C24        8.2713   11.8632    9.3228 C.ar      1 RES1    0.0000
     46 H15        9.0206   12.3611    9.0870 H         1 RES1    0.0000
     47 C25        7.7743    8.4153   17.9675 C.3       1 RES1    0.0000
     48 H16        6.9298    8.4633   18.4419 H         1 RES1    0.0000
     49 H17        8.4413    8.0901   18.5929 H         1 RES1    0.0000
     50 C26        8.1558    9.7860   17.5446 C.3       1 RES1    0.0000
     51 H18        7.4905   10.1326   16.9296 H         1 RES1    0.0000
     52 H19        9.0079    9.7585   17.0831 H         1 RES1    0.0000
     53 C27        8.2613   10.7063   18.7460 C.3       1 RES1    0.0000
     54 H20        8.4091   11.6066   18.4476 H         1 RES1    0.0000
     55 H21        8.9942   10.4277   19.2993 H         1 RES1    0.0000
     56 H22        7.4456   10.6671   19.2516 H         1 RES1    0.0000
     57 C28       -1.1830    7.1666   16.3475 C.ar      1 RES1    0.0000
     58 H23       -1.7249    6.7938   17.0053 H         1 RES1    0.0000
     59 H24        8.2829    6.8295   16.3834 Du        3 SUP3    0.0000
     60 H25        7.1787    6.8419   17.4903 Du        3 SUP3    0.0000
     61 H26        8.6343   11.1767   17.9972 Du        3 SUP3    0.0000
     62 H27        8.9689   10.4015   19.3181 Du        3 SUP3    0.0000
     63 H28        7.6831   11.2948   19.2377 Du        3 SUP3    0.0000
     64 C29        7.4210    9.4515   18.2221 Du        3 SUP3    0.0000
     65 H29        6.9669    9.0217   18.9638 Du        3 SUP3    0.0000
     66 H30        6.7532    9.7417   17.5814 Du        3 SUP3    0.0000
     67 C30        8.3792    8.4768   17.5665 Du        3 SUP3    0.0000
     68 H31        8.9485    8.9535   16.9420 Du        3 SUP3    0.0000
     69 H32        8.9472    8.0764   18.2437 Du        3 SUP3    0.0000
     70 O5        -2.4330    6.1977   10.6552 O.2       2 RES2    0.0000
     71 C31        7.0880    7.2990    9.1839 C.ar      2 RES2    0.0000
     72 H33        6.3042    7.4841    8.7189 H         2 RES2    0.0000
     73 O6         9.7297   10.9538    3.3715 O.2       2 RES2    0.0000
     74 O7        -2.5667    4.8967   12.3071 O.2       2 RES2    0.0000
     75 C32        4.3831    5.4044   13.3697 C.ar      2 RES2    0.0000
     76 H34        3.8516    5.1300   14.0818 H         2 RES2    0.0000
     77 C33        5.7461    5.3678   13.5198 C.ar      2 RES2    0.0000
     78 H35        6.1329    5.0613   14.3080 H         2 RES2    0.0000
     79 C34        9.4790    7.3166    9.3461 C.ar      2 RES2    0.0000
     80 H36       10.3042    7.5210    8.9689 H         2 RES2    0.0000
     81 O8         7.6505   10.5645    2.9966 O.2       2 RES2    0.0000
     82 C35        7.4750    8.9613    5.1990 C.ar      2 RES2    0.0000
     83 H37        6.7837    8.9014    4.5799 H         2 RES2    0.0000
     84 C36        7.4085    8.2733    6.3817 C.ar      2 RES2    0.0000
     85 H38        6.6756    7.7247    6.5450 H         2 RES2    0.0000
     86 C37        9.3534    4.1524   13.3965 C.3       2 RES2    0.0000
     87 H39        9.8121    3.9862   12.5582 H         2 RES2    0.0000
     88 H40        8.5973    3.5468   13.4475 H         2 RES2    0.0000
     89 N4        -1.9229    5.5675   11.5491 N.pl3     2 RES2    0.0000
     90 C38        2.2733    5.7920   12.0538 C.ar      2 RES2    0.0000
     91 C39        3.7533    5.8351   12.1943 C.ar      2 RES2    0.0000
     92 C40        4.5597    6.2853   11.1531 C.ar      2 RES2    0.0000
     93 H41        4.1702    6.5952   10.3676 H         2 RES2    0.0000
     94 C41        7.0249    6.6844   10.4215 C.ar      2 RES2    0.0000
     95 C42        9.4851    9.1917    7.0493 C.ar      2 RES2    0.0000
     96 H42       10.1641    9.2857    7.6777 H         2 RES2    0.0000
     97 C43        6.5273    5.8004   12.4650 C.ar      2 RES2    0.0000
     98 N5         7.9034    5.8722   12.3503 N.3       2 RES2    0.0000
     99 C44        8.2093    6.4160   11.1229 C.ar      2 RES2    0.0000
    100 C45       10.2922    3.8684   14.5385 C.3       2 RES2    0.0000
    101 H43       11.0431    4.4799   14.4835 H         2 RES2    0.0000
    102 H44        9.8299    4.0451   15.3727 H         2 RES2    0.0000
    103 C46        1.4609    5.1612   12.9671 C.ar      2 RES2    0.0000
    104 H45        1.8497    4.7713   13.7161 H         2 RES2    0.0000
    105 C47       -0.4812    5.6543   11.7368 C.ar      2 RES2    0.0000
    106 C48        0.2748    6.3140   10.8118 C.ar      2 RES2    0.0000
    107 H46       -0.1255    6.7123   10.0729 H         2 RES2    0.0000
    108 C49        1.6356    6.3811   10.9876 C.ar      2 RES2    0.0000
    109 H47        2.1451    6.8429   10.3614 H         2 RES2    0.0000
    110 C50        5.9391    6.2746   11.2798 C.ar      2 RES2    0.0000
    111 C51        8.3167    7.6414    8.6317 C.ar      2 RES2    0.0000
    112 C52        8.4050    8.3724    7.3436 C.ar      2 RES2    0.0000
    113 C53        9.5818    9.8675    5.8604 C.ar      2 RES2    0.0000
    114 H48       10.3198   10.4043    5.6812 H         2 RES2    0.0000
    115 C54        8.5744    9.7398    4.9398 C.ar      2 RES2    0.0000
    116 N6         8.6537   10.4703    3.6851 N.pl3     2 RES2    0.0000
    117 C55        9.4527    6.7090   10.5800 C.ar      2 RES2    0.0000
    118 H49       10.2381    6.5024   11.0331 H         2 RES2    0.0000
    119 C56        8.8553    5.5611   13.4121 C.3       2 RES2    0.0000
    120 H50        8.4327    5.7319   14.2683 H         2 RES2    0.0000
    121 H51        9.6143    6.1600   13.3346 H         2 RES2    0.0000
    122 C57       10.8190    2.4599   14.5666 C.3       2 RES2    0.0000
    123 H52       10.0841    1.8457   14.6417 H         2 RES2    0.0000
    124 H53       11.4033    2.3521   15.3206 H         2 RES2    0.0000
    125 H54       11.3028    2.2826   13.7578 H         2 RES2    0.0000
    126 C58        0.0943    5.0844   12.8149 C.ar      2 RES2    0.0000
    127 H55       -0.4253    4.6449   13.4488 H         2 RES2    0.0000
@<TRIPOS>BOND
     1    1   37 2
     2    2    3 1
     3    4    2 ar
     4    5    4 1
     5    6    7 1
     6    8    9 1
     7   10   27 2
     8   11   37 2
     9   12   13 1
    10   14   15 1
    11   16   17 1
    12   18   16 1
    13   19   27 2
    14   20    4 ar
    15   21    6 ar
    16   22    6 ar
    17   23    8 ar
    18   24    8 ar
    19   25   26 1
    20   27   42 1
    21   28   12 ar
    22   29   28 1
    23   30   22 ar
    24   31   14 ar
    25   32   31 1
    26   33   23 ar
    27   34   16 1
    28   35   36 1
    29   37   38 1
    30   38    2 ar
    31   39   24 1
    32   40   25 ar
    33   41   40 1
    34   42   40 ar
    35   43   20 ar
    36   44   43 1
    37   45   38 ar
    38   46   45 1
    39   47   16 1
    40   48   47 1
    41   49   47 1
    42   50   47 1
    43   51   50 1
    44   52   50 1
    45   53   50 1
    46   54   53 1
    47   55   53 1
    48   56   53 1
    49   57   35 ar
    50   58   57 1
    51   70   89 2
    52   71   72 1
    53   73  116 2
    54   74   89 2
    55   75   76 1
    56   77   75 ar
    57   78   77 1
    58   79   80 1
    59   81  116 2
    60   82   83 1
    61   84   82 ar
    62   85   84 1
    63   86   87 1
    64   88   86 1
    65   89  105 1
    66   90   91 1
    67   91   75 ar
    68   92   91 ar
    69   93   92 1
    70   94   71 ar
    71   95   96 1
    72   97   77 ar
    73   98   97 1
    74   99   94 ar
    75  100   86 1
    76  101  100 1
    77  102  100 1
    78  103   90 ar
    79  104  103 1
    80  105  106 ar
    81  106  107 1
    82  108   90 ar
    83  109  108 1
    84  110   92 ar
    85  111   71 ar
    86  112   84 ar
    87  113   95 ar
    88  114  113 1
    89  115   82 ar
    90  116  115 1
    91  117   79 ar
    92  118  117 1
    93  119   86 1
    94  120  119 1
    95  121  119 1
    96  122  100 1
    97  123  122 1
    98  124  122 1
    99  125  122 1
   100  126  103 ar
   101  127  126 1
   102   12   21 ar
   103   14   24 ar
   104   20   21 1
   105   22   23 1
   106   25   39 ar
   107   28   30 ar
   108   30   34 1
   109   31   33 ar
   110   33   34 1
   111   35   39 ar
   112   42   57 ar
   113   43   45 ar
   114   79  111 ar
   115   94  110 1
   116   95  112 ar
   117   97  110 ar
   118   98   99 1
   119   98  119 1
   120   99  117 ar
   121  105  126 ar
   122  106  108 ar
   123  111  112 1
   124  113  115 ar
@<TRIPOS>SUBSTRUCTURE
     1 RES1 1
     2 RES2 70
     3 SUP3 59

@<TRIPOS>CRYSIN
  15.1990   20.5200   15.4980  90.0000 109.2230  90.0000  14 1

