# MOL2 file generated by ConQuest
# Please check atom types

@<TRIPOS>MOLECULE
REKZEP
    64    68     1
SMALL
NO_CHARGES
****
Generated from CSD

@<TRIPOS>ATOM
      1 O1         9.5706    2.2441    4.8453 O.2       1 RES1    0.0000
      2 O2         8.2219    0.9246    3.8404 O.2       1 RES1    0.0000
      3 O3        -3.3470   -4.9698    6.7736 O.2       1 RES1    0.0000
      4 O4        -4.9741   -4.4090    8.0459 O.2       1 RES1    0.0000
      5 N1         8.5022    1.6463    4.7677 N.pl3     1 RES1    0.0000
      6 N2         1.8818    2.4186   12.0553 N.3       1 RES1    0.0000
      7 N3        -3.8085   -4.3317    7.6951 N.pl3     1 RES1    0.0000
      8 C1        -2.9305   -3.4211    8.4236 C.ar      1 RES1    0.0000
      9 C2        -3.4684   -2.6202    9.3942 C.ar      1 RES1    0.0000
     10 H1        -4.3667   -2.6896    9.6238 H         1 RES1    0.0000
     11 C3        -2.6466   -1.7095   10.0252 C.ar      1 RES1    0.0000
     12 H2        -3.0123   -1.1464   10.6689 H         1 RES1    0.0000
     13 C4        -1.2950   -1.6035    9.7327 C.ar      1 RES1    0.0000
     14 C5        -0.7929   -2.4657    8.7518 C.ar      1 RES1    0.0000
     15 H3         0.1105   -2.4254    8.5344 H         1 RES1    0.0000
     16 C6        -1.5955   -3.3697    8.1013 C.ar      1 RES1    0.0000
     17 H4        -1.2419   -3.9369    7.4546 H         1 RES1    0.0000
     18 C7        -0.4363   -0.6035   10.4048 C.ar      1 RES1    0.0000
     19 C8        -0.8168   -0.0767   11.6507 C.ar      1 RES1    0.0000
     20 H5        -1.5760   -0.4172   12.0656 H         1 RES1    0.0000
     21 C9        -0.1114    0.9223   12.2821 C.ar      1 RES1    0.0000
     22 H6        -0.3897    1.2594   13.1031 H         1 RES1    0.0000
     23 C10        1.0222    1.4098   11.6595 C.ar      1 RES1    0.0000
     24 C11        1.4726    0.8595   10.4393 C.ar      1 RES1    0.0000
     25 C12        0.7299   -0.1309    9.8179 C.ar      1 RES1    0.0000
     26 H7         1.0138   -0.4808    9.0043 H         1 RES1    0.0000
     27 C13        2.6866    1.5668   10.1024 C.ar      1 RES1    0.0000
     28 C14        2.9004    2.5183   11.1217 C.ar      1 RES1    0.0000
     29 C15        4.0063    3.3669   11.0674 C.ar      1 RES1    0.0000
     30 H8         4.1487    4.0072   11.7267 H         1 RES1    0.0000
     31 C16        4.8745    3.2338   10.0211 C.ar      1 RES1    0.0000
     32 H9         5.6131    3.7978    9.9842 H         1 RES1    0.0000
     33 C17        4.7044    2.2804    8.9932 C.ar      1 RES1    0.0000
     34 C18        3.5857    1.4481    9.0572 C.ar      1 RES1    0.0000
     35 H10        3.4438    0.8111    8.3945 H         1 RES1    0.0000
     36 C19        5.6813    2.1410    7.8974 C.ar      1 RES1    0.0000
     37 C20        6.9686    2.6859    7.9737 C.ar      1 RES1    0.0000
     38 H11        7.2125    3.1664    8.7318 H         1 RES1    0.0000
     39 C21        7.8816    2.5295    6.9599 C.ar      1 RES1    0.0000
     40 H12        8.7316    2.9005    7.0334 H         1 RES1    0.0000
     41 C22        7.5326    1.8275    5.8441 C.ar      1 RES1    0.0000
     42 C23        6.2751    1.2706    5.7052 C.ar      1 RES1    0.0000
     43 H13        6.0494    0.7891    4.9421 H         1 RES1    0.0000
     44 C24        5.3690    1.4435    6.7203 C.ar      1 RES1    0.0000
     45 H14        4.5161    1.0865    6.6248 H         1 RES1    0.0000
     46 C25        1.6836    3.2510   13.2407 C.3       1 RES1    0.0000
     47 H15        2.5237    3.6812   13.4633 H         1 RES1    0.0000
     48 H16        1.4398    2.6791   13.9854 H         1 RES1    0.0000
     49 C26        0.6285    4.3075   13.0791 C.3       1 RES1    0.0000
     50 H17       -0.2005    3.8768   12.8200 H         1 RES1    0.0000
     51 H18        0.4813    4.7280   13.9415 H         1 RES1    0.0000
     52 C27        0.9348    5.3553   12.0990 C.3       1 RES1    0.0000
     53 H19        0.9875    4.9627   11.2131 H         1 RES1    0.0000
     54 H20        1.7977    5.7482   12.3044 H         1 RES1    0.0000
     55 C28       -0.1467    6.4562   12.1097 C.3       1 RES1    0.0000
     56 H21       -0.9590    6.0817   11.7338 H         1 RES1    0.0000
     57 H22       -0.3350    6.6820   13.0339 H         1 RES1    0.0000
     58 C29        0.1383    7.6313   11.4295 C.3       1 RES1    0.0000
     59 H23        0.2944    7.4180   10.4967 H         1 RES1    0.0000
     60 H24        0.9608    8.0021   11.7864 H         1 RES1    0.0000
     61 C30       -0.9363    8.6873   11.5071 C.3       1 RES1    0.0000
     62 H25       -1.0006    9.1407   10.6624 H         1 RES1    0.0000
     63 H26       -0.7140    9.3211   12.1930 H         1 RES1    0.0000
     64 H27       -1.7775    8.2743   11.7128 H         1 RES1    0.0000
@<TRIPOS>BOND
     1    1    5 2
     2    2    5 2
     3    3    7 2
     4    4    7 2
     5    5   41 1
     6    6   23 1
     7    7    8 1
     8    8    9 ar
     9    9   10 1
    10   11    9 ar
    11   12   11 1
    12   13   11 ar
    13   14   13 ar
    14   15   14 1
    15   16    8 ar
    16   17   16 1
    17   18   13 1
    18   19   18 ar
    19   20   19 1
    20   21   19 ar
    21   22   21 1
    22   23   21 ar
    23   24   23 ar
    24   25   18 ar
    25   26   25 1
    26   27   24 1
    27   28    6 1
    28   29   28 ar
    29   30   29 1
    30   31   29 ar
    31   32   31 1
    32   33   31 ar
    33   34   27 ar
    34   35   34 1
    35   36   33 1
    36   37   36 ar
    37   38   37 1
    38   39   37 ar
    39   40   39 1
    40   41   39 ar
    41   42   41 ar
    42   43   42 1
    43   44   36 ar
    44   45   44 1
    45   46    6 1
    46   47   46 1
    47   48   46 1
    48   49   46 1
    49   50   49 1
    50   51   49 1
    51   52   49 1
    52   53   52 1
    53   54   52 1
    54   55   52 1
    55   56   55 1
    56   57   55 1
    57   58   55 1
    58   59   58 1
    59   60   58 1
    60   61   58 1
    61   62   61 1
    62   63   61 1
    63   64   61 1
    64   14   16 ar
    65   24   25 ar
    66   27   28 ar
    67   33   34 ar
    68   42   44 ar
@<TRIPOS>SUBSTRUCTURE
     1 RES1 1

@<TRIPOS>CRYSIN
   6.9673   13.3280   14.6200 112.7770  94.3440  94.5030   2 1

