# MOL2 file generated by ConQuest
# Please check atom types

@<TRIPOS>MOLECULE
RELFEV
   112   114     2
SMALL
NO_CHARGES
****
Generated from CSD

@<TRIPOS>ATOM
      1 O1         1.9533   11.0575    4.4089 O.3       1 RES1    0.0000
      2 O2         1.3250    9.8429    7.7747 O.3       1 RES1    0.0000
      3 O3         0.8862    7.6348    7.8852 O.2       1 RES1    0.0000
      4 O4         3.7419    8.3496    6.9272 O.3       1 RES1    0.0000
      5 O5         4.5096    9.2135    8.8698 O.2       1 RES1    0.0000
      6 O6         5.3611    9.9993    5.2246 O.3       1 RES1    0.0000
      7 O7         3.3717   12.8541    2.7998 O.3       1 RES1    0.0000
      8 O8         2.6138   12.0521    0.8253 O.2       1 RES1    0.0000
      9 O9        -0.0678   10.7153    5.4285 O.3       1 RES1    0.0000
     10 O10       -2.6466   12.9747    6.0679 O.2       1 RES1    0.0000
     11 O11       11.0723    5.2161    4.1200 O.3       2 RES2    0.0000
     12 O12        9.1851    4.6247    7.1300 O.3       2 RES2    0.0000
     13 O13        8.5215    2.5185    7.6144 O.2       2 RES2    0.0000
     14 O14       11.5177    2.6330    7.2171 O.3       2 RES2    0.0000
     15 O15       11.3648    3.5497    9.2808 O.2       2 RES2    0.0000
     16 O16       13.8452    4.0195    6.1529 O.3       2 RES2    0.0000
     17 O17       13.2749    6.5656    2.9208 O.3       2 RES2    0.0000
     18 O18       14.6565    5.8573    1.2937 O.2       2 RES2    0.0000
     19 O19        8.8274    5.4352    4.4599 O.3       2 RES2    0.0000
     20 O20        7.0435    8.3570    3.8619 O.2       2 RES2    0.0000
     21 N1        -0.7899   11.9345    5.2501 N.am      1 RES1    0.0000
     22 N2         8.5945    6.7181    3.9086 N.am      2 RES2    0.0000
     23 C1         1.3173   10.9686    5.6792 C.3       1 RES1    0.0000
     24 C2         1.8207    9.7435    6.4227 C.3       1 RES1    0.0000
     25 C3         3.3485    9.6629    6.4407 C.3       1 RES1    0.0000
     26 C4         3.9636    9.8960    5.0600 C.3       1 RES1    0.0000
     27 C5         3.3875   11.2011    4.5246 C.3       1 RES1    0.0000
     28 C6         0.8416    8.7279    8.4088 C.2       1 RES1    0.0000
     29 C7         0.2924    9.0553    9.7291 C.3       1 RES1    0.0000
     30 C8         4.2628    8.2721    8.1837 C.2       1 RES1    0.0000
     31 C9         4.5020    6.8185    8.5628 C.3       1 RES1    0.0000
     32 C10        3.9072   11.5558    3.1779 C.3       1 RES1    0.0000
     33 C11        2.7078   12.9385    1.6335 C.2       1 RES1    0.0000
     34 C12        2.0691   14.2936    1.5188 C.3       1 RES1    0.0000
     35 C13       -1.7548   12.1018    6.2464 C.2       1 RES1    0.0000
     36 C14       -1.6375   11.3393    7.4975 C.3       1 RES1    0.0000
     37 C15       -0.9742   12.3389    3.9012 C.ar      1 RES1    0.0000
     38 C16       -1.2630   13.6487    3.6091 C.ar      1 RES1    0.0000
     39 C17       -1.4960   14.0402    2.2974 C.ar      1 RES1    0.0000
     40 C18       -1.4473   13.1240    1.2597 C.ar      1 RES1    0.0000
     41 C19       -1.1301   11.7969    1.5518 C.ar      1 RES1    0.0000
     42 C20       -0.9282   11.3986    2.8550 C.ar      1 RES1    0.0000
     43 C21       10.0955    5.4064    5.1247 C.3       2 RES2    0.0000
     44 C22       10.0620    4.1946    6.0573 C.3       2 RES2    0.0000
     45 C23       11.4705    3.9541    6.6022 C.3       2 RES2    0.0000
     46 C24       12.5512    3.9596    5.5347 C.3       2 RES2    0.0000
     47 C25       12.4080    5.2304    4.6776 C.3       2 RES2    0.0000
     48 C26        8.4648    3.7060    7.8194 C.2       2 RES2    0.0000
     49 C27        7.6271    4.3766    8.8687 C.3       2 RES2    0.0000
     50 C28       11.4249    2.5816    8.5745 C.2       2 RES2    0.0000
     51 C29       11.4320    1.1734    9.0450 C.3       2 RES2    0.0000
     52 C30       13.3465    5.2378    3.4944 C.3       2 RES2    0.0000
     53 C31       13.9814    6.7438    1.7929 C.2       2 RES2    0.0000
     54 C32       13.8789    8.1242    1.2406 C.3       2 RES2    0.0000
     55 C33        7.5082    7.3779    4.4577 C.2       2 RES2    0.0000
     56 C34        7.0260    6.8994    5.7599 C.3       2 RES2    0.0000
     57 C35        9.1553    6.9801    2.6383 C.ar      2 RES2    0.0000
     58 C36        9.2832    5.9848    1.6835 C.ar      2 RES2    0.0000
     59 C37        9.8959    6.2604    0.4790 C.ar      2 RES2    0.0000
     60 C38       10.3687    7.5315    0.1922 C.ar      2 RES2    0.0000
     61 C39       10.2407    8.5586    1.1418 C.ar      2 RES2    0.0000
     62 C40        9.6747    8.2601    2.3643 C.ar      2 RES2    0.0000
     63 H1         1.4477   11.7325    6.2118 H         1 RES1    0.0000
     64 H2         1.4752    8.9328    6.0377 H         1 RES1    0.0000
     65 H3         3.6875   10.2934    7.0616 H         1 RES1    0.0000
     66 H4         3.7578    9.1478    4.5004 H         1 RES1    0.0000
     67 H5         3.5906   11.8747    5.1558 H         1 RES1    0.0000
     68 H6         5.7399    9.5795    4.7493 H         1 RES1    0.0000
     69 H7         0.2079    8.2310   10.2636 H         1 RES1    0.0000
     70 H8         0.8857    9.6249   10.1995 H         1 RES1    0.0000
     71 H9        -0.5520    9.4355    9.6483 H         1 RES1    0.0000
     72 H10        4.9677    6.3497    7.8806 H         1 RES1    0.0000
     73 H11        3.6744    6.3608    8.7371 H         1 RES1    0.0000
     74 H12        5.0323    6.7508    9.3778 H         1 RES1    0.0000
     75 H13        3.6419   10.8716    2.5707 H         1 RES1    0.0000
     76 H14        4.8628   11.5681    3.2268 H         1 RES1    0.0000
     77 H15        1.8337   14.4243    0.6375 H         1 RES1    0.0000
     78 H16        2.6905   14.9296    1.8280 H         1 RES1    0.0000
     79 H17        1.2989   14.2954    2.0880 H         1 RES1    0.0000
     80 H18       -2.2596   11.6385    8.1528 H         1 RES1    0.0000
     81 H19       -1.8030   10.3917    7.3505 H         1 RES1    0.0000
     82 H20       -0.7519   11.4075    7.8700 H         1 RES1    0.0000
     83 H21       -1.2958   14.2622    4.3324 H         1 RES1    0.0000
     84 H22       14.0594    3.3302    6.2929 H         2 RES2    0.0000
     85 H23       -1.6864   14.9217    2.1319 H         1 RES1    0.0000
     86 H24       -1.6195   13.3642    0.3901 H         1 RES1    0.0000
     87 H25       -1.0463   11.1361    0.8711 H         1 RES1    0.0000
     88 H26       -0.7505   10.4547    3.0712 H         1 RES1    0.0000
     89 H27       10.2565    6.1800    5.6312 H         2 RES2    0.0000
     90 H28        9.7288    3.3956    5.6403 H         2 RES2    0.0000
     91 H29       11.6780    4.5842    7.2800 H         2 RES2    0.0000
     92 H30       12.4871    3.1559    5.0137 H         2 RES2    0.0000
     93 H31       12.5433    5.9780    5.2328 H         2 RES2    0.0000
     94 H32        7.5365    3.7679    9.6387 H         2 RES2    0.0000
     95 H33        8.0580    5.1517    9.1695 H         2 RES2    0.0000
     96 H34        6.7777    4.5490    8.5336 H         2 RES2    0.0000
     97 H35       11.3562    1.1272   10.0153 H         2 RES2    0.0000
     98 H36       10.7098    0.6771    8.6787 H         2 RES2    0.0000
     99 H37       12.2542    0.7299    8.8144 H         2 RES2    0.0000
    100 H38       13.0822    4.5603    2.8795 H         2 RES2    0.0000
    101 H39       14.2402    5.0227    3.8022 H         2 RES2    0.0000
    102 H40       14.0829    8.0805    0.3360 H         2 RES2    0.0000
    103 H41       14.5035    8.6610    1.7118 H         2 RES2    0.0000
    104 H42       13.0034    8.4231    1.3961 H         2 RES2    0.0000
    105 H43        6.4047    7.4894    6.1357 H         2 RES2    0.0000
    106 H44        6.6159    6.0233    5.6745 H         2 RES2    0.0000
    107 H45        7.7662    6.7875    6.3813 H         2 RES2    0.0000
    108 H46        8.9544    5.0838    1.8809 H         2 RES2    0.0000
    109 H47       10.0032    5.5390   -0.1395 H         2 RES2    0.0000
    110 H48       10.7850    7.6791   -0.6224 H         2 RES2    0.0000
    111 H49       10.5434    9.4103    0.9691 H         2 RES2    0.0000
    112 H50        9.6408    8.9031    3.0575 H         2 RES2    0.0000
@<TRIPOS>BOND
     1    1   23 1
     2    2   24 1
     3    3   28 2
     4    4   25 1
     5    5   30 2
     6    6   26 1
     7    7   32 1
     8    8   33 2
     9    9   21 1
    10   10   35 2
    11   11   43 1
    12   12   44 1
    13   13   48 2
    14   14   45 1
    15   15   50 2
    16   16   46 1
    17   17   52 1
    18   18   53 2
    19   19   22 1
    20   20   55 2
    21   21   35 1
    22   22   55 1
    23   23    9 1
    24   24   23 1
    25   25   24 1
    26   26   25 1
    27   27    1 1
    28   28    2 1
    29   29   28 1
    30   30    4 1
    31   31   30 1
    32   32   27 1
    33   33    7 1
    34   34   33 1
    35   35   36 1
    36   36   80 1
    37   37   21 1
    38   38   37 ar
    39   39   38 ar
    40   40   39 ar
    41   41   40 ar
    42   42   37 ar
    43   43   19 1
    44   44   43 1
    45   45   44 1
    46   46   45 1
    47   47   11 1
    48   48   12 1
    49   49   48 1
    50   50   14 1
    51   51   50 1
    52   52   47 1
    53   53   17 1
    54   54   53 1
    55   55   56 1
    56   56  105 1
    57   57   22 1
    58   58   57 ar
    59   59   58 ar
    60   60   59 ar
    61   61   60 ar
    62   62   57 ar
    63   63   23 1
    64   64   24 1
    65   65   25 1
    66   66   26 1
    67   67   27 1
    68   68    6 1
    69   69   29 1
    70   70   29 1
    71   71   29 1
    72   72   31 1
    73   73   31 1
    74   74   31 1
    75   75   32 1
    76   76   32 1
    77   77   34 1
    78   78   34 1
    79   79   34 1
    80   81   36 1
    81   82   36 1
    82   83   38 1
    83   84   16 1
    84   85   39 1
    85   86   40 1
    86   87   41 1
    87   88   42 1
    88   89   43 1
    89   90   44 1
    90   91   45 1
    91   92   46 1
    92   93   47 1
    93   94   49 1
    94   95   49 1
    95   96   49 1
    96   97   51 1
    97   98   51 1
    98   99   51 1
    99  100   52 1
   100  101   52 1
   101  102   54 1
   102  103   54 1
   103  104   54 1
   104  106   56 1
   105  107   56 1
   106  108   58 1
   107  109   59 1
   108  110   60 1
   109  111   61 1
   110  112   62 1
   111   26   27 1
   112   41   42 ar
   113   46   47 1
   114   61   62 ar
@<TRIPOS>SUBSTRUCTURE
     1 RES1 1
     2 RES2 11

@<TRIPOS>CRYSIN
   8.6550   11.5430   12.7020  63.8800  70.6400  89.4200   1 1

