# MOL2 file generated by ConQuest
# Please check atom types

@<TRIPOS>MOLECULE
RELFOF
    33    35     1
SMALL
NO_CHARGES
****
Generated from CSD

@<TRIPOS>ATOM
      1 O1         2.4520    8.4712   11.9028 O.2       1 RES1    0.0000
      2 O2         1.9676    9.6918   13.6055 O.2       1 RES1    0.0000
      3 N1         1.9667    8.6200   13.0118 N.pl3     1 RES1    0.0000
      4 C1        -0.3291    4.0895   15.6419 C.ar      1 RES1    0.0000
      5 C2         0.3266    3.3293   16.6663 C.ar      1 RES1    0.0000
      6 C3         1.7194    3.4750   17.0412 C.ar      1 RES1    0.0000
      7 C4         2.1943    2.7509   18.1093 C.ar      1 RES1    0.0000
      8 H1         3.0973    2.8713   18.3775 H         1 RES1    0.0000
      9 C5         1.3978    1.8441   18.8145 C.ar      1 RES1    0.0000
     10 H2         1.7567    1.3747   19.5578 H         1 RES1    0.0000
     11 C6         0.1094    1.6347   18.4333 C.ar      1 RES1    0.0000
     12 H3        -0.4187    0.9919   18.8931 H         1 RES1    0.0000
     13 C7        -0.4457    2.3581   17.3692 C.ar      1 RES1    0.0000
     14 C8        -1.7961    2.1211   16.9848 C.ar      1 RES1    0.0000
     15 H4        -2.3042    1.4629   17.4448 H         1 RES1    0.0000
     16 C9        -2.3646    2.8122   15.9832 C.ar      1 RES1    0.0000
     17 H5        -3.2597    2.6243   15.7261 H         1 RES1    0.0000
     18 C10       -1.6316    3.8187   15.3126 C.ar      1 RES1    0.0000
     19 H6        -2.0506    4.3173   14.6216 H         1 RES1    0.0000
     20 C11        0.2884    5.2647   14.9428 C.ar      1 RES1    0.0000
     21 C12        0.8906    5.1389   13.6955 C.ar      1 RES1    0.0000
     22 H7         0.9233    4.2858   13.2770 H         1 RES1    0.0000
     23 C13        1.4416    6.2282   13.0548 C.ar      1 RES1    0.0000
     24 H8         1.8600    6.1338   12.2078 H         1 RES1    0.0000
     25 C14        1.3709    7.4571   13.6733 C.ar      1 RES1    0.0000
     26 C15        0.7537    7.6289   14.8941 C.ar      1 RES1    0.0000
     27 H9         0.7005    8.4896   15.2939 H         1 RES1    0.0000
     28 C16        0.2165    6.5281   15.5224 C.ar      1 RES1    0.0000
     29 H10       -0.2107    6.6324   16.3656 H         1 RES1    0.0000
     30 C17        2.7076    4.3043   16.2897 C.3       1 RES1    0.0000
     31 H11        3.5992    4.1800   16.6764 H         1 RES1    0.0000
     32 H12        2.4545    5.2493   16.3504 H         1 RES1    0.0000
     33 H13        2.7176    4.0289   15.3495 H         1 RES1    0.0000
@<TRIPOS>BOND
     1    1    3 2
     2    2    3 2
     3    3   25 1
     4    4    5 ar
     5    5    6 ar
     6    6    7 ar
     7    7    8 1
     8    9    7 ar
     9   10    9 1
    10   11    9 ar
    11   12   11 1
    12   13    5 ar
    13   14   13 ar
    14   15   14 1
    15   16   14 ar
    16   17   16 1
    17   18    4 ar
    18   19   18 1
    19   20    4 1
    20   21   20 ar
    21   22   21 1
    22   23   21 ar
    23   24   23 1
    24   25   23 ar
    25   26   25 ar
    26   27   26 1
    27   28   20 ar
    28   29   28 1
    29   30    6 1
    30   31   30 1
    31   32   30 1
    32   33   30 1
    33   11   13 ar
    34   16   18 ar
    35   26   28 ar
@<TRIPOS>SUBSTRUCTURE
     1 RES1 1

@<TRIPOS>CRYSIN
  13.4200    7.6711   25.2750  90.0000  90.0000  90.0000  61 1

