# MOL2 file generated by ConQuest
# Please check atom types

@<TRIPOS>MOLECULE
RELJAU
    49    51     1
SMALL
NO_CHARGES
****
Generated from CSD

@<TRIPOS>ATOM
      1 C1         6.4365    5.5508    5.4757 C.3       1 RES1    0.0000
      2 C2         7.6194    6.3782    5.9221 C.3       1 RES1    0.0000
      3 H1         8.1228    6.7431    5.1520 H         1 RES1    0.0000
      4 H2         7.3450    7.1196    6.5177 H         1 RES1    0.0000
      5 C3         8.4074    5.3407    6.6565 C.2       1 RES1    0.0000
      6 C4         9.5520    5.6128    7.5509 C.ar      1 RES1    0.0000
      7 C5         9.9400    4.6920    8.5184 C.ar      1 RES1    0.0000
      8 H3         9.4672    3.8741    8.6146 H         1 RES1    0.0000
      9 C6        11.0264    4.9720    9.3478 C.ar      1 RES1    0.0000
     10 H4        11.2948    4.3401   10.0044 H         1 RES1    0.0000
     11 C7        11.7108    6.1592    9.2202 C.ar      1 RES1    0.0000
     12 H5        12.4462    6.3464    9.7923 H         1 RES1    0.0000
     13 C8        11.3272    7.0856    8.2577 C.ar      1 RES1    0.0000
     14 H6        11.8035    7.9024    8.1662 H         1 RES1    0.0000
     15 C9        10.2497    6.8140    7.4331 C.ar      1 RES1    0.0000
     16 H7         9.9829    7.4515    6.7819 H         1 RES1    0.0000
     17 N1         8.0256    4.1333    6.4185 N.2       1 RES1    0.0000
     18 O1         6.9188    4.1976    5.5055 O.3       1 RES1    0.0000
     19 C10        5.8943    5.9028    4.0874 C.3       1 RES1    0.0000
     20 H8         5.7139    6.8861    4.0617 H         1 RES1    0.0000
     21 O2         6.8743    5.6016    3.0919 O.3       1 RES1    0.0000
     22 C11        7.2663    6.6280    2.2809 C.2       1 RES1    0.0000
     23 O3         6.9328    7.7610    2.4361 O.2       1 RES1    0.0000
     24 C12        8.1770    6.1212    1.2094 C.3       1 RES1    0.0000
     25 H9         7.7683    6.2765    0.3330 H         1 RES1    0.0000
     26 H10        8.3264    5.1608    1.3340 H         1 RES1    0.0000
     27 H11        9.0342    6.5939    1.2596 H         1 RES1    0.0000
     28 C13        4.6155    5.1764    3.7260 C.3       1 RES1    0.0000
     29 H12        4.8139    4.2356    3.4533 H         1 RES1    0.0000
     30 O4         4.1150    5.9341    2.5981 O.3       1 RES1    0.0000
     31 C14        3.4553    5.3050    1.5970 C.2       1 RES1    0.0000
     32 O5         3.2195    4.1216    1.5962 O.2       1 RES1    0.0000
     33 C15        3.0828    6.2805    0.5353 C.3       1 RES1    0.0000
     34 H13        3.7948    6.3185   -0.1377 H         1 RES1    0.0000
     35 H14        2.9630    7.1677    0.9340 H         1 RES1    0.0000
     36 H15        2.2466    5.9978    0.1098 H         1 RES1    0.0000
     37 C16        3.6180    5.1960    4.8614 C.3       1 RES1    0.0000
     38 H16        3.1933    6.0983    4.9343 H         1 RES1    0.0000
     39 O6         2.6104    4.1842    4.6414 O.3       1 RES1    0.0000
     40 C17        1.4510    4.5686    4.0332 C.2       1 RES1    0.0000
     41 O7         1.1750    5.7178    3.8289 O.2       1 RES1    0.0000
     42 C18        0.6509    3.3813    3.6345 C.3       1 RES1    0.0000
     43 H17       -0.2970    3.6277    3.5854 H         1 RES1    0.0000
     44 H18        0.7694    2.6695    4.2980 H         1 RES1    0.0000
     45 H19        0.9517    3.0645    2.7574 H         1 RES1    0.0000
     46 C19        4.2946    4.8250    6.1738 C.3       1 RES1    0.0000
     47 H20        3.6417    4.8937    6.9158 H         1 RES1    0.0000
     48 H21        4.6147    3.8892    6.1307 H         1 RES1    0.0000
     49 O8         5.3991    5.7011    6.4211 O.3       1 RES1    0.0000
@<TRIPOS>BOND
     1    1    2 1
     2    2    3 1
     3    4    2 1
     4    5    2 1
     5    6    5 1
     6    7    6 ar
     7    8    7 1
     8    9    7 ar
     9   10    9 1
    10   11    9 ar
    11   12   11 1
    12   13   11 ar
    13   14   13 1
    14   15    6 ar
    15   16   15 1
    16   17    5 2
    17   18    1 1
    18   19    1 1
    19   20   19 1
    20   21   19 1
    21   22   21 1
    22   23   22 2
    23   24   22 1
    24   25   24 1
    25   26   24 1
    26   27   24 1
    27   28   19 1
    28   29   28 1
    29   30   28 1
    30   31   30 1
    31   32   31 2
    32   33   31 1
    33   34   33 1
    34   35   33 1
    35   36   33 1
    36   37   28 1
    37   38   37 1
    38   39   37 1
    39   40   39 1
    40   41   40 2
    41   42   40 1
    42   43   42 1
    43   44   42 1
    44   45   42 1
    45   46   37 1
    46   47   46 1
    47   48   46 1
    48   49    1 1
    49   13   15 ar
    50   17   18 1
    51   46   49 1
@<TRIPOS>SUBSTRUCTURE
     1 RES1 1

@<TRIPOS>CRYSIN
   9.0722    5.5871   18.6200  90.0000  92.2230  90.0000   4 1

