# MOL2 file generated by ConQuest
# Please check atom types

@<TRIPOS>MOLECULE
RELQIJ
    50    50     1
SMALL
NO_CHARGES
****
Generated from CSD

@<TRIPOS>ATOM
      1 O1         0.0624    2.4467   -0.0736 O.2       1 RES1    0.0000
      2 O2        -0.9896    2.1504   -3.1109 O.2       1 RES1    0.0000
      3 O3        -0.5699    2.5206    3.1424 O.2       1 RES1    0.0000
      4 N1        -1.2284    2.3424    0.0337 N.pl3     1 RES1    0.0000
      5 N2         0.3764    3.9322   -3.3904 N.am      1 RES1    0.0000
      6 H1         0.4620    4.7464   -3.1537 H         1 RES1    0.0000
      7 N3         0.8206    0.7596    3.4625 N.am      1 RES1    0.0000
      8 H2         0.9240   -0.0019    3.2585 H         1 RES1    0.0000
      9 C1        -2.0208    3.1363   -0.7403 C.ar      1 RES1    0.0000
     10 C2        -3.4013    3.0165   -0.5986 C.ar      1 RES1    0.0000
     11 H3        -3.9114    3.5785   -1.1360 H         1 RES1    0.0000
     12 C3        -3.9500    2.1278    0.2820 C.ar      1 RES1    0.0000
     13 H4        -4.9127    2.0554    0.3507 H         1 RES1    0.0000
     14 C4        -3.1196    1.3387    1.0177 C.ar      1 RES1    0.0000
     15 H5        -3.4862    0.6665    1.6670 H         1 RES1    0.0000
     16 C5        -1.7608    1.4372    0.9066 C.ar      1 RES1    0.0000
     17 C6        -1.3319    4.0410   -1.6815 C.3       1 RES1    0.0000
     18 H6        -2.0077    4.6233   -2.1015 H         1 RES1    0.0000
     19 H7        -0.7035    4.5696   -1.2324 H         1 RES1    0.0000
     20 C7        -0.6134    3.2717   -2.7904 C.2       1 RES1    0.0000
     21 C8         1.1099    3.4892   -4.5952 C.3       1 RES1    0.0000
     22 C9         1.7824    2.1445   -4.3442 C.3       1 RES1    0.0000
     23 H8         1.0873    1.4318   -4.2352 H         1 RES1    0.0000
     24 H9         2.3306    1.9012   -5.1504 H         1 RES1    0.0000
     25 H10        2.3222    2.1570   -3.5072 H         1 RES1    0.0000
     26 C10        2.1793    4.5398   -4.8542 C.3       1 RES1    0.0000
     27 H11        1.7333    5.4227   -4.9842 H         1 RES1    0.0000
     28 H12        2.6513    4.3306   -5.6926 H         1 RES1    0.0000
     29 H13        2.8109    4.5836   -4.0102 H         1 RES1    0.0000
     30 C11        0.1527    3.3969   -5.7681 C.3       1 RES1    0.0000
     31 H14       -0.6388    2.7587   -5.6018 H         1 RES1    0.0000
     32 H15       -0.2123    4.2926   -5.9441 H         1 RES1    0.0000
     33 H16        0.6427    3.1233   -6.6232 H         1 RES1    0.0000
     34 C12       -0.7924    0.6212    1.6923 C.3       1 RES1    0.0000
     35 H17       -1.2641   -0.1224    2.0764 H         1 RES1    0.0000
     36 H18       -0.0093    0.2756    1.1109 H         1 RES1    0.0000
     37 C13       -0.1601    1.4065    2.8343 C.2       1 RES1    0.0000
     38 C14        1.4962    1.2103    4.6987 C.3       1 RES1    0.0000
     39 C15        0.5022    1.2858    5.8329 C.3       1 RES1    0.0000
     40 H19       -0.2694    1.9165    5.6283 H         1 RES1    0.0000
     41 H20        0.9433    1.5326    6.6567 H         1 RES1    0.0000
     42 H21        0.0954    0.4083    6.0042 H         1 RES1    0.0000
     43 C16        2.5634    0.1677    5.0051 C.3       1 RES1    0.0000
     44 H22        2.1916   -0.6991    5.1183 H         1 RES1    0.0000
     45 H23        3.0462    0.3995    5.8673 H         1 RES1    0.0000
     46 H24        3.1907    0.1419    4.2478 H         1 RES1    0.0000
     47 C17        2.1677    2.5612    4.4667 C.3       1 RES1    0.0000
     48 H25        1.4656    3.2775    4.3079 H         1 RES1    0.0000
     49 H26        2.6379    2.7934    5.2972 H         1 RES1    0.0000
     50 H27        2.8019    2.5237    3.7168 H         1 RES1    0.0000
@<TRIPOS>BOND
     1    1    4 1
     2    2   20 2
     3    3   37 2
     4    4    9 ar
     5    5    6 1
     6    7    8 1
     7    9   10 ar
     8   10   11 1
     9   12   10 ar
    10   13   12 1
    11   14   12 ar
    12   15   14 1
    13   16    4 ar
    14   17    9 1
    15   18   17 1
    16   19   17 1
    17   20    5 1
    18   21    5 1
    19   22   21 1
    20   23   22 1
    21   24   22 1
    22   25   22 1
    23   26   21 1
    24   27   26 1
    25   28   26 1
    26   29   26 1
    27   30   21 1
    28   31   30 1
    29   32   30 1
    30   33   30 1
    31   34   16 1
    32   35   34 1
    33   36   34 1
    34   37    7 1
    35   38    7 1
    36   39   38 1
    37   40   39 1
    38   41   39 1
    39   42   39 1
    40   43   38 1
    41   44   43 1
    42   45   43 1
    43   46   43 1
    44   47   38 1
    45   48   47 1
    46   49   47 1
    47   50   47 1
    48   14   16 ar
    49   17   20 1
    50   34   37 1
@<TRIPOS>SUBSTRUCTURE
     1 RES1 1

@<TRIPOS>CRYSIN
   7.0703    9.3730   14.3550  94.0160 102.5930  90.1400   2 1

