# MOL2 file generated by ConQuest
# Please check atom types

@<TRIPOS>MOLECULE
REMKEC
    41    43     1
SMALL
NO_CHARGES
****
Generated from CSD

@<TRIPOS>ATOM
      1 C1         5.6628    3.1843   16.2792 C.ar      1 RES1    0.0000
      2 C2         4.6968    3.7300   17.1415 C.ar      1 RES1    0.0000
      3 H1         4.1026    4.3698   16.8230 H         1 RES1    0.0000
      4 C3         4.6237    3.3283   18.4333 C.ar      1 RES1    0.0000
      5 H2         3.9867    3.7041   18.9967 H         1 RES1    0.0000
      6 C4         5.4842    2.3671   18.9200 C.ar      1 RES1    0.0000
      7 H3         5.4163    2.0744   19.7986 H         1 RES1    0.0000
      8 C5         6.4614    1.8459   18.0707 C.ar      1 RES1    0.0000
      9 C6         6.5438    2.2251   16.7724 C.ar      1 RES1    0.0000
     10 H4         7.1844    1.8463   16.2139 H         1 RES1    0.0000
     11 C7         5.6962    3.6678   14.8600 C.2       1 RES1    0.0000
     12 C8         6.4775    2.9204   13.8393 C.3       1 RES1    0.0000
     13 H5         6.3105    1.9721   13.9569 H         1 RES1    0.0000
     14 H6         7.4216    3.0724   14.0026 H         1 RES1    0.0000
     15 C9         6.1781    3.2809   12.4152 C.3       1 RES1    0.0000
     16 H7         6.2925    4.2469   12.2943 H         1 RES1    0.0000
     17 C10        6.9969    2.5569   11.4010 C.ar      1 RES1    0.0000
     18 C11        6.1926    1.7230   10.6416 C.ar      1 RES1    0.0000
     19 C12        4.7789    1.8745   11.0972 C.3       1 RES1    0.0000
     20 H8         4.5032    1.0415   11.5349 H         1 RES1    0.0000
     21 C13        6.7190    0.9516    9.6225 C.ar      1 RES1    0.0000
     22 H9         6.1710    0.3950    9.1146 H         1 RES1    0.0000
     23 C14        8.0691    1.0233    9.3775 C.ar      1 RES1    0.0000
     24 H10        8.4377    0.5040    8.6981 H         1 RES1    0.0000
     25 C15        8.8746    1.8315   10.1092 C.ar      1 RES1    0.0000
     26 H11        9.7848    1.8602    9.9197 H         1 RES1    0.0000
     27 C16        8.3671    2.6110   11.1299 C.ar      1 RES1    0.0000
     28 H12        8.9269    3.1647   11.6280 H         1 RES1    0.0000
     29 C17        3.7915    2.1949   10.0438 C.3       1 RES1    0.0000
     30 H13        4.0425    3.0380    9.6356 H         1 RES1    0.0000
     31 H14        3.8425    1.5121    9.3579 H         1 RES1    0.0000
     32 C18        2.3888    2.2954   10.4962 C.2       1 RES1    0.0000
     33 H15        2.1938    2.9515   11.1266 H         1 RES1    0.0000
     34 C19        1.4059    1.5494   10.0912 C.2       1 RES1    0.0000
     35 H16        1.5563    0.8818    9.4608 H         1 RES1    0.0000
     36 H17        0.5497    1.6833   10.4309 H         1 RES1    0.0000
     37 N1         7.3637    0.8273   18.5982 N.pl3     1 RES1    0.0000
     38 O1         7.1993    0.4055   19.7137 O.2       1 RES1    0.0000
     39 O2         8.2874    0.4830   17.8927 O.2       1 RES1    0.0000
     40 O3         5.1046    4.6763   14.5546 O.2       1 RES1    0.0000
     41 O4         4.8183    2.9170   12.0902 O.3       1 RES1    0.0000
@<TRIPOS>BOND
     1    1    2 ar
     2    2    3 1
     3    4    2 ar
     4    5    4 1
     5    6    4 ar
     6    7    6 1
     7    8    6 ar
     8    9    1 ar
     9   10    9 1
    10   11    1 1
    11   12   11 1
    12   13   12 1
    13   14   12 1
    14   15   12 1
    15   16   15 1
    16   17   15 1
    17   18   17 ar
    18   19   18 1
    19   20   19 1
    20   21   18 ar
    21   22   21 1
    22   23   21 ar
    23   24   23 1
    24   25   23 ar
    25   26   25 1
    26   27   17 ar
    27   28   27 1
    28   29   19 1
    29   30   29 1
    30   31   29 1
    31   32   29 1
    32   33   32 1
    33   34   32 2
    34   35   34 1
    35   36   34 1
    36   37    8 1
    37   38   37 2
    38   39   37 2
    39   40   11 2
    40   41   15 1
    41    8    9 ar
    42   19   41 1
    43   25   27 ar
@<TRIPOS>SUBSTRUCTURE
     1 RES1 1

@<TRIPOS>CRYSIN
  21.2300    4.7820   16.4500  90.0000  96.8830  90.0000   5 1

