# MOL2 file generated by ConQuest
# Please check atom types

@<TRIPOS>MOLECULE
REMTEL
    54    58     1
SMALL
NO_CHARGES
****
Generated from CSD

@<TRIPOS>ATOM
      1 O1         1.4032    4.0062    4.9340 O.3       1 RES1    0.0000
      2 O2         0.7708    6.6833    2.7329 O.2       1 RES1    0.0000
      3 O3        -1.4558    2.5637    6.0482 O.3       1 RES1    0.0000
      4 O4        -1.5447    5.1611    3.3259 O.3       1 RES1    0.0000
      5 N1        -0.2455    4.8975    3.7219 N.am      1 RES1    0.0000
      6 C1         0.0255    3.7971    4.6322 C.3       1 RES1    0.0000
      7 C2         1.9737    5.0964    4.1628 C.3       1 RES1    0.0000
      8 C3         0.7916    5.6944    3.4455 C.2       1 RES1    0.0000
      9 C4        -0.8419    3.8065    5.8937 C.2       1 RES1    0.0000
     10 C5        -1.1090    1.7853    4.9600 C.ar      1 RES1    0.0000
     11 C6        -1.5488    0.4941    4.7585 C.ar      1 RES1    0.0000
     12 H1        -2.1181    0.0739    5.3616 H         1 RES1    0.0000
     13 C7        -1.1052   -0.1426    3.6210 C.ar      1 RES1    0.0000
     14 H2        -1.3795   -1.0152    3.4516 H         1 RES1    0.0000
     15 C8        -0.2569    0.4881    2.7230 C.ar      1 RES1    0.0000
     16 H3         0.0251    0.0369    1.9599 H         1 RES1    0.0000
     17 C9         0.1728    1.7783    2.9508 C.ar      1 RES1    0.0000
     18 H4         0.7455    2.2003    2.3515 H         1 RES1    0.0000
     19 C10       -0.2637    2.4309    4.0881 C.ar      1 RES1    0.0000
     20 C11        2.6006    6.0897    5.1194 C.3       1 RES1    0.0000
     21 H5         1.9472    6.3669    5.7666 H         1 RES1    0.0000
     22 H6         2.9094    6.8547    4.6292 H         1 RES1    0.0000
     23 H7         3.3418    5.6767    5.5694 H         1 RES1    0.0000
     24 C12        2.9863    4.5381    3.1777 C.3       1 RES1    0.0000
     25 H8         3.6779    4.0774    3.6574 H         1 RES1    0.0000
     26 H9         3.3713    5.2568    2.6722 H         1 RES1    0.0000
     27 H10        2.5475    3.9254    2.5822 H         1 RES1    0.0000
     28 C13       -0.9560    4.7947    6.7594 C.2       1 RES1    0.0000
     29 H11       -0.5316    5.5840    6.5125 H         1 RES1    0.0000
     30 C14       -1.6499    4.8428    8.0523 C.ar      1 RES1    0.0000
     31 C15       -1.3246    5.8615    8.9406 C.ar      1 RES1    0.0000
     32 H12       -0.7328    6.5270    8.6744 H         1 RES1    0.0000
     33 C16       -1.8648    5.9036   10.2117 C.ar      1 RES1    0.0000
     34 H13       -1.6182    6.5829   10.7970 H         1 RES1    0.0000
     35 C17       -2.7614    4.9496   10.6132 C.ar      1 RES1    0.0000
     36 H14       -3.1197    4.9728   11.4711 H         1 RES1    0.0000
     37 C18       -3.1257    3.9594    9.7391 C.ar      1 RES1    0.0000
     38 H15       -3.7486    3.3215   10.0043 H         1 RES1    0.0000
     39 C19       -2.5816    3.8927    8.4641 C.ar      1 RES1    0.0000
     40 H16       -2.8383    3.2119    7.8845 H         1 RES1    0.0000
     41 C20       -1.7771    4.6760    1.9684 C.3       1 RES1    0.0000
     42 H17       -1.8605    3.7098    1.9656 H         1 RES1    0.0000
     43 H18       -1.0390    4.9242    1.3912 H         1 RES1    0.0000
     44 C21       -3.0474    5.3102    1.4900 C.ar      1 RES1    0.0000
     45 C22       -3.1853    6.6718    1.4610 C.ar      1 RES1    0.0000
     46 H19       -2.4906    7.2130    1.7598 H         1 RES1    0.0000
     47 C23       -4.3420    7.2425    0.9929 C.ar      1 RES1    0.0000
     48 H20       -4.4273    8.1690    0.9795 H         1 RES1    0.0000
     49 C24       -5.3689    6.4617    0.5457 C.ar      1 RES1    0.0000
     50 H21       -6.1512    6.8524    0.2317 H         1 RES1    0.0000
     51 C25       -5.2407    5.1143    0.5620 C.ar      1 RES1    0.0000
     52 H22       -5.9327    4.5791    0.2470 H         1 RES1    0.0000
     53 C26       -4.0920    4.5352    1.0418 C.ar      1 RES1    0.0000
     54 H23       -4.0189    3.6085    1.0637 H         1 RES1    0.0000
@<TRIPOS>BOND
     1    1    6 1
     2    2    8 2
     3    3    9 1
     4    4    5 1
     5    5    6 1
     6    6    9 1
     7    7    1 1
     8    8    5 1
     9    9   28 2
    10   10    3 1
    11   11   10 ar
    12   12   11 1
    13   13   11 ar
    14   14   13 1
    15   15   13 ar
    16   16   15 1
    17   17   15 ar
    18   18   17 1
    19   19    6 1
    20   20    7 1
    21   21   20 1
    22   22   20 1
    23   23   20 1
    24   24    7 1
    25   25   24 1
    26   26   24 1
    27   27   24 1
    28   28   29 1
    29   30   28 1
    30   31   30 ar
    31   32   31 1
    32   33   31 ar
    33   34   33 1
    34   35   33 ar
    35   36   35 1
    36   37   35 ar
    37   38   37 1
    38   39   30 ar
    39   40   39 1
    40   41    4 1
    41   42   41 1
    42   43   41 1
    43   44   41 1
    44   45   44 ar
    45   46   45 1
    46   47   45 ar
    47   48   47 1
    48   49   47 ar
    49   50   49 1
    50   51   49 ar
    51   52   51 1
    52   53   44 ar
    53   54   53 1
    54    7    8 1
    55   10   19 ar
    56   17   19 ar
    57   37   39 ar
    58   51   53 ar
@<TRIPOS>SUBSTRUCTURE
     1 RES1 1

@<TRIPOS>CRYSIN
  11.0525   11.1109   11.4881 115.3230  99.9950 110.9860   2 1

