# MOL2 file generated by ConQuest
# Please check atom types

@<TRIPOS>MOLECULE
REMTUB
   110   120     2
SMALL
NO_CHARGES
****
Generated from CSD

@<TRIPOS>ATOM
      1 O1         7.6973    4.5526   11.0017 O.3       1 RES1    0.0000
      2 O2         7.9138    7.0347    9.6148 O.2       1 RES1    0.0000
      3 O3         5.3700    7.0054   12.0503 O.3       1 RES1    0.0000
      4 O4         4.4552    3.8615   12.8210 O.3       1 RES1    0.0000
      5 O5         3.7689    5.0093   10.8851 O.3       1 RES1    0.0000
      6 N1         7.0296    5.7394   11.2816 N.am      1 RES1    0.0000
      7 C1         9.2308    2.1537   12.0155 C.ar      1 RES1    0.0000
      8 H1         8.5467    2.2315   12.6403 H         1 RES1    0.0000
      9 C2         9.8117    0.9274   11.7973 C.ar      1 RES1    0.0000
     10 H2         9.5196    0.1843   12.2754 H         1 RES1    0.0000
     11 C3        10.8025    0.7975   10.8947 C.ar      1 RES1    0.0000
     12 H3        11.1937   -0.0343   10.7565 H         1 RES1    0.0000
     13 C4        11.2332    1.8684   10.1873 C.ar      1 RES1    0.0000
     14 H4        11.9139    1.7734    9.5613 H         1 RES1    0.0000
     15 C5        10.6504    3.1133   10.4069 C.ar      1 RES1    0.0000
     16 H5        10.9449    3.8513    9.9243 H         1 RES1    0.0000
     17 C6         9.6435    3.2604   11.3287 C.ar      1 RES1    0.0000
     18 C7         9.0356    4.5967   11.5659 C.3       1 RES1    0.0000
     19 H6         8.9961    4.7864   12.5165 H         1 RES1    0.0000
     20 H7         9.5618    5.2887   11.1345 H         1 RES1    0.0000
     21 C8         7.1078    6.8349   10.4960 C.2       1 RES1    0.0000
     22 C9         6.0149    7.7627   10.9827 C.3       1 RES1    0.0000
     23 C10        6.6047    9.0146   11.5961 C.3       1 RES1    0.0000
     24 H8         5.9011    9.5495   11.9703 H         1 RES1    0.0000
     25 H9         7.0634    9.5171   10.9189 H         1 RES1    0.0000
     26 H10        7.2239    8.7706   12.2880 H         1 RES1    0.0000
     27 C11        5.0262    8.0493    9.8744 C.3       1 RES1    0.0000
     28 H11        4.6784    7.2225    9.5340 H         1 RES1    0.0000
     29 H12        5.4678    8.5264    9.1675 H         1 RES1    0.0000
     30 H13        4.3060    8.5827   10.2186 H         1 RES1    0.0000
     31 C12        5.8689    5.6858   12.1491 C.3       1 RES1    0.0000
     32 C13        6.0971    5.2939   13.5600 C.ar      1 RES1    0.0000
     33 C14        6.9350    5.8078   14.5276 C.ar      1 RES1    0.0000
     34 H14        7.5410    6.4816   14.3184 H         1 RES1    0.0000
     35 C15        6.8596    5.3044   15.8143 C.ar      1 RES1    0.0000
     36 H15        7.4329    5.6238   16.4732 H         1 RES1    0.0000
     37 C16        5.9314    4.3294   16.1192 C.ar      1 RES1    0.0000
     38 H16        5.8642    4.0253   16.9957 H         1 RES1    0.0000
     39 C17        5.1085    3.7975   15.1625 C.ar      1 RES1    0.0000
     40 H17        4.4973    3.1273   15.3687 H         1 RES1    0.0000
     41 C18        5.2225    4.2932   13.8843 C.ar      1 RES1    0.0000
     42 C19        4.8316    4.6245   11.6873 C.3       1 RES1    0.0000
     43 C20        4.7521    4.0456   10.3533 C.3       1 RES1    0.0000
     44 H18        5.3836    4.4373    9.7139 H         1 RES1    0.0000
     45 C21        4.2890    2.6949    9.9828 C.ar      1 RES1    0.0000
     46 C22        3.3758    1.9523   10.6823 C.ar      1 RES1    0.0000
     47 H19        3.0147    2.2892   11.4705 H         1 RES1    0.0000
     48 C23        2.9842    0.6961   10.2250 C.ar      1 RES1    0.0000
     49 H20        2.3739    0.1929   10.7141 H         1 RES1    0.0000
     50 C24        3.4932    0.2093    9.0689 C.ar      1 RES1    0.0000
     51 H21        3.2204   -0.6233    8.7579 H         1 RES1    0.0000
     52 C25        4.3996    0.9295    8.3633 C.ar      1 RES1    0.0000
     53 H22        4.7491    0.5931    7.5692 H         1 RES1    0.0000
     54 C26        4.7962    2.1630    8.8309 C.ar      1 RES1    0.0000
     55 H23        5.4280    2.6477    8.3490 H         1 RES1    0.0000
     56 O6         1.8056    7.9746   14.7769 O.3       2 RES2    0.0000
     57 O7         2.0116    5.5073   16.2043 O.2       2 RES2    0.0000
     58 O8        -0.6646    5.5906   13.9158 O.3       2 RES2    0.0000
     59 O9        -1.3710    8.7273   12.8893 O.3       2 RES2    0.0000
     60 O10       -2.1175    7.8450   14.9307 O.3       2 RES2    0.0000
     61 N2         1.0749    6.8146   14.5814 N.am      2 RES2    0.0000
     62 C27        3.0348   10.3056   13.6453 C.ar      2 RES2    0.0000
     63 H24        2.2365   10.1482   13.1952 H         2 RES2    0.0000
     64 C28        3.5234   11.5686   13.7070 C.ar      2 RES2    0.0000
     65 H25        3.0602   12.2676   13.3043 H         2 RES2    0.0000
     66 C29        4.6830   11.8083   14.3527 C.ar      2 RES2    0.0000
     67 H26        5.0157   12.6753   14.3958 H         2 RES2    0.0000
     68 C30        5.3748   10.7900   14.9453 C.ar      2 RES2    0.0000
     69 H27        6.1806   10.9591   15.3769 H         2 RES2    0.0000
     70 C31        4.8582    9.4869   14.8943 C.ar      2 RES2    0.0000
     71 H28        5.3093    8.7872   15.3087 H         2 RES2    0.0000
     72 C32        3.6904    9.2558   14.2333 C.ar      2 RES2    0.0000
     73 C33        3.1165    7.8816   14.1525 C.3       2 RES2    0.0000
     74 H29        3.0368    7.5983   13.2284 H         2 RES2    0.0000
     75 H30        3.6777    7.2482   14.6264 H         2 RES2    0.0000
     76 C34        1.1564    5.7386   15.3690 C.2       2 RES2    0.0000
     77 C35       -0.0003    4.8485   14.9662 C.3       2 RES2    0.0000
     78 C36        0.4989    3.5400   14.3852 C.3       2 RES2    0.0000
     79 H31       -0.2480    3.0235   14.0723 H         2 RES2    0.0000
     80 H32        0.9664    3.0464   15.0634 H         2 RES2    0.0000
     81 H33        1.0926    3.7198   13.6533 H         2 RES2    0.0000
     82 C37       -0.9472    4.6637   16.1401 C.3       2 RES2    0.0000
     83 H34       -1.2004    5.5229   16.4853 H         2 RES2    0.0000
     84 H35       -0.5082    4.1589   16.8288 H         2 RES2    0.0000
     85 H36       -1.7307    4.1924   15.8480 H         2 RES2    0.0000
     86 C38       -0.0853    6.8681   13.7190 C.3       2 RES2    0.0000
     87 C39        0.1977    7.1625   12.2854 C.ar      2 RES2    0.0000
     88 C40        1.0643    6.5567   11.3886 C.ar      2 RES2    0.0000
     89 H37        1.5927    5.8376   11.6480 H         2 RES2    0.0000
     90 C41        1.1203    7.0466   10.1106 C.ar      2 RES2    0.0000
     91 H38        1.7051    6.6643    9.4962 H         2 RES2    0.0000
     92 C42        0.3128    8.1084    9.7251 C.ar      2 RES2    0.0000
     93 H39        0.3517    8.4125    8.8473 H         2 RES2    0.0000
     94 C43       -0.5394    8.7170   10.6083 C.ar      2 RES2    0.0000
     95 H40       -1.0708    9.4362   10.3525 H         2 RES2    0.0000
     96 C44       -0.5754    8.2200   11.8843 C.ar      2 RES2    0.0000
     97 C45       -1.0402    8.0371   14.0759 C.3       2 RES2    0.0000
     98 C46       -1.0559    8.7772   15.3324 C.3       2 RES2    0.0000
     99 H41       -0.4451    8.4425   16.0219 H         2 RES2    0.0000
    100 C47       -1.3606   10.2150   15.4077 C.ar      2 RES2    0.0000
    101 C48       -2.4667   10.7934   14.8463 C.ar      2 RES2    0.0000
    102 H42       -3.0817   10.2684   14.3875 H         2 RES2    0.0000
    103 C49       -2.6735   12.1552   14.9590 C.ar      2 RES2    0.0000
    104 H43       -3.4311   12.5368   14.5777 H         2 RES2    0.0000
    105 C50       -1.7828   12.9448   15.6184 C.ar      2 RES2    0.0000
    106 H44       -1.9301   13.8602   15.6922 H         2 RES2    0.0000
    107 C51       -0.6745   12.3822   16.1716 C.ar      2 RES2    0.0000
    108 H45       -0.0508   12.9163   16.6081 H         2 RES2    0.0000
    109 C52       -0.4746   11.0193   16.0831 C.ar      2 RES2    0.0000
    110 H46        0.2712   10.6387   16.4877 H         2 RES2    0.0000
@<TRIPOS>BOND
     1    1    6 1
     2    2   21 2
     3    3   22 1
     4    4   41 1
     5    5   42 1
     6    6   21 1
     7    7    8 1
     8    9    7 ar
     9   10    9 1
    10   11    9 ar
    11   12   11 1
    12   13   11 ar
    13   14   13 1
    14   15   13 ar
    15   16   15 1
    16   17    7 ar
    17   18    1 1
    18   19   18 1
    19   20   18 1
    20   21   22 1
    21   22   23 1
    22   23   24 1
    23   25   23 1
    24   26   23 1
    25   27   22 1
    26   28   27 1
    27   29   27 1
    28   30   27 1
    29   31    3 1
    30   32   31 1
    31   33   32 ar
    32   34   33 1
    33   35   33 ar
    34   36   35 1
    35   37   35 ar
    36   38   37 1
    37   39   37 ar
    38   40   39 1
    39   41   32 ar
    40   42    4 1
    41   43    5 1
    42   44   43 1
    43   45   43 1
    44   46   45 ar
    45   47   46 1
    46   48   46 ar
    47   49   48 1
    48   50   48 ar
    49   51   50 1
    50   52   50 ar
    51   53   52 1
    52   54   45 ar
    53   55   54 1
    54   56   61 1
    55   57   76 2
    56   58   77 1
    57   59   96 1
    58   60   97 1
    59   61   76 1
    60   62   63 1
    61   64   62 ar
    62   65   64 1
    63   66   64 ar
    64   67   66 1
    65   68   66 ar
    66   69   68 1
    67   70   68 ar
    68   71   70 1
    69   72   62 ar
    70   73   56 1
    71   74   73 1
    72   75   73 1
    73   76   77 1
    74   77   78 1
    75   78   79 1
    76   80   78 1
    77   81   78 1
    78   82   77 1
    79   83   82 1
    80   84   82 1
    81   85   82 1
    82   86   58 1
    83   87   86 1
    84   88   87 ar
    85   89   88 1
    86   90   88 ar
    87   91   90 1
    88   92   90 ar
    89   93   92 1
    90   94   92 ar
    91   95   94 1
    92   96   87 ar
    93   97   59 1
    94   98   60 1
    95   99   98 1
    96  100   98 1
    97  101  100 ar
    98  102  101 1
    99  103  101 ar
   100  104  103 1
   101  105  103 ar
   102  106  105 1
   103  107  105 ar
   104  108  107 1
   105  109  100 ar
   106  110  109 1
   107    6   31 1
   108   15   17 ar
   109   17   18 1
   110   31   42 1
   111   39   41 ar
   112   42   43 1
   113   52   54 ar
   114   61   86 1
   115   70   72 ar
   116   72   73 1
   117   86   97 1
   118   94   96 ar
   119   97   98 1
   120  107  109 ar
@<TRIPOS>SUBSTRUCTURE
     1 RES1 1
     2 RES2 56

@<TRIPOS>CRYSIN
  11.6822   11.7363   17.1486  87.1870  89.1170  81.6970   2 1

