# MOL2 file generated by ConQuest
# Please check atom types

@<TRIPOS>MOLECULE
REMTOU
    64    69     1
SMALL
NO_CHARGES
****
Generated from CSD

@<TRIPOS>ATOM
      1 O1         4.6541    0.4410   -4.4196 O.3       1 RES1    0.0000
      2 O2         4.5135    3.8688    4.2251 O.3       1 RES1    0.0000
      3 O3         2.5650    2.6014    4.2572 O.3       1 RES1    0.0000
      4 O4         2.0458    0.7582    1.2998 O.3       1 RES1    0.0000
      5 N1         5.3446    3.2497    3.2369 N.3       1 RES1    0.0000
      6 C1         2.2232    4.1033    6.4911 C.ar      1 RES1    0.0000
      7 H1         1.5574    4.0725    5.8424 H         1 RES1    0.0000
      8 C2         1.9983    4.7696    7.6747 C.ar      1 RES1    0.0000
      9 H2         1.1806    5.1906    7.8177 H         1 RES1    0.0000
     10 C3         2.9727    4.8196    8.6504 C.ar      1 RES1    0.0000
     11 H3         2.8196    5.2868    9.4394 H         1 RES1    0.0000
     12 C4         4.1823    4.1698    8.4478 C.ar      1 RES1    0.0000
     13 H4         4.8349    4.1829    9.1098 H         1 RES1    0.0000
     14 C5         4.4122    3.5037    7.2590 C.ar      1 RES1    0.0000
     15 H5         5.2223    3.0672    7.1239 H         1 RES1    0.0000
     16 C6         3.4371    3.4800    6.2621 C.ar      1 RES1    0.0000
     17 C7         7.1098    4.4205    4.4894 C.ar      1 RES1    0.0000
     18 H6         6.5099    4.5977    5.1778 H         1 RES1    0.0000
     19 C8         8.4310    4.8231    4.6006 C.ar      1 RES1    0.0000
     20 H7         8.7073    5.2805    5.3631 H         1 RES1    0.0000
     21 C9         9.3442    4.5608    3.6050 C.ar      1 RES1    0.0000
     22 H8        10.2268    4.8435    3.6831 H         1 RES1    0.0000
     23 C10        8.9258    3.8709    2.4889 C.ar      1 RES1    0.0000
     24 H9         9.5338    3.6805    1.8111 H         1 RES1    0.0000
     25 C11        7.6150    3.4595    2.3645 C.ar      1 RES1    0.0000
     26 H10        7.3541    2.9791    1.6125 H         1 RES1    0.0000
     27 C12        6.6802    3.7527    3.3495 C.ar      1 RES1    0.0000
     28 C13        5.1124    5.7745    1.4285 C.ar      1 RES1    0.0000
     29 H11        6.0195    5.5960    1.5318 H         1 RES1    0.0000
     30 C14        4.7072    7.0599    1.1425 C.ar      1 RES1    0.0000
     31 H12        5.3360    7.7400    1.0671 H         1 RES1    0.0000
     32 C15        3.3601    7.3378    0.9651 C.ar      1 RES1    0.0000
     33 H13        3.0823    8.2037    0.7692 H         1 RES1    0.0000
     34 C16        2.4408    6.3253    1.0803 C.ar      1 RES1    0.0000
     35 H14        1.5364    6.5034    0.9532 H         1 RES1    0.0000
     36 C17        2.8557    5.0389    1.3861 C.ar      1 RES1    0.0000
     37 H15        2.2224    4.3634    1.4722 H         1 RES1    0.0000
     38 C18        4.1982    4.7420    1.5675 C.ar      1 RES1    0.0000
     39 C19        4.3810    2.1572   -1.1756 C.ar      1 RES1    0.0000
     40 H16        4.6812    2.9270   -0.7507 H         1 RES1    0.0000
     41 C20        4.7908    1.9052   -2.4770 C.ar      1 RES1    0.0000
     42 H17        5.3716    2.4916   -2.9046 H         1 RES1    0.0000
     43 C21        4.3381    0.7874   -3.1310 C.ar      1 RES1    0.0000
     44 C22        3.4468   -0.0593   -2.4863 C.ar      1 RES1    0.0000
     45 H18        3.1064   -0.7982   -2.9351 H         1 RES1    0.0000
     46 C23        3.0635    0.1837   -1.1928 C.ar      1 RES1    0.0000
     47 H19        2.4769   -0.4041   -0.7745 H         1 RES1    0.0000
     48 C24        3.5352    1.2961   -0.4885 C.ar      1 RES1    0.0000
     49 C25        3.7791    2.8690    4.9315 C.3       1 RES1    0.0000
     50 H20        4.3103    2.0526    5.0428 H         1 RES1    0.0000
     51 C26        4.6548    3.3279    1.9276 C.3       1 RES1    0.0000
     52 H21        5.2989    3.0492    1.2445 H         1 RES1    0.0000
     53 C27        3.5318    2.3101    1.9250 C.2       1 RES1    0.0000
     54 C28        2.6599    2.0016    3.0238 C.2       1 RES1    0.0000
     55 C29        1.7756    1.0742    2.6107 C.2       1 RES1    0.0000
     56 C30        3.1334    1.5160    0.8963 C.2       1 RES1    0.0000
     57 C31        0.6107    0.4291    3.2621 C.3       1 RES1    0.0000
     58 H22        0.5419    0.7337    4.1703 H         1 RES1    0.0000
     59 H23        0.7260   -0.5238    3.2528 H         1 RES1    0.0000
     60 H24       -0.1905    0.6584    2.7855 H         1 RES1    0.0000
     61 C32        5.7017    1.1695   -5.0520 C.3       1 RES1    0.0000
     62 H25        5.8311    0.8349   -5.9430 H         1 RES1    0.0000
     63 H26        6.5126    1.0648   -4.5503 H         1 RES1    0.0000
     64 H27        5.4665    2.0997   -5.0904 H         1 RES1    0.0000
@<TRIPOS>BOND
     1    1   43 1
     2    2    5 1
     3    3   49 1
     4    4   55 1
     5    5   27 1
     6    6    7 1
     7    8    6 ar
     8    9    8 1
     9   10    8 ar
    10   11   10 1
    11   12   10 ar
    12   13   12 1
    13   14   12 ar
    14   15   14 1
    15   16    6 ar
    16   17   18 1
    17   19   17 ar
    18   20   19 1
    19   21   19 ar
    20   22   21 1
    21   23   21 ar
    22   24   23 1
    23   25   23 ar
    24   26   25 1
    25   27   17 ar
    26   28   29 1
    27   30   28 ar
    28   31   30 1
    29   32   30 ar
    30   33   32 1
    31   34   32 ar
    32   35   34 1
    33   36   34 ar
    34   37   36 1
    35   38   28 ar
    36   39   40 1
    37   41   39 ar
    38   42   41 1
    39   43   41 ar
    40   44   43 ar
    41   45   44 1
    42   46   44 ar
    43   47   46 1
    44   48   39 ar
    45   49    2 1
    46   50   49 1
    47   51    5 1
    48   52   51 1
    49   53   51 1
    50   54    3 1
    51   55   54 2
    52   56    4 1
    53   57   55 1
    54   58   57 1
    55   59   57 1
    56   60   57 1
    57   61    1 1
    58   62   61 1
    59   63   61 1
    60   64   61 1
    61   14   16 ar
    62   16   49 1
    63   25   27 ar
    64   36   38 ar
    65   38   51 1
    66   46   48 ar
    67   48   56 1
    68   53   54 1
    69   53   56 2
@<TRIPOS>SUBSTRUCTURE
     1 RES1 1

@<TRIPOS>CRYSIN
   9.6239   10.3300   13.6641  78.6380  78.2840  72.1080   2 1

