# MOL2 file generated by ConQuest
# Please check atom types

@<TRIPOS>MOLECULE
REMVUD
    49    52     1
SMALL
NO_CHARGES
****
Generated from CSD

@<TRIPOS>ATOM
      1 O1         1.1021    9.2495    7.9312 O.3       1 RES1    0.0000
      2 O2         0.8749    9.4900   10.9257 O.3       1 RES1    0.0000
      3 O3         0.1702    7.2407    7.3186 O.3       1 RES1    0.0000
      4 O4         2.6756   10.8874    6.6483 O.3       1 RES1    0.0000
      5 N1         2.3134    9.6732    5.9845 N.2       1 RES1    0.0000
      6 C1         0.2776    8.1368    8.4122 C.3       1 RES1    0.0000
      7 C2         0.9823    7.4777    9.5805 C.ar      1 RES1    0.0000
      8 C3         1.5404    8.9631    6.6944 C.2       1 RES1    0.0000
      9 C4         1.2544    8.1672   10.7597 C.ar      1 RES1    0.0000
     10 C5         1.0170    7.6282    6.2221 C.3       1 RES1    0.0000
     11 C6         1.3691    6.1363    9.5199 C.ar      1 RES1    0.0000
     12 H1         1.1738    5.6389    8.7601 H         1 RES1    0.0000
     13 C7        -1.1088    8.6668    8.7271 C.3       1 RES1    0.0000
     14 H2        -1.6210    7.9538    9.1397 H         1 RES1    0.0000
     15 H3        -1.5466    8.8907    7.8904 H         1 RES1    0.0000
     16 C8         1.9356    7.5761   11.7996 C.ar      1 RES1    0.0000
     17 H4         2.1259    8.0640   12.5681 H         1 RES1    0.0000
     18 C9        -0.5502    9.6859   10.9942 C.3       1 RES1    0.0000
     19 H5        -0.7383   10.4587   11.5501 H         1 RES1    0.0000
     20 H6        -0.9572    8.9116   11.4138 H         1 RES1    0.0000
     21 C10        3.9764   12.8602    6.3306 C.ar      1 RES1    0.0000
     22 C11       -1.1654    9.8921    9.6421 C.3       1 RES1    0.0000
     23 H7        -0.7103   10.6278    9.2035 H         1 RES1    0.0000
     24 H8        -2.0934   10.1489    9.7591 H         1 RES1    0.0000
     25 C12        2.3369    6.2568   11.6990 C.ar      1 RES1    0.0000
     26 H9         2.8082    5.8575   12.3938 H         1 RES1    0.0000
     27 C13        0.1668    7.7485    4.9793 C.3       1 RES1    0.0000
     28 H10       -0.1998    6.8895    4.7570 H         1 RES1    0.0000
     29 H11        0.7070    8.0640    4.2515 H         1 RES1    0.0000
     30 H12       -0.5480    8.3700    5.1384 H         1 RES1    0.0000
     31 C14        2.0352    5.5387   10.5678 C.ar      1 RES1    0.0000
     32 H13        2.2826    4.6449   10.5079 H         1 RES1    0.0000
     33 C15        3.7715   11.4374    5.9165 C.3       1 RES1    0.0000
     34 H14        3.5863   11.3956    4.9658 H         1 RES1    0.0000
     35 H15        4.5753   10.9243    6.0925 H         1 RES1    0.0000
     36 C16        2.1472    6.6293    6.0459 C.3       1 RES1    0.0000
     37 H16        2.6868    6.6139    6.8396 H         1 RES1    0.0000
     38 H17        2.6884    6.8876    5.2954 H         1 RES1    0.0000
     39 H18        1.7811    5.7548    5.8907 H         1 RES1    0.0000
     40 C17        5.0981   13.2454    7.0312 C.ar      1 RES1    0.0000
     41 H19        5.7368   12.6139    7.2727 H         1 RES1    0.0000
     42 C18        3.0450   13.8207    6.0045 C.ar      1 RES1    0.0000
     43 H20        2.2781   13.5756    5.5369 H         1 RES1    0.0000
     44 C19        4.3273   15.5141    7.0415 C.ar      1 RES1    0.0000
     45 H21        4.4376   16.4055    7.2848 H         1 RES1    0.0000
     46 C20        5.2733   14.5866    7.3797 C.ar      1 RES1    0.0000
     47 H22        6.0362   14.8489    7.8404 H         1 RES1    0.0000
     48 C21        3.2303   15.1256    6.3531 C.ar      1 RES1    0.0000
     49 H23        2.5916   15.7593    6.1150 H         1 RES1    0.0000
@<TRIPOS>BOND
     1    1    6 1
     2    2    9 1
     3    3    6 1
     4    4    5 1
     5    5    8 2
     6    6    7 1
     7    7    9 ar
     8    8    1 1
     9    9   16 ar
    10   10    3 1
    11   11    7 ar
    12   12   11 1
    13   13    6 1
    14   14   13 1
    15   15   13 1
    16   16   17 1
    17   18    2 1
    18   19   18 1
    19   20   18 1
    20   21   33 1
    21   22   13 1
    22   23   22 1
    23   24   22 1
    24   25   16 ar
    25   26   25 1
    26   27   10 1
    27   28   27 1
    28   29   27 1
    29   30   27 1
    30   31   11 ar
    31   32   31 1
    32   33    4 1
    33   34   33 1
    34   35   33 1
    35   36   10 1
    36   37   36 1
    37   38   36 1
    38   39   36 1
    39   40   21 ar
    40   41   40 1
    41   42   21 ar
    42   43   42 1
    43   44   45 1
    44   46   40 ar
    45   47   46 1
    46   48   42 ar
    47   49   48 1
    48    8   10 1
    49   18   22 1
    50   25   31 ar
    51   44   46 ar
    52   44   48 ar
@<TRIPOS>SUBSTRUCTURE
     1 RES1 1

@<TRIPOS>CRYSIN
   5.5974   19.0054   17.2544  90.0000  90.0000  90.0000  19 1

