# MOL2 file generated by ConQuest
# Please check atom types

@<TRIPOS>MOLECULE
REMZAM
    44    48     1
SMALL
USER_CHARGES
****
Generated from CSD

@<TRIPOS>ATOM
      1 N1         4.0276    2.6757    5.6892 N.pl3     1 RES1    1.0000
      2 O1         4.1313    3.6333    4.8273 O.2       1 RES1   -1.0000
      3 C1         2.5811    0.9907    6.9096 C.ar      1 RES1    0.0000
      4 C2         2.8622    2.1297    5.9992 C.2       1 RES1    0.0000
      5 C3         1.5917    2.5805    5.4305 C.ar      1 RES1    0.0000
      6 C4         5.2892    2.2666    6.2773 C.2       1 RES1    0.0000
      7 C5         6.2782    1.7345    5.3101 C.3       1 RES1    0.0000
      8 H1         6.3343    2.3304    4.5468 H         1 RES1    0.0000
      9 H2         5.9820    0.8667    4.9918 H         1 RES1    0.0000
     10 C6         0.5768    1.7724    5.9803 C.ar      1 RES1    0.0000
     11 O2         8.8149    0.7616    7.9023 O.3       1 RES1    0.0000
     12 C7         1.2776    3.5909    4.5288 C.ar      1 RES1    0.0000
     13 H3         1.9421    4.1279    4.1622 H         1 RES1    0.0000
     14 C8         7.6589    1.5958    5.9476 C.3       1 RES1    0.0000
     15 H4         8.2124    1.0123    5.4040 H         1 RES1    0.0000
     16 H5         8.0875    2.4653    5.9906 H         1 RES1    0.0000
     17 C9         1.1857    0.7990    6.8842 C.ar      1 RES1    0.0000
     18 C10        7.5318    1.0224    7.3402 C.3       1 RES1    0.0000
     19 C11        3.3655    0.1450    7.6794 C.ar      1 RES1    0.0000
     20 H6         4.2891    0.2497    7.6979 H         1 RES1    0.0000
     21 C12        5.4885    2.4346    7.5710 C.2       1 RES1    0.0000
     22 H7         4.8344    2.8512    8.0845 H         1 RES1    0.0000
     23 C13       -0.7472    1.9697    5.6287 C.ar      1 RES1    0.0000
     24 H8        -1.4181    1.4330    5.9855 H         1 RES1    0.0000
     25 C14        6.7502    1.9658    8.2248 C.3       1 RES1    0.0000
     26 H9         6.5312    1.5158    9.0556 H         1 RES1    0.0000
     27 H10        7.3024    2.7337    8.4383 H         1 RES1    0.0000
     28 C15       -1.0531    2.9778    4.7396 C.ar      1 RES1    0.0000
     29 H11       -1.9406    3.1250    4.5037 H         1 RES1    0.0000
     30 C16        0.5899   -0.2043    7.6331 C.ar      1 RES1    0.0000
     31 H12       -0.3327   -0.3218    7.6128 H         1 RES1    0.0000
     32 C17        2.7606   -0.8563    8.4193 C.ar      1 RES1    0.0000
     33 H13        3.2861   -1.4263    8.9326 H         1 RES1    0.0000
     34 C18        1.3822   -1.0247    8.4086 C.ar      1 RES1    0.0000
     35 H14        0.9931   -1.6920    8.9254 H         1 RES1    0.0000
     36 C19       -0.0613    3.7752    4.1910 C.ar      1 RES1    0.0000
     37 H15       -0.2934    4.4444    3.5880 H         1 RES1    0.0000
     38 O3         6.8901   -0.2366    7.2094 O.3       1 RES1    0.0000
     39 C20        7.4949   -1.1144    8.1420 C.3       1 RES1    0.0000
     40 H16        7.5122   -2.0232    7.8046 H         1 RES1    0.0000
     41 H17        7.0243   -1.1004    8.9900 H         1 RES1    0.0000
     42 C21        8.8719   -0.5716    8.2865 C.3       1 RES1    0.0000
     43 H18        9.1706   -0.6464    9.2064 H         1 RES1    0.0000
     44 H19        9.4888   -1.0604    7.7205 H         1 RES1    0.0000
@<TRIPOS>BOND
     1    1    2 1
     2    3    4 1
     3    4    1 2
     4    5    4 1
     5    6    1 1
     6    7    6 1
     7    8    7 1
     8    9    7 1
     9   10    5 ar
    10   11   18 1
    11   12    5 ar
    12   13   12 1
    13   14    7 1
    14   15   14 1
    15   16   14 1
    16   17    3 ar
    17   18   14 1
    18   19    3 ar
    19   20   19 1
    20   21    6 2
    21   22   21 1
    22   23   10 ar
    23   24   23 1
    24   25   18 1
    25   26   25 1
    26   27   25 1
    27   28   23 ar
    28   29   28 1
    29   30   17 ar
    30   31   30 1
    31   32   19 ar
    32   33   32 1
    33   34   30 ar
    34   35   34 1
    35   36   12 ar
    36   37   36 1
    37   38   18 1
    38   39   38 1
    39   40   39 1
    40   41   39 1
    41   42   11 1
    42   43   42 1
    43   44   42 1
    44   10   17 1
    45   21   25 1
    46   28   36 ar
    47   32   34 ar
    48   39   42 1
@<TRIPOS>SUBSTRUCTURE
     1 RES1 1

@<TRIPOS>CRYSIN
  12.1767   13.3547   10.3670  90.0000  98.4540  90.0000  14 1

