# MOL2 file generated by ConQuest
# Please check atom types

@<TRIPOS>MOLECULE
REMZUE
    43    44     1
SMALL
NO_CHARGES
****
Generated from CSD

@<TRIPOS>ATOM
      1 O1         6.4468    2.2788   11.7310 O.3       1 RES1    0.0000
      2 O2         3.4468   -0.2279   10.7665 O.2       1 RES1    0.0000
      3 O3         5.5571    0.0273    9.0307 O.3       1 RES1    0.0000
      4 O4         9.0466    1.8413   10.3024 O.3       1 RES1    0.0000
      5 O5         5.3915    2.7437   13.6369 O.3       1 RES1    0.0000
      6 O6        -1.9028    3.1675   13.9094 O.2       1 RES1    0.0000
      7 O7        -1.8252    2.0646   15.7295 O.2       1 RES1    0.0000
      8 N1         4.5012    1.0847   12.2992 N.am      1 RES1    0.0000
      9 N2         3.7417    0.5424   13.3198 N.3       1 RES1    0.0000
     10 N3        -1.3281    2.4201   14.6543 N.pl3     1 RES1    0.0000
     11 C1         4.3358    0.5378   11.0126 C.2       1 RES1    0.0000
     12 C2         5.4170    0.9981   10.0167 C.3       1 RES1    0.0000
     13 C3         6.7101    1.3171   10.7104 C.3       1 RES1    0.0000
     14 C4         5.7359    1.7182   12.7897 C.3       1 RES1    0.0000
     15 C5         4.9352    0.2279    7.8003 C.3       1 RES1    0.0000
     16 C6         7.7738    1.9051    9.8004 C.3       1 RES1    0.0000
     17 C7         9.5994    2.9260   10.7764 C.3       1 RES1    0.0000
     18 C8         6.0079    2.6981   14.8723 C.3       1 RES1    0.0000
     19 C9         2.5034    1.0437   13.6089 C.ar      1 RES1    0.0000
     20 C10        1.8834    2.0281   12.8723 C.ar      1 RES1    0.0000
     21 C11        0.6259    2.4748   13.1943 C.ar      1 RES1    0.0000
     22 C12       -0.0112    1.9461   14.3025 C.ar      1 RES1    0.0000
     23 C13        0.5716    0.9708   15.0325 C.ar      1 RES1    0.0000
     24 C14        1.8283    0.5150   14.7220 C.ar      1 RES1    0.0000
     25 H1         4.1328   -0.2941   13.8967 H         1 RES1    0.0000
     26 H2         5.1065    1.9285    9.5430 H         1 RES1    0.0000
     27 H3         7.0950    0.3728   11.0965 H         1 RES1    0.0000
     28 H4         6.3437    0.9606   13.2868 H         1 RES1    0.0000
     29 H5         3.8689    0.3392    7.9894 H         1 RES1    0.0000
     30 H6         5.3296    1.1603    7.3894 H         1 RES1    0.0000
     31 H7         5.0460   -0.5311    7.0243 H         1 RES1    0.0000
     32 H8         7.7553    1.3541    8.8540 H         1 RES1    0.0000
     33 H9         7.5282    2.9484    9.6121 H         1 RES1    0.0000
     34 H10        9.6111    3.6562    9.9728 H         1 RES1    0.0000
     35 H11        8.9525    3.2805   11.5831 H         1 RES1    0.0000
     36 H12       10.6091    2.8763   11.1827 H         1 RES1    0.0000
     37 H13        5.7395    1.7548   15.3519 H         1 RES1    0.0000
     38 H14        7.0857    2.7313   14.7175 H         1 RES1    0.0000
     39 H15        5.7336    3.5104   15.5451 H         1 RES1    0.0000
     40 H16        2.3985    2.4600   12.0156 H         1 RES1    0.0000
     41 H17        0.1376    3.2343   12.5844 H         1 RES1    0.0000
     42 H18        0.0375    0.5388   15.8771 H         1 RES1    0.0000
     43 H19        2.3021   -0.2545   15.3357 H         1 RES1    0.0000
@<TRIPOS>BOND
     1    1   13 1
     2    2   11 2
     3    3   12 1
     4    4   16 1
     5    5   14 1
     6    6   10 2
     7    7   10 2
     8    8    9 1
     9    9   19 1
    10   10   22 1
    11   11    8 1
    12   12   11 1
    13   13   12 1
    14   14    1 1
    15   15    3 1
    16   16   13 1
    17   17    4 1
    18   18    5 1
    19   19   20 ar
    20   20   21 ar
    21   21   22 ar
    22   22   23 ar
    23   23   24 ar
    24   24   19 ar
    25   25    9 1
    26   26   12 1
    27   27   13 1
    28   28   14 1
    29   29   15 1
    30   30   15 1
    31   31   15 1
    32   32   16 1
    33   33   16 1
    34   34   17 1
    35   35   17 1
    36   36   17 1
    37   37   18 1
    38   38   18 1
    39   39   18 1
    40   40   20 1
    41   41   21 1
    42   42   23 1
    43   43   24 1
    44    8   14 1
@<TRIPOS>SUBSTRUCTURE
     1 RES1 1

@<TRIPOS>CRYSIN
  21.5740    4.5576   17.0390  90.0000 104.2380  90.0000   5 1

