# MOL2 file generated by ConQuest
# Please check atom types

@<TRIPOS>MOLECULE
REMZEQ
   118   112     3
SMALL
NO_CHARGES
****
Generated from CSD

@<TRIPOS>ATOM
      1 C1         6.4578    7.0199    5.9648 C.ar      1 RES1    0.0000
      2 H1         5.7543    7.5294    5.6351 H         1 RES1    0.0000
      3 C2         6.5207    5.6560    5.7104 C.ar      1 RES1    0.0000
      4 H2         5.8517    5.2416    5.2165 H         1 RES1    0.0000
      5 C3         7.5715    4.9268    6.1923 C.ar      1 RES1    0.0000
      6 H3         7.6140    4.0181    6.0038 H         1 RES1    0.0000
      7 C4         8.5658    5.5009    6.9473 C.ar      1 RES1    0.0000
      8 H4         9.2775    4.9914    7.2636 H         1 RES1    0.0000
      9 C5        10.4100    7.4612    8.8988 C.ar      1 RES1    0.0000
     10 H5        10.7873    6.6126    8.9311 H         1 RES1    0.0000
     11 C6        10.9147    8.4742    9.6646 C.ar      1 RES1    0.0000
     12 H6        11.6581    8.3103   10.1989 H         1 RES1    0.0000
     13 C7        10.3618    9.7170    9.6686 C.ar      1 RES1    0.0000
     14 H7        10.7051   10.3742   10.2285 H         1 RES1    0.0000
     15 C8         9.2801   10.0113    8.8355 C.ar      1 RES1    0.0000
     16 H8         8.9030   10.8615    8.8261 H         1 RES1    0.0000
     17 C9         7.6209    9.0499    7.0523 C.3       1 RES1    0.0000
     18 C10        7.4386    7.5958    6.7010 C.ar      1 RES1    0.0000
     19 C11        8.4862    6.8496    7.2259 C.ar      1 RES1    0.0000
     20 C12        9.3185    7.7210    8.0657 C.ar      1 RES1    0.0000
     21 C13        8.7804    9.0043    8.0226 C.ar      1 RES1    0.0000
     22 O1         6.4398    9.5731    7.7607 O.3       1 RES1    0.0000
     23 N1         5.9792   10.7274    7.1357 N.2       1 RES1    0.0000
     24 C14        6.6683   10.9766    6.0859 C.2       1 RES1    0.0000
     25 C15        7.7596    9.9786    5.8047 C.3       1 RES1    0.0000
     26 H9         7.4896    9.4598    5.0200 H         1 RES1    0.0000
     27 C16        9.1343   10.5378    5.5288 C.3       1 RES1    0.0000
     28 H10        9.5067   10.8877    6.3524 H         1 RES1    0.0000
     29 H11        9.0589   11.2724    4.9002 H         1 RES1    0.0000
     30 C17       10.0796    9.4888    4.9595 C.3       1 RES1    0.0000
     31 H12        9.7667    9.1854    4.0927 H         1 RES1    0.0000
     32 H13       10.1334    8.7242    5.5543 H         1 RES1    0.0000
     33 C18       11.5533   10.2114    4.8168 C.3       1 RES1    0.0000
     34 H14       11.5139   10.9118    4.1466 H         1 RES1    0.0000
     35 H15       11.8073   10.6141    5.6633 H         1 RES1    0.0000
     36 C19       12.5698    9.1713    4.4171 C.3       1 RES1    0.0000
     37 H16       13.4272    9.5876    4.3067 H         1 RES1    0.0000
     38 H17       12.3022    8.7656    3.5894 H         1 RES1    0.0000
     39 H18       12.6254    8.4992    5.0994 H         1 RES1    0.0000
     40 C20        6.2901   12.1156    5.2340 C.ar      1 RES1    0.0000
     41 C21        5.3812   13.0798    5.7037 C.ar      1 RES1    0.0000
     42 H19        5.0348   13.0029    6.5624 H         1 RES1    0.0000
     43 C22        5.0015   14.1296    4.9137 C.ar      1 RES1    0.0000
     44 H20        4.4050   14.7698    5.2313 H         1 RES1    0.0000
     45 C23        5.5180   14.2229    3.6419 C.ar      1 RES1    0.0000
     46 N2         5.1268   15.3513    2.7940 N.pl3     1 RES1    0.0000
     47 O2         4.4984   16.2527    3.2771 O.2       1 RES1    0.0000
     48 C24        6.3909   13.2961    3.1439 C.ar      1 RES1    0.0000
     49 H21        6.7258   13.3810    2.2812 H         1 RES1    0.0000
     50 O3         5.4342   15.3313    1.6204 O.2       1 RES1    0.0000
     51 C25        6.7652   12.2357    3.9366 C.ar      1 RES1    0.0000
     52 H22        7.3441   11.5913    3.5975 H         1 RES1    0.0000
     53 C26        5.7725    7.1734   14.9901 C.ar      2 RES2    0.0000
     54 H23        5.1044    7.8066   14.8595 H         2 RES2    0.0000
     55 C27        5.4902    5.9675   15.6119 C.ar      2 RES2    0.0000
     56 H24        4.6252    5.7688   15.8891 H         2 RES2    0.0000
     57 C28        6.5067    5.0720   15.8084 C.ar      2 RES2    0.0000
     58 H25        6.2999    4.2555   16.2040 H         2 RES2    0.0000
     59 C29        7.8141    5.3088   15.4558 C.ar      2 RES2    0.0000
     60 H26        8.4907    4.6955   15.6321 H         2 RES2    0.0000
     61 C30       10.6570    6.5930   14.3508 C.ar      2 RES2    0.0000
     62 H27       10.8588    5.7400   14.6617 H         2 RES2    0.0000
     63 C31       11.6529    7.4406   13.8488 C.ar      2 RES2    0.0000
     64 H28       12.5314    7.1371   13.8259 H         2 RES2    0.0000
     65 C32       11.3844    8.6517   13.4074 C.ar      2 RES2    0.0000
     66 H29       12.0750    9.1835   13.0857 H         2 RES2    0.0000
     67 C33       10.0934    9.1459   13.4154 C.ar      2 RES2    0.0000
     68 H30        9.9143   10.0020   13.0992 H         2 RES2    0.0000
     69 C34        7.5862    8.6533   13.9242 C.3       2 RES2    0.0000
     70 C35        7.0274    7.4080   14.5823 C.ar      2 RES2    0.0000
     71 C36        8.0648    6.5079   14.8259 C.ar      2 RES2    0.0000
     72 C37        9.3260    7.0917   14.3656 C.ar      2 RES2    0.0000
     73 C38        9.0719    8.3500   13.8999 C.ar      2 RES2    0.0000
     74 O4         7.3140    9.8001   14.8170 O.3       2 RES2    0.0000
     75 N3         6.4852   10.7174   14.1597 N.2       2 RES2    0.0000
     76 C39        6.3030   10.3527   12.9538 C.2       2 RES2    0.0000
     77 C40        7.0373    9.1129   12.5554 C.3       2 RES2    0.0000
     78 H31        7.8089    9.4005   12.0252 H         2 RES2    0.0000
     79 C41        6.2846    8.1236   11.7183 C.3       2 RES2    0.0000
     80 H32        5.5132    7.8232   12.2230 H         2 RES2    0.0000
     81 H33        5.9539    8.5837   10.9297 H         2 RES2    0.0000
     82 C42        7.0448    6.9243   11.2728 C.3       2 RES2    0.0000
     83 H34        7.3757    6.4330   12.0413 H         2 RES2    0.0000
     84 H35        7.8033    7.1914   10.7291 H         2 RES2    0.0000
     85 C43        6.0025    5.9613   10.3765 C.3       2 RES2    0.0000
     86 H36        5.3169    6.5005    9.9526 H         2 RES2    0.0000
     87 H37        6.4865    5.4749    9.6915 H         2 RES2    0.0000
     88 C44        5.5869    5.3130   11.0629 C.3       2 RES2    0.0000
     89 H38        4.9467    4.7490   10.6215 H         2 RES2    0.0000
     90 H39        5.1488    5.8154   11.7533 H         2 RES2    0.0000
     91 H40        6.2772    4.7698   11.4492 H         2 RES2    0.0000
     92 C45        5.5397   11.2449   12.0629 C.ar      2 RES2    0.0000
     93 C46        4.5142   12.0399   12.5743 C.ar      2 RES2    0.0000
     94 H41        4.2386   11.9224   13.4558 H         2 RES2    0.0000
     95 C47        3.9050   12.9911   11.7991 C.ar      2 RES2    0.0000
     96 H42        3.2329   13.5307   12.1503 H         2 RES2    0.0000
     97 C48        4.3040   13.1308   10.4976 C.ar      2 RES2    0.0000
     98 N4         3.6856   14.1766    9.6699 N.pl3     2 RES2    0.0000
     99 O5         4.1142   14.3626    8.5475 O.2       2 RES2    0.0000
    100 C49        5.2652   12.3309    9.9445 C.ar      2 RES2    0.0000
    101 H43        5.5015   12.4278    9.0508 H         2 RES2    0.0000
    102 O6         2.7551   14.7984   10.1221 O.2       2 RES2    0.0000
    103 C50        5.8794   11.3829   10.7264 C.ar      2 RES2    0.0000
    104 H44        6.5273   10.8285   10.3563 H         2 RES2    0.0000
    105 C51       11.3326    9.7689    4.4790 Du        3 SUP3    0.0000
    106 C52       12.1409    9.9481    5.7374 Du        3 SUP3    0.0000
    107 C53        6.6772    6.1091   10.2258 Du        3 SUP3    0.0000
    108 C54        6.5511    4.7353    9.9808 Du        3 SUP3    0.0000
    109 H45       11.3296   10.5774    3.9447 Du        3 SUP3    0.0000
    110 H46       11.6744    9.0350    3.9447 Du        3 SUP3    0.0000
    111 H47       13.0542   10.1320    5.5059 Du        3 SUP3    0.0000
    112 H48       12.0973    9.1469    6.2622 Du        3 SUP3    0.0000
    113 H49       11.7847   10.6823    6.2434 Du        3 SUP3    0.0000
    114 H50        7.2631    6.4009    9.5098 Du        3 SUP3    0.0000
    115 H51        5.8003    6.4498    9.9876 Du        3 SUP3    0.0000
    116 H52        6.2261    4.5982    9.0872 Du        3 SUP3    0.0000
    117 H53        5.9334    4.3538   10.6080 Du        3 SUP3    0.0000
    118 H54        7.4079    4.3140   10.0777 Du        3 SUP3    0.0000
@<TRIPOS>BOND
     1    1    2 1
     2    3    1 ar
     3    4    3 1
     4    5    3 ar
     5    6    5 1
     6    7    5 ar
     7    8    7 1
     8    9   10 1
     9   11    9 ar
    10   12   11 1
    11   13   11 ar
    12   14   13 1
    13   15   13 ar
    14   16   15 1
    15   17   18 1
    16   18    1 ar
    17   19    7 ar
    18   20    9 ar
    19   21   15 ar
    20   22   17 1
    21   23   22 1
    22   24   23 2
    23   25   17 1
    24   26   25 1
    25   27   25 1
    26   28   27 1
    27   29   27 1
    28   30   27 1
    29   31   30 1
    30   32   30 1
    31   33   30 1
    32   34   33 1
    33   35   33 1
    34   36   33 1
    35   37   36 1
    36   38   36 1
    37   39   36 1
    38   40   24 1
    39   41   40 ar
    40   42   41 1
    41   43   41 ar
    42   44   43 1
    43   45   43 ar
    44   46   45 1
    45   47   46 2
    46   48   45 ar
    47   49   48 1
    48   50   46 2
    49   51   40 ar
    50   52   51 1
    51   53   54 1
    52   55   53 ar
    53   56   55 1
    54   57   55 ar
    55   58   57 1
    56   59   57 ar
    57   60   59 1
    58   61   62 1
    59   63   61 ar
    60   64   63 1
    61   65   63 ar
    62   66   65 1
    63   67   65 ar
    64   68   67 1
    65   69   70 1
    66   70   53 ar
    67   71   59 ar
    68   72   61 ar
    69   73   67 ar
    70   74   69 1
    71   75   74 1
    72   76   75 2
    73   77   69 1
    74   78   77 1
    75   79   77 1
    76   80   79 1
    77   81   79 1
    78   82   79 1
    79   83   82 1
    80   84   82 1
    81   85   82 1
    82   86   85 1
    83   87   85 1
    84   88   85 1
    85   89   88 1
    86   90   88 1
    87   91   88 1
    88   92   76 1
    89   93   92 ar
    90   94   93 1
    91   95   93 ar
    92   96   95 1
    93   97   95 ar
    94   98   97 1
    95   99   98 2
    96  100   97 ar
    97  101  100 1
    98  102   98 2
    99  103   92 ar
   100  104  103 1
   101   17   21 1
   102   18   19 ar
   103   19   20 1
   104   20   21 ar
   105   24   25 1
   106   48   51 ar
   107   69   73 1
   108   70   71 ar
   109   71   72 1
   110   72   73 ar
   111   76   77 1
   112  100  103 ar
@<TRIPOS>SUBSTRUCTURE
     1 RES1 1
     2 RES2 53
     3 SUP3 105

@<TRIPOS>CRYSIN
  12.4131   12.8680   13.6450  94.6970  97.6480  96.3240   2 1

