# MOL2 file generated by ConQuest
# Please check atom types

@<TRIPOS>MOLECULE
RENDOF
    51    52     1
SMALL
NO_CHARGES
****
Generated from CSD

@<TRIPOS>ATOM
      1 O1         8.6469    1.4407    4.6343 O.2       1 RES1    0.0000
      2 O2         4.8063   -0.4591    5.5057 O.3       1 RES1    0.0000
      3 O3         6.1784   -0.4260    7.2635 O.2       1 RES1    0.0000
      4 O4        12.0337    2.2141    8.0642 O.3       1 RES1    0.0000
      5 O5        13.8945   -1.7298   13.8969 O.2       1 RES1    0.0000
      6 O6        14.8227    0.2075   14.0612 O.2       1 RES1    0.0000
      7 N1        14.1051   -0.6022   13.4855 N.pl3     1 RES1    0.0000
      8 N2         6.9445    0.0362    5.1095 N.am      1 RES1    0.0000
      9 C1         6.0100   -0.2971    6.0855 C.2       1 RES1    0.0000
     10 C2         4.9088   -0.3167    4.0609 C.3       1 RES1    0.0000
     11 C3         8.1749    0.6341    5.4158 C.2       1 RES1    0.0000
     12 C4        13.0672    1.4579   10.5537 C.ar      1 RES1    0.0000
     13 C5        12.3168    0.5377    9.8215 C.ar      1 RES1    0.0000
     14 C6        10.0977    0.9680    8.7301 C.3       1 RES1    0.0000
     15 C7         9.6867    2.0533    9.7233 C.3       1 RES1    0.0000
     16 C8         9.3988    1.1761    7.4116 C.2       1 RES1    0.0000
     17 C9        13.6545    1.0951   11.7636 C.ar      1 RES1    0.0000
     18 C10       12.7355   -1.1319   11.5209 C.ar      1 RES1    0.0000
     19 C11        7.0623   -0.4413    2.6465 C.3       1 RES1    0.0000
     20 C12       12.1768   -0.7612   10.3136 C.ar      1 RES1    0.0000
     21 C13        8.8613    0.2062    6.6672 C.2       1 RES1    0.0000
     22 C14       11.6295    0.9349    8.5258 C.3       1 RES1    0.0000
     23 C15        6.3132    0.2431    3.7944 C.3       1 RES1    0.0000
     24 C16       13.4729   -0.1915   12.2222 C.ar      1 RES1    0.0000
     25 C17        8.9661   -1.2620    6.9700 C.3       1 RES1    0.0000
     26 C18        6.3190   -0.1424    1.3479 C.3       1 RES1    0.0000
     27 C19        7.2787   -1.9317    2.8487 C.3       1 RES1    0.0000
     28 H1        12.8222    2.1718    7.7752 H         1 RES1    0.0000
     29 H2         4.2152    0.3045    3.7230 H         1 RES1    0.0000
     30 H3         4.7928   -1.1939    3.6157 H         1 RES1    0.0000
     31 H4        13.1800    2.3418   10.2231 H         1 RES1    0.0000
     32 H5         9.8119    0.0829    9.0985 H         1 RES1    0.0000
     33 H6         9.9852    2.9268    9.3957 H         1 RES1    0.0000
     34 H7        10.0988    1.8722   10.5943 H         1 RES1    0.0000
     35 H8         8.7106    2.0564    9.8186 H         1 RES1    0.0000
     36 H9         9.3353    2.0656    7.0847 H         1 RES1    0.0000
     37 H10       14.1696    1.7200   12.2616 H         1 RES1    0.0000
     38 H11       12.6178   -2.0103   11.8620 H         1 RES1    0.0000
     39 H12        7.9629   -0.0141    2.5798 H         1 RES1    0.0000
     40 H13       11.6900   -1.4014    9.8088 H         1 RES1    0.0000
     41 H14       11.8456    0.2554    7.8246 H         1 RES1    0.0000
     42 H15        6.2477    1.2240    3.6095 H         1 RES1    0.0000
     43 H16        8.4150   -1.7666    6.3361 H         1 RES1    0.0000
     44 H17        8.6505   -1.4302    7.8825 H         1 RES1    0.0000
     45 H18        9.8994   -1.5463    6.8898 H         1 RES1    0.0000
     46 H19        5.4331   -0.5580    1.3762 H         1 RES1    0.0000
     47 H20        6.8247   -0.5040    0.5907 H         1 RES1    0.0000
     48 H21        6.2211    0.8275    1.2431 H         1 RES1    0.0000
     49 H22        7.8238   -2.2853    2.1149 H         1 RES1    0.0000
     50 H23        6.4120   -2.3884    2.8635 H         1 RES1    0.0000
     51 H24        7.7425   -2.0815    3.6996 H         1 RES1    0.0000
@<TRIPOS>BOND
     1    1   11 2
     2    2    9 1
     3    3    9 2
     4    4   22 1
     5    5    7 2
     6    6    7 2
     7    7   24 1
     8    8    9 1
     9   10    2 1
    10   11    8 1
    11   12   13 ar
    12   13   20 ar
    13   14   15 1
    14   15   33 1
    15   16   14 1
    16   17   12 ar
    17   18   20 ar
    18   19   23 1
    19   20   40 1
    20   21   11 1
    21   22   13 1
    22   23    8 1
    23   24   17 ar
    24   25   21 1
    25   26   19 1
    26   27   19 1
    27   28    4 1
    28   29   10 1
    29   30   10 1
    30   31   12 1
    31   32   14 1
    32   34   15 1
    33   35   15 1
    34   36   16 1
    35   37   17 1
    36   38   18 1
    37   39   19 1
    38   41   22 1
    39   42   23 1
    40   43   25 1
    41   44   25 1
    42   45   25 1
    43   46   26 1
    44   47   26 1
    45   48   26 1
    46   49   27 1
    47   50   27 1
    48   51   27 1
    49   10   23 1
    50   14   22 1
    51   16   21 2
    52   18   24 ar
@<TRIPOS>SUBSTRUCTURE
     1 RES1 1

@<TRIPOS>CRYSIN
  24.9420    6.1384   12.4356  90.0000  97.4055  90.0000   5 1

