# MOL2 file generated by ConQuest
# Please check atom types

@<TRIPOS>MOLECULE
RENDUL
    64    65     1
SMALL
NO_CHARGES
****
Generated from CSD

@<TRIPOS>ATOM
      1 O1        -0.8330    7.5991   10.5902 O.3       1 RES1    0.0000
      2 O2        -0.5570    9.6515    9.6765 O.2       1 RES1    0.0000
      3 O3        -2.3170    2.9693    5.3418 O.2       1 RES1    0.0000
      4 O4         1.8898    4.1585    4.9022 O.3       1 RES1    0.0000
      5 O5        -2.4029    7.0656   15.0779 O.2       1 RES1    0.0000
      6 O6         1.2291    3.7751    7.0114 O.2       1 RES1    0.0000
      7 O7        -3.0253    8.7725   16.2455 O.2       1 RES1    0.0000
      8 O8        -1.6228   13.5097   12.5215 O.2       1 RES1    0.0000
      9 O9        -2.3690   13.2179   14.5335 O.2       1 RES1    0.0000
     10 N1        -0.2967    3.9925    5.2696 N.am      1 RES1    0.0000
     11 N2        -1.9628   12.7991   13.4515 N.pl3     1 RES1    0.0000
     12 N3        -2.5592    8.2682   15.2395 N.pl3     1 RES1    0.0000
     13 C1        -0.8590    8.9422   10.5989 C.2       1 RES1    0.0000
     14 C2        -1.6969    8.6113   12.9658 C.ar      1 RES1    0.0000
     15 C3        -1.4651    3.5981    5.9361 C.2       1 RES1    0.0000
     16 C4        -2.1537    9.1656   14.1382 C.ar      1 RES1    0.0000
     17 C5         0.8165    6.0974    9.6534 C.3       1 RES1    0.0000
     18 C6        -0.4301    6.9069    9.3476 C.3       1 RES1    0.0000
     19 C7        -1.3418    9.4586   11.9175 C.ar      1 RES1    0.0000
     20 C8        -1.4323   10.8310   12.0685 C.ar      1 RES1    0.0000
     21 C9        -1.8919   11.3328   13.2746 C.ar      1 RES1    0.0000
     22 C10       -1.3256    5.3563    7.6125 C.2       1 RES1    0.0000
     23 C11       -0.2033    3.9094    3.8058 C.3       1 RES1    0.0000
     24 C12        0.9582    3.9754    5.8688 C.2       1 RES1    0.0000
     25 C13       -2.2726   10.5294   14.3383 C.ar      1 RES1    0.0000
     26 C14       -1.6451    6.1108    8.8811 C.3       1 RES1    0.0000
     27 C15       -1.2518    4.6469    3.0219 C.3       1 RES1    0.0000
     28 C16        1.2344    4.4186    3.6490 C.3       1 RES1    0.0000
     29 C17       -0.7943    4.8813    1.5966 C.3       1 RES1    0.0000
     30 C18       -1.6688    4.1072    7.3298 C.2       1 RES1    0.0000
     31 C19       -2.8488    7.0131    8.6128 C.3       1 RES1    0.0000
     32 C20       -2.4057    3.1622    8.2290 C.3       1 RES1    0.0000
     33 C21       -1.6731    5.9667    3.6538 C.3       1 RES1    0.0000
     34 C22        2.0071    7.0204    9.9449 C.3       1 RES1    0.0000
     35 C23        0.6039    5.0962   10.7845 C.3       1 RES1    0.0000
     36 H1        -1.6250    7.6687   12.8706 H         1 RES1    0.0000
     37 H2         1.0402    5.5736    8.8321 H         1 RES1    0.0000
     38 H3        -0.2068    7.5918    8.6541 H         1 RES1    0.0000
     39 H4        -1.1843   11.4158   11.3616 H         1 RES1    0.0000
     40 H5        -0.8290    5.8227    6.9508 H         1 RES1    0.0000
     41 H6        -0.2296    2.9449    3.5403 H         1 RES1    0.0000
     42 H7        -2.5948   10.8932   15.1539 H         1 RES1    0.0000
     43 H8        -1.8910    5.4527    9.5928 H         1 RES1    0.0000
     44 H9        -2.0619    4.0621    2.9835 H         1 RES1    0.0000
     45 H10        1.6934    3.9400    2.9123 H         1 RES1    0.0000
     46 H11        1.2392    5.3880    3.4490 H         1 RES1    0.0000
     47 H12       -1.5707    5.0718    1.0301 H         1 RES1    0.0000
     48 H13       -0.3361    4.0816    1.2638 H         1 RES1    0.0000
     49 H14       -0.1787    5.6444    1.5725 H         1 RES1    0.0000
     50 H15       -3.0587    7.5259    9.4197 H         1 RES1    0.0000
     51 H16       -3.6205    6.4624    8.3646 H         1 RES1    0.0000
     52 H17       -2.6378    7.6284    7.8799 H         1 RES1    0.0000
     53 H18       -2.2322    3.3979    9.1648 H         1 RES1    0.0000
     54 H19       -2.1009    2.2465    8.0607 H         1 RES1    0.0000
     55 H20       -3.3678    3.2245    8.0501 H         1 RES1    0.0000
     56 H21       -2.4362    6.3367    3.1614 H         1 RES1    0.0000
     57 H22       -0.9254    6.5992    3.6202 H         1 RES1    0.0000
     58 H23       -1.9303    5.8153    4.5877 H         1 RES1    0.0000
     59 H24        1.7567    7.6675   10.6364 H         1 RES1    0.0000
     60 H25        2.2574    7.4978    9.1264 H         1 RES1    0.0000
     61 H26        2.7665    6.4856   10.2565 H         1 RES1    0.0000
     62 H27        0.2816    5.5675   11.5818 H         1 RES1    0.0000
     63 H28        1.4510    4.6493   10.9894 H         1 RES1    0.0000
     64 H29       -0.0598    4.4283   10.5094 H         1 RES1    0.0000
@<TRIPOS>BOND
     1    1   13 1
     2    2   13 2
     3    3   15 2
     4    4   24 1
     5    5   12 2
     6    6   24 2
     7    7   12 2
     8    8   11 2
     9    9   11 2
    10   10   15 1
    11   11   21 1
    12   12   16 1
    13   13   19 1
    14   14   16 ar
    15   15   30 1
    16   16   25 ar
    17   17   18 1
    18   18    1 1
    19   19   14 ar
    20   20   19 ar
    21   21   20 ar
    22   22   26 1
    23   23   10 1
    24   24   10 1
    25   25   21 ar
    26   26   18 1
    27   27   23 1
    28   28    4 1
    29   29   27 1
    30   30   22 2
    31   31   26 1
    32   32   30 1
    33   33   27 1
    34   34   17 1
    35   35   17 1
    36   36   14 1
    37   37   17 1
    38   38   18 1
    39   39   20 1
    40   40   22 1
    41   41   23 1
    42   42   25 1
    43   43   26 1
    44   44   27 1
    45   45   28 1
    46   46   28 1
    47   47   29 1
    48   48   29 1
    49   49   29 1
    50   50   31 1
    51   51   31 1
    52   52   31 1
    53   53   32 1
    54   54   32 1
    55   55   32 1
    56   56   33 1
    57   57   33 1
    58   58   33 1
    59   59   34 1
    60   60   34 1
    61   61   34 1
    62   62   35 1
    63   63   35 1
    64   64   35 1
    65   23   28 1
@<TRIPOS>SUBSTRUCTURE
     1 RES1 1

@<TRIPOS>CRYSIN
  10.2747   12.2094   10.3190  90.0000 111.2430  90.0000   4 1

