# MOL2 file generated by ConQuest
# Please check atom types

@<TRIPOS>MOLECULE
RENFIB
    65    41     2
SMALL
NO_CHARGES
****
Generated from CSD

@<TRIPOS>ATOM
      1 O1         0.4466   10.8176    4.2491 O.2       1 RES1    0.0000
      2 O2         4.1502   12.5340    0.6477 O.3       1 RES1    0.0000
      3 H1         4.6588   13.1029    0.2961 H         1 RES1    0.0000
      4 O3         2.6285   14.1424    0.3016 O.2       1 RES1    0.0000
      5 N1         0.7150   11.4307    3.1656 N.3       1 RES1    0.0000
      6 C1         2.0735   11.9387    2.8515 C.3       1 RES1    0.0000
      7 C2         1.9438   12.0561    1.3057 C.3       1 RES1    0.0000
      8 H2         2.1045   11.1508    0.9111 H         1 RES1    0.0000
      9 C3         0.4751   12.4263    1.0646 C.3       1 RES1    0.0000
     10 H3         0.3241   13.3921    1.2175 H         1 RES1    0.0000
     11 H4         0.1996   12.1999    0.1412 H         1 RES1    0.0000
     12 C4        -0.2950   11.5829    2.0884 C.3       1 RES1    0.0000
     13 C5         2.2770   13.3237    3.4999 C.3       1 RES1    0.0000
     14 H5         3.1910   13.6416    3.2902 H         1 RES1    0.0000
     15 H6         1.6371   13.9619    3.0943 H         1 RES1    0.0000
     16 C6         2.0878   13.3378    5.0252 C.3       1 RES1    0.0000
     17 H7         2.1582   14.2582    5.3550 H         1 RES1    0.0000
     18 H8         2.7807   12.7868    5.4450 H         1 RES1    0.0000
     19 H9         1.2039   12.9781    5.2479 H         1 RES1    0.0000
     20 C7         3.1406   10.9620    3.3477 C.3       1 RES1    0.0000
     21 H10        4.0286   11.3295    3.1103 H         1 RES1    0.0000
     22 H11        3.0912   10.9283    4.3357 H         1 RES1    0.0000
     23 C8         3.0634    9.5421    2.8234 C.3       1 RES1    0.0000
     24 H12        3.7579    8.9918    3.2412 H         1 RES1    0.0000
     25 H13        3.1920    9.5475    1.8518 H         1 RES1    0.0000
     26 H14        2.1807    9.1719    3.0340 H         1 RES1    0.0000
     27 C9         2.9385   13.0104    0.7035 C.2       1 RES1    0.0000
     28 C10       -0.6216   10.1772    1.5508 C.3       1 RES1    0.0000
     29 H15        0.1960    9.7956    1.1434 H         1 RES1    0.0000
     30 H16       -0.8752    9.5972    2.3119 H         1 RES1    0.0000
     31 C11       -1.7447   10.1443    0.5165 C.3       1 RES1    0.0000
     32 H17       -1.8069    9.2456    0.1310 H         1 RES1    0.0000
     33 H18       -1.5541   10.7922   -0.1936 H         1 RES1    0.0000
     34 H19       -2.5934   10.3740    0.9487 H         1 RES1    0.0000
     35 C12       -1.5637   12.2434    2.6452 C.3       1 RES1    0.0000
     36 H20       -2.1958   12.3771    1.8951 H         1 RES1    0.0000
     37 H21       -1.9881   11.6101    3.2777 H         1 RES1    0.0000
     38 C13       -1.3865   13.5697    3.3543 C.3       1 RES1    0.0000
     39 H22       -2.2566   13.8882    3.6729 H         1 RES1    0.0000
     40 H23       -1.0063   14.2242    2.7322 H         1 RES1    0.0000
     41 H24       -0.7818   13.4544    4.1170 H         1 RES1    0.0000
     42 C14        2.1031   11.8483    2.8438 Du        2 SUP2    0.0000
     43 C15        1.6953   13.0079    1.9270 Du        2 SUP2    0.0000
     44 C16        0.5175   12.4324    1.1047 Du        2 SUP2    0.0000
     45 C17        2.7947   12.2495    4.1558 Du        2 SUP2    0.0000
     46 C18        2.1426   13.5225    4.7036 Du        2 SUP2    0.0000
     47 C19        2.9537   10.8120    2.1217 Du        2 SUP2    0.0000
     48 C20        3.0634    9.5421    2.8234 Du        2 SUP2    0.0000
     49 C21        2.7968   13.5466    1.0375 Du        2 SUP2    0.0000
     50 H25        1.3497   13.7550    2.4941 Du        2 SUP2    0.0000
     51 H26        4.1186   14.2370    1.9361 Du        2 SUP2    0.0000
     52 H27       -0.0361   13.1638    0.7277 Du        2 SUP2    0.0000
     53 H28        0.8556   11.8767    0.3553 Du        2 SUP2    0.0000
     54 H29        2.7066   11.5194    4.8186 Du        2 SUP2    0.0000
     55 H30        3.7580   12.4068    3.9929 Du        2 SUP2    0.0000
     56 H31        2.5072   13.7181    5.5907 Du        2 SUP2    0.0000
     57 H32        1.1776   13.3963    4.7605 Du        2 SUP2    0.0000
     58 H33        2.3414   14.2710    4.0977 Du        2 SUP2    0.0000
     59 H34        2.5636   10.6476    1.2266 Du        2 SUP2    0.0000
     60 H35        3.8621   11.1820    1.9896 Du        2 SUP2    0.0000
     61 H36        3.5895    8.8430    2.4019 Du        2 SUP2    0.0000
     62 H37        2.5032    9.2966    3.4861 Du        2 SUP2    0.0000
     63 H38        4.0164    9.8041    3.6091 Du        2 SUP2    0.0000
     64 O4         3.9809   13.5338    1.4965 Du        2 SUP2    0.0000
     65 O5         2.6225   13.6855   -0.1891 Du        2 SUP2    0.0000
@<TRIPOS>BOND
     1    1    5 1
     2    2    3 1
     3    4   27 2
     4    5    6 1
     5    6    7 1
     6    7    8 1
     7    9    7 1
     8   10    9 1
     9   11    9 1
    10   12    5 1
    11   13    6 1
    12   14   13 1
    13   15   13 1
    14   16   13 1
    15   17   16 1
    16   18   16 1
    17   19   16 1
    18   20    6 1
    19   21   20 1
    20   22   20 1
    21   23   20 1
    22   24   23 1
    23   25   23 1
    24   26   23 1
    25   27    2 1
    26   28   12 1
    27   29   28 1
    28   30   28 1
    29   31   28 1
    30   32   31 1
    31   33   31 1
    32   34   31 1
    33   35   12 1
    34   36   35 1
    35   37   35 1
    36   38   35 1
    37   39   38 1
    38   40   38 1
    39   41   38 1
    40    7   27 1
    41    9   12 1
@<TRIPOS>SUBSTRUCTURE
     1 RES1 1
     2 SUP2 42

@<TRIPOS>CRYSIN
   8.5917   14.1760   11.4969  90.0000  97.8650  90.0000  14 1

