# MOL2 file generated by ConQuest
# Please check atom types

@<TRIPOS>MOLECULE
RENFOH
    56    60     2
SMALL
NO_CHARGES
****
Generated from CSD

@<TRIPOS>ATOM
      1 O1         3.9533    7.4289   -1.1574 O.2       1 RES1    0.0000
      2 O2        -1.6012    6.6294   -0.6643 O.3       1 RES1    0.0000
      3 O3        -1.1671    8.5739    0.3680 O.3       1 RES1    0.0000
      4 N1         2.8696    7.4289   -0.4835 N.2       1 RES1    0.0000
      5 C1         1.5593    7.4289   -1.1841 C.3       1 RES1    0.0000
      6 C2         0.6398    7.0267   -0.0054 C.3       1 RES1    0.0000
      7 H1         0.6363    6.0263    0.0009 H         1 RES1    0.0000
      8 C3         1.3328    7.4289    1.2474 C.2       1 RES1    0.0000
      9 H2         1.1126    6.7940    1.9742 Du        2 SUP2    0.0000
     10 H3         1.0362    8.3323    1.5221 Du        2 SUP2    0.0000
     11 C4         2.8319    7.4289    0.9919 C.3       1 RES1    0.0000
     12 C5         1.6464    6.4651   -2.3386 C.2       1 RES1    0.0000
     13 H4         2.4806    6.6404   -2.8418 Du        2 SUP2    0.0000
     14 H5         1.6904    5.5400   -1.9913 Du        2 SUP2    0.0000
     15 C6         0.4482    6.5979   -3.3092 C.3       1 RES1    0.0000
     16 H6        -0.3808    6.3482   -2.8302 Du        2 SUP2    0.0000
     17 H7         0.5667    5.9679   -4.0640 Du        2 SUP2    0.0000
     18 C7         0.3143    7.9816   -3.8455 C.3       1 RES1    0.0000
     19 H8         1.1167    8.2144   -4.3774 Du        2 SUP2    0.0000
     20 H9        -0.4760    8.0361   -4.4400 Du        2 SUP2    0.0000
     21 C8         0.1518    5.8619   -2.6905 C.2       1 RES1    0.0000
     22 H10       -0.7003    8.8176   -2.2187 Du        2 SUP2    0.0000
     23 H11        0.1162    9.9181   -3.0478 Du        2 SUP2    0.0000
     24 C9         1.3038    8.8869   -1.7092 C.2       1 RES1    0.0000
     25 H12        2.1271    9.2178   -2.1470 Du        2 SUP2    0.0000
     26 H13        1.1202    9.4733   -0.9321 Du        2 SUP2    0.0000
     27 C10       -0.7916    7.4289   -0.0828 C.3       1 RES1    0.0000
     28 C11        3.6866    6.3423    1.6027 C.3       1 RES1    0.0000
     29 H14        3.3021    5.4588    1.3770 Du        2 SUP2    0.0000
     30 H15        4.5977    6.3869    1.2159 Du        2 SUP2    0.0000
     31 C12        3.7679    6.4701    3.1239 C.3       1 RES1    0.0000
     32 H16        4.3609    5.7648    3.4865 Du        2 SUP2    0.0000
     33 H17        2.8678    6.3443    3.5160 Du        2 SUP2    0.0000
     34 C13        4.2989    7.8598    3.5295 C.3       1 RES1    0.0000
     35 H18        4.2991    7.9380    4.5170 Du        2 SUP2    0.0000
     36 H19        5.2326    7.9539    3.2143 Du        2 SUP2    0.0000
     37 C14        3.4496    5.8847    2.9251 C.3       1 RES1    0.0000
     38 H20        3.8436    9.8507    3.1561 Du        2 SUP2    0.0000
     39 H21        2.5401    8.9335    3.3137 Du        2 SUP2    0.0000
     40 C15        3.3546    8.8463    1.4075 C.2       1 RES1    0.0000
     41 H22        2.7403    9.5367    1.0538 Du        2 SUP2    0.0000
     42 H23        4.2486    8.9969    1.0073 Du        2 SUP2    0.0000
     43 O2C       -1.6012    8.2284   -0.6643 O.3       1 RES1    0.0000
     44 O3C       -1.1671    6.2839    0.3680 O.3       1 RES1    0.0000
     45 C2C        0.6398    7.8311   -0.0054 C.3       1 RES1    0.0000
     46 H1C        0.6363    8.8315    0.0009 H         1 RES1    0.0000
     47 C5C        1.6464    8.3927   -2.3386 C.2       1 RES1    0.0000
     48 C6C        0.4482    8.2599   -3.3092 C.3       1 RES1    0.0000
     49 C7C        0.3143    6.8762   -3.8455 C.3       1 RES1    0.0000
     50 C8C        0.1518    8.9959   -2.6905 C.2       1 RES1    0.0000
     51 C9C        1.3038    5.9709   -1.7092 C.2       1 RES1    0.0000
     52 C11C       3.6866    8.5155    1.6027 C.3       1 RES1    0.0000
     53 C12C       3.7679    8.3877    3.1239 C.3       1 RES1    0.0000
     54 C13C       4.2989    6.9980    3.5295 C.3       1 RES1    0.0000
     55 C14C       3.4496    8.9731    2.9251 C.3       1 RES1    0.0000
     56 C15C       3.3546    6.0115    1.4075 C.2       1 RES1    0.0000
@<TRIPOS>BOND
     1    1    4 1
     2    2   27 1
     3    3   27 1
     4    4    5 1
     5    5    6 1
     6    6    7 1
     7    8    6 1
     8   11    4 1
     9   12    5 1
    10   15   12 1
    11   18   15 1
    12   21   15 1
    13   24    5 1
    14   27    6 1
    15   28   11 1
    16   31   28 1
    17   34   31 1
    18   37   28 1
    19   40   11 1
    20   43    2 1
    21   44    2 1
    22   45    5 1
    23   46   45 1
    24   47    5 1
    25   48   18 1
    26   49   15 1
    27   50   18 1
    28   51    5 1
    29   52   11 1
    30   53   34 1
    31   54   31 1
    32   55   34 1
    33   56   11 1
    34    3   43 1
    35    6   45 1
    36    8   11 1
    37    8   45 1
    38   12   51 1
    39   18   49 1
    40   21   49 1
    41   21   51 1
    42   24   47 1
    43   24   50 1
    44   27   43 1
    45   27   44 1
    46   27   45 1
    47   28   56 1
    48   31   37 1
    49   34   54 1
    50   37   54 1
    51   37   56 1
    52   40   52 1
    53   40   55 1
    54   47   48 1
    55   48   49 1
    56   48   50 1
    57   52   53 1
    58   52   55 1
    59   53   54 1
    60   53   55 1
@<TRIPOS>SUBSTRUCTURE
     1 RES1 1
     2 SUP2 9

@<TRIPOS>CRYSIN
   8.0250    9.9052    8.9614  90.0000  92.4100  90.0000  11 1

