# MOL2 file generated by ConQuest
# Please check atom types

@<TRIPOS>MOLECULE
RENFEY
    33    35     1
SMALL
NO_CHARGES
****
Generated from CSD

@<TRIPOS>ATOM
      1 O1         8.2798    4.1649    1.0493 O.2       1 RES1    0.0000
      2 O2         7.0475    2.7317    2.1036 O.2       1 RES1    0.0000
      3 N1         2.2310    7.9881    2.6074 N.3       1 RES1    0.0000
      4 N2         7.2244    3.8279    1.5723 N.pl3     1 RES1    0.0000
      5 N3         1.1253    8.7450    0.9317 N.2       1 RES1    0.0000
      6 N4         1.1915    8.7680    2.2412 N.2       1 RES1    0.0000
      7 C1         6.1659    5.8775    0.7348 C.ar      1 RES1    0.0000
      8 H1         6.9016    6.0167    0.1843 H         1 RES1    0.0000
      9 C2         6.1053    4.7791    1.5714 C.ar      1 RES1    0.0000
     10 C3         5.0309    4.5260    2.4072 C.ar      1 RES1    0.0000
     11 H2         5.0191    3.7750    2.9552 H         1 RES1    0.0000
     12 C4         3.9765    5.4209    2.4055 C.ar      1 RES1    0.0000
     13 H3         3.2469    5.2714    2.9636 H         1 RES1    0.0000
     14 C5         0.4591    6.5607    4.4758 C.ar      1 RES1    0.0000
     15 H4         0.0353    7.0208    3.7877 H         1 RES1    0.0000
     16 C6         1.7924    6.8264    4.7702 C.ar      1 RES1    0.0000
     17 C7         2.8511    7.4648    1.5222 C.2       1 RES1    0.0000
     18 C8         1.7003    5.1874    6.5544 C.ar      1 RES1    0.0000
     19 H5         2.1178    4.7354    7.2517 H         1 RES1    0.0000
     20 C9         3.9937    6.5458    1.5765 C.ar      1 RES1    0.0000
     21 C10        2.4113    6.1432    5.8195 C.ar      1 RES1    0.0000
     22 H6         3.2992    6.3238    6.0306 H         1 RES1    0.0000
     23 C11        5.0971    6.7689    0.7382 C.ar      1 RES1    0.0000
     24 H7         5.1142    7.5154    0.1827 H         1 RES1    0.0000
     25 C12        2.5879    7.8846    4.0220 C.3       1 RES1    0.0000
     26 H8         2.4436    8.7450    4.4466 H         1 RES1    0.0000
     27 H9         3.5325    7.6753    4.0929 H         1 RES1    0.0000
     28 C13        2.1313    7.9571    0.4546 C.2       1 RES1    0.0000
     29 H10        2.3022    7.7811   -0.4421 H         1 RES1    0.0000
     30 C14        0.3749    4.9125    6.2457 C.ar      1 RES1    0.0000
     31 H11       -0.0947    4.2707    6.7279 H         1 RES1    0.0000
     32 C15       -0.2445    5.6015    5.2115 C.ar      1 RES1    0.0000
     33 H12       -1.1349    5.4255    5.0071 H         1 RES1    0.0000
@<TRIPOS>BOND
     1    1    4 2
     2    2    4 2
     3    3    6 1
     4    4    9 1
     5    5    6 2
     6    7    8 1
     7    9    7 ar
     8   10    9 ar
     9   11   10 1
    10   12   10 ar
    11   13   12 1
    12   14   15 1
    13   16   14 ar
    14   17    3 1
    15   18   19 1
    16   20   12 ar
    17   21   16 ar
    18   22   21 1
    19   23    7 ar
    20   24   23 1
    21   25    3 1
    22   26   25 1
    23   27   25 1
    24   28    5 1
    25   29   28 1
    26   30   18 ar
    27   31   30 1
    28   32   14 ar
    29   33   32 1
    30   16   25 1
    31   17   20 1
    32   17   28 2
    33   18   21 ar
    34   20   23 ar
    35   30   32 ar
@<TRIPOS>SUBSTRUCTURE
     1 RES1 1

@<TRIPOS>CRYSIN
   6.8000   11.5020    8.4630  90.0000  99.7400  90.0000   4 1

