# MOL2 file generated by ConQuest
# Please check atom types

@<TRIPOS>MOLECULE
RENLIH
    48    46     2
SMALL
NO_CHARGES
****
Generated from CSD

@<TRIPOS>ATOM
      1 N1        19.7157    0.4617    3.4222 N.3       1 RES1    0.0000
      2 N2        17.0119    0.7357    3.6917 N.3       1 RES1    0.0000
      3 H1        17.4370    0.8061    4.4580 H         1 RES1    0.0000
      4 O1        20.9157   -0.2539    3.9937 O.3       1 RES1    0.0000
      5 H2        20.7580   -0.4722    4.7900 H         1 RES1    0.0000
      6 C1        18.8669   -0.6583    2.9607 C.3       1 RES1    0.0000
      7 H3        18.7688   -1.2931    3.7269 H         1 RES1    0.0000
      8 C2        17.4688   -0.1487    2.6086 C.3       1 RES1    0.0000
      9 H4        17.5128    0.3713    1.7555 H         1 RES1    0.0000
     10 C3        19.4925   -1.4365    1.8044 C.3       1 RES1    0.0000
     11 H5        20.3810   -1.7548    2.0671 H         1 RES1    0.0000
     12 H6        19.5721   -0.8504    1.0223 H         1 RES1    0.0000
     13 H7        18.9242   -2.2026    1.5824 H         1 RES1    0.0000
     14 C4        16.5106   -1.3174    2.4357 C.3       1 RES1    0.0000
     15 H8        15.6202   -0.9783    2.2035 H         1 RES1    0.0000
     16 H9        16.4594   -1.8244    3.2727 H         1 RES1    0.0000
     17 H10       16.8345   -1.9018    1.7188 H         1 RES1    0.0000
     18 C5        20.2304    1.3765    2.4005 C.3       1 RES1    0.0000
     19 H11       19.4830    1.7000    1.8370 H         1 RES1    0.0000
     20 H12       20.8717    0.8983    1.8186 H         1 RES1    0.0000
     21 C6        20.9181    2.5513    3.0540 C.ar      1 RES1    0.0000
     22 C7        22.3013    2.5931    3.1799 C.ar      1 RES1    0.0000
     23 H13       22.8193    1.8748    2.8349 H         1 RES1    0.0000
     24 C8        22.9377    3.6435    3.7880 C.ar      1 RES1    0.0000
     25 H14       23.8859    3.6522    3.8430 H         1 RES1    0.0000
     26 C9        22.2064    4.6923    4.3226 C.ar      1 RES1    0.0000
     27 H15       22.6487    5.4166    4.7492 H         1 RES1    0.0000
     28 C10       20.8329    4.6740    4.2275 C.ar      1 RES1    0.0000
     29 H16       20.3166    5.3870    4.5843 H         1 RES1    0.0000
     30 C11       20.2111    3.6027    3.6043 C.ar      1 RES1    0.0000
     31 H17       19.2633    3.5914    3.5538 H         1 RES1    0.0000
     32 C12       15.7831    1.4939    3.3896 C.3       1 RES1    0.0000
     33 H18       15.6467    2.1644    4.1036 H         1 RES1    0.0000
     34 H19       15.0158    0.8696    3.4153 H         1 RES1    0.0000
     35 C13       15.7774    2.1922    2.0834 C.ar      1 RES1    0.0000
     36 C14       16.5712    3.3409    1.8207 C.ar      1 RES1    0.0000
     37 H20       17.1035    3.7201    2.5111 H         1 RES1    0.0000
     38 C15       16.5712    3.9140    0.5397 C.ar      1 RES1    0.0000
     39 H21       17.1130    4.6731    0.3584 H         1 RES1    0.0000
     40 C16       15.8172    3.3966   -0.4155 C.ar      1 RES1    0.0000
     41 H22       15.8134    3.7914   -1.2790 H         1 RES1    0.0000
     42 C17       15.0632    2.3261   -0.1731 C.ar      1 RES1    0.0000
     43 H23       14.5289    1.9748   -0.8757 H         1 RES1    0.0000
     44 C18       15.0291    1.7270    1.0230 C.ar      1 RES1    0.0000
     45 H24       14.4778    0.9635    1.1445 H         1 RES1    0.0000
     46 H25       16.1658   -1.0209    4.5619 Du        2 SUP2    0.0000
     47 H26       19.9036    0.5739    4.2747 Du        2 SUP2    0.0000
     48 O2        16.5863   -0.3809    4.9040 Du        2 SUP2    0.0000
@<TRIPOS>BOND
     1    1    4 1
     2    2    3 1
     3    4    5 1
     4    6    1 1
     5    7    6 1
     6    8    2 1
     7    9    8 1
     8   10    6 1
     9   11   10 1
    10   12   10 1
    11   13   10 1
    12   14    8 1
    13   15   14 1
    14   16   14 1
    15   17   14 1
    16   18    1 1
    17   19   18 1
    18   20   18 1
    19   21   18 1
    20   22   21 ar
    21   23   22 1
    22   24   22 ar
    23   25   24 1
    24   26   24 ar
    25   27   26 1
    26   28   26 ar
    27   29   28 1
    28   30   21 ar
    29   31   30 1
    30   32    2 1
    31   33   32 1
    32   34   32 1
    33   35   32 1
    34   36   35 ar
    35   37   36 1
    36   38   36 ar
    37   39   38 1
    38   40   38 ar
    39   41   40 1
    40   42   40 ar
    41   43   42 1
    42   44   35 ar
    43   45   44 1
    44    6    8 1
    45   28   30 ar
    46   42   44 ar
@<TRIPOS>SUBSTRUCTURE
     1 RES1 1
     2 SUP2 46

@<TRIPOS>CRYSIN
  18.9450    8.6958   20.3655  90.0000  90.0000  90.0000  60 1

