# MOL2 file generated by ConQuest
# Please check atom types

@<TRIPOS>MOLECULE
RENTUZ
    28    28     1
SMALL
NO_CHARGES
****
Generated from CSD

@<TRIPOS>ATOM
      1 O1         2.3866    1.4725    4.6755 O.2       1 RES1    0.0000
      2 O2         1.9032    2.8036    6.3103 O.2       1 RES1    0.0000
      3 N1         3.5994    2.6433    2.3930 N.3       1 RES1    0.0000
      4 N2         2.2972    2.6183    5.1436 N.pl3     1 RES1    0.0000
      5 N3         2.3860    5.5819    5.9062 N.3       1 RES1    0.0000
      6 N4         2.1003    4.3372    2.0388 N.ar      1 RES1    0.0000
      7 N5         1.5116    5.8276    3.8121 N.ar      1 RES1    0.0000
      8 C1         2.5557    3.7252    4.3187 C.ar      1 RES1    0.0000
      9 C2         2.7715    3.5428    2.9084 C.ar      1 RES1    0.0000
     10 C3         2.1570    5.0521    4.7062 C.ar      1 RES1    0.0000
     11 C4         1.4515    5.3530    2.5762 C.ar      1 RES1    0.0000
     12 C5         3.3723    5.0621    6.8414 C.3       1 RES1    0.0000
     13 C6         4.6177    1.9577    3.1801 C.3       1 RES1    0.0000
     14 C7         1.7911    6.8626    6.2726 C.3       1 RES1    0.0000
     15 C8         3.6698    2.4203    0.9493 C.3       1 RES1    0.0000
     16 H1         0.8658    5.8850    1.9731 H         1 RES1    0.0000
     17 H2         3.9410    4.3728    6.4207 H         1 RES1    0.0000
     18 H3         3.9098    5.8051    7.2131 H         1 RES1    0.0000
     19 H4         2.9708    4.6742    7.6303 H         1 RES1    0.0000
     20 H5         4.6886    2.3928    4.0619 H         1 RES1    0.0000
     21 H6         4.4589    1.0025    3.2792 H         1 RES1    0.0000
     22 H7         5.5301    2.0914    2.7147 H         1 RES1    0.0000
     23 H8         2.3021    7.5794    5.9386 H         1 RES1    0.0000
     24 H9         1.6607    6.9399    7.2000 H         1 RES1    0.0000
     25 H10        0.8732    6.9687    5.9456 H         1 RES1    0.0000
     26 H11        2.7846    2.5422    0.5522 H         1 RES1    0.0000
     27 H12        4.3596    2.9353    0.5584 H         1 RES1    0.0000
     28 H13        3.7673    1.4794    0.7284 H         1 RES1    0.0000
@<TRIPOS>BOND
     1    1    4 2
     2    2    4 2
     3    3    9 1
     4    4    8 1
     5    5   10 1
     6    6    9 ar
     7    7   10 ar
     8    8    9 ar
     9   10    8 ar
    10   11    6 ar
    11   12    5 1
    12   13    3 1
    13   14    5 1
    14   15    3 1
    15   16   11 1
    16   17   12 1
    17   18   12 1
    18   19   12 1
    19   20   13 1
    20   21   13 1
    21   22   13 1
    22   23   14 1
    23   24   14 1
    24   25   14 1
    25   26   15 1
    26   27   15 1
    27   28   15 1
    28    7   11 ar
@<TRIPOS>SUBSTRUCTURE
     1 RES1 1

@<TRIPOS>CRYSIN
   8.9610   13.1040    8.9570  90.0000 101.8700  90.0000 231 1

