# MOL2 file generated by ConQuest
# Please check atom types

@<TRIPOS>MOLECULE
REPXUG
    19    20     1
SMALL
NO_CHARGES
****
Generated from CSD

@<TRIPOS>ATOM
      1 O1         3.3253    5.5113    1.9480 O.2       1 RES1    0.0000
      2 N1         2.9623    6.7254    1.8241 N.pl3     1 RES1    0.0000
      3 C1         1.7182    6.9910    1.1716 C.ar      1 RES1    0.0000
      4 N2         3.7292    7.6733    2.2953 N.ar      1 RES1    0.0000
      5 C2         3.2832    8.9572    2.1172 C.ar      1 RES1    0.0000
      6 N3         1.2897    8.1932    1.0079 N.ar      1 RES1    0.0000
      7 C3         2.0577    9.2329    1.4669 C.ar      1 RES1    0.0000
      8 C4         1.6409   10.5619    1.2859 C.ar      1 RES1    0.0000
      9 H1         0.8195   10.7493    0.8474 H         1 RES1    0.0000
     10 C5         2.4257   11.5849    1.7460 C.ar      1 RES1    0.0000
     11 H2         2.1502   12.4851    1.6202 H         1 RES1    0.0000
     12 C6         3.6474   11.3092    2.4096 C.ar      1 RES1    0.0000
     13 H3         4.1775   12.0284    2.7320 H         1 RES1    0.0000
     14 C7         4.0751   10.0232    2.5934 C.ar      1 RES1    0.0000
     15 H4         4.8971    9.8500    3.0370 H         1 RES1    0.0000
     16 C8         0.9758    5.8014    0.6940 C.3       1 RES1    0.0000
     17 H5         0.1335    6.0859    0.2820 H         1 RES1    0.0000
     18 H6         0.7848    5.2091    1.4521 H         1 RES1    0.0000
     19 H7         1.5175    5.3217    0.0325 H         1 RES1    0.0000
@<TRIPOS>BOND
     1    1    2 1
     2    2    3 ar
     3    3    6 ar
     4    4    2 ar
     5    5    4 ar
     6    6    7 ar
     7    7    5 ar
     8    8    7 ar
     9    9    8 1
    10   10    8 ar
    11   11   10 1
    12   12   10 ar
    13   13   12 1
    14   14    5 ar
    15   15   14 1
    16   16    3 1
    17   17   16 1
    18   18   16 1
    19   19   16 1
    20   12   14 ar
@<TRIPOS>SUBSTRUCTURE
     1 RES1 1

@<TRIPOS>CRYSIN
   5.7193    9.3774   13.8427  90.0000 101.6370  90.0000  14 1

