# MOL2 file generated by ConQuest
# Please check atom types

@<TRIPOS>MOLECULE
REQROV
    65    69     1
SMALL
NO_CHARGES
****
Generated from CSD

@<TRIPOS>ATOM
      1 O1        -0.6247    6.2688    7.1717 O.3       1 RES1    0.0000
      2 C1        -0.0264    6.7212    8.2985 C.2       1 RES1    0.0000
      3 C2        -0.8971    7.0229    9.2710 C.2       1 RES1    0.0000
      4 C3         1.4405    6.7054    8.2150 C.ar      1 RES1    0.0000
      5 C4         2.2195    6.4408    9.3068 C.ar      1 RES1    0.0000
      6 H1         1.8450    6.3111   10.0823 H         1 RES1    0.0000
      7 C5         3.5897    6.4011    9.2232 C.ar      1 RES1    0.0000
      8 H2         4.1097    6.0994    9.9183 H         1 RES1    0.0000
      9 C6         4.2010    6.6048    8.0137 C.ar      1 RES1    0.0000
     10 H3         5.1423    6.5889    7.9495 H         1 RES1    0.0000
     11 C7         3.4493    6.8443    6.8980 C.ar      1 RES1    0.0000
     12 H4         3.8097    6.8139    5.9957 H         1 RES1    0.0000
     13 C8         2.0798    6.9144    6.9935 C.ar      1 RES1    0.0000
     14 H5         1.4624    6.9329    6.3089 H         1 RES1    0.0000
     15 C9        -0.6474    7.7043   10.5477 C.2       1 RES1    0.0000
     16 O2        -1.3789    7.5045   11.5141 O.2       1 RES1    0.0000
     17 C10        0.4086    8.7667   10.6312 C.ar      1 RES1    0.0000
     18 C11        1.0870    8.9083   11.8333 C.ar      1 RES1    0.0000
     19 H6         1.0736    8.3486   12.4836 H         1 RES1    0.0000
     20 C12        1.9958    9.9456   11.9690 C.ar      1 RES1    0.0000
     21 H7         2.4987   10.0237   12.7491 H         1 RES1    0.0000
     22 C13        2.1565   10.8532   10.9623 C.ar      1 RES1    0.0000
     23 H8         2.6823   11.7225   11.1860 H         1 RES1    0.0000
     24 C14        1.4796   10.7143    9.7870 C.ar      1 RES1    0.0000
     25 H9         1.5725   11.4182    9.0234 H         1 RES1    0.0000
     26 C15        0.5990    9.6585    9.6200 C.ar      1 RES1    0.0000
     27 H10        0.0018    9.5526    8.7698 H         1 RES1    0.0000
     28 C16       -2.2848    6.6035    8.8041 C.3       1 RES1    0.0000
     29 C17       -3.3140    7.7016    9.1069 C.ar      1 RES1    0.0000
     30 C18       -4.2860    7.5310   10.0570 C.ar      1 RES1    0.0000
     31 H11       -4.2797    6.7080   10.6640 H         1 RES1    0.0000
     32 C19       -5.1746    8.5365   10.3448 C.ar      1 RES1    0.0000
     33 H12       -5.8166    8.4677   10.9325 H         1 RES1    0.0000
     34 C20       -5.0996    9.7035    9.6543 C.ar      1 RES1    0.0000
     35 N1        -6.0664   10.7844    9.9257 N.pl3     1 RES1    0.0000
     36 O3        -5.9253   11.8310    9.3560 O.2       1 RES1    0.0000
     37 O4        -6.9700   10.5516   10.7058 O.2       1 RES1    0.0000
     38 C21       -4.1568    9.9112    8.6982 C.ar      1 RES1    0.0000
     39 H13       -4.1385   10.6905    8.1732 H         1 RES1    0.0000
     40 C22       -3.2395    8.9043    8.4298 C.ar      1 RES1    0.0000
     41 H14       -2.6410    9.0102    7.8153 H         1 RES1    0.0000
     42 N2        -2.7956    5.2778    9.1994 N.3       1 RES1    0.0000
     43 C23       -2.3756    4.7591   10.4805 C.3       1 RES1    0.0000
     44 H15       -1.3136    4.6440   10.3806 H         1 RES1    0.0000
     45 H16       -2.8401    3.9031   10.6491 H         1 RES1    0.0000
     46 H17       -2.5727    5.3320   11.1860 H         1 RES1    0.0000
     47 C24       -2.7295    4.3371    8.0390 C.3       1 RES1    0.0000
     48 C25       -1.4562    3.4876    8.0420 C.3       1 RES1    0.0000
     49 H18       -1.5508    2.8975    9.0383 H         1 RES1    0.0000
     50 H19       -0.6005    4.2206    8.0987 H         1 RES1    0.0000
     51 C26       -3.9333    3.4122    8.1076 C.3       1 RES1    0.0000
     52 H20       -4.8845    4.0486    8.1583 H         1 RES1    0.0000
     53 H21       -3.8447    2.8711    8.9339 H         1 RES1    0.0000
     54 H22       -4.0664    2.8049    7.4126 H         1 RES1    0.0000
     55 C27       -2.8101    5.3373    6.8667 C.3       1 RES1    0.0000
     56 C28       -2.2159    4.8385    5.5468 C.3       1 RES1    0.0000
     57 H23       -1.4728    2.9902    7.5021 H         1 RES1    0.0000
     58 H24       -2.6470    4.1942    5.3544 H         1 RES1    0.0000
     59 H25       -1.1321    4.5382    5.5483 H         1 RES1    0.0000
     60 H26       -2.3690    5.7157    4.7578 H         1 RES1    0.0000
     61 C29       -4.2207    5.8440    6.6027 C.3       1 RES1    0.0000
     62 H27       -4.6921    5.1997    6.1299 H         1 RES1    0.0000
     63 H28       -4.5842    6.0994    7.2784 H         1 RES1    0.0000
     64 H29       -4.0911    6.6286    5.9062 H         1 RES1    0.0000
     65 N3        -2.0695    6.5506    7.3335 N.3       1 RES1    0.0000
@<TRIPOS>BOND
     1    1    2 1
     2    2    3 2
     3    3   15 1
     4    4    2 1
     5    5    4 ar
     6    6    5 1
     7    7    5 ar
     8    8    7 1
     9    9    7 ar
    10   10    9 1
    11   11    9 ar
    12   12   11 1
    13   13    4 ar
    14   14   13 1
    15   15   16 2
    16   17   15 1
    17   18   17 ar
    18   19   18 1
    19   20   18 ar
    20   21   20 1
    21   22   20 ar
    22   23   22 1
    23   24   22 ar
    24   25   24 1
    25   26   17 ar
    26   27   26 1
    27   28    3 1
    28   29   28 1
    29   30   29 ar
    30   31   30 1
    31   32   30 ar
    32   33   32 1
    33   34   32 ar
    34   35   34 1
    35   36   35 2
    36   37   35 2
    37   38   34 ar
    38   39   38 1
    39   40   29 ar
    40   41   40 1
    41   42   28 1
    42   43   42 1
    43   44   43 1
    44   45   43 1
    45   46   43 1
    46   47   42 1
    47   48   47 1
    48   49   48 1
    49   50   48 1
    50   51   47 1
    51   52   51 1
    52   53   51 1
    53   54   51 1
    54   55   47 1
    55   56   55 1
    56   57   48 1
    57   58   56 1
    58   59   56 1
    59   60   56 1
    60   61   55 1
    61   62   61 1
    62   63   61 1
    63   64   61 1
    64   65    1 1
    65   11   13 ar
    66   24   26 ar
    67   28   65 1
    68   38   40 ar
    69   55   65 1
@<TRIPOS>SUBSTRUCTURE
     1 RES1 1

@<TRIPOS>CRYSIN
  26.1440   13.2308   19.2560  90.0000 129.2360  90.0000  15 1

