# MOL2 file generated by ConQuest
# Please check atom types

@<TRIPOS>MOLECULE
REQRAH
   106   112     2
SMALL
NO_CHARGES
****
Generated from CSD

@<TRIPOS>ATOM
      1 C1         4.9875    5.5797    1.5549 C.3       1 RES1    0.0000
      2 C2         4.3231    4.4114    2.3194 C.3       1 RES1    0.0000
      3 N1         4.0448    3.4849    1.1814 N.3       1 RES1    0.0000
      4 C3         5.0172    3.7148    0.0901 C.3       1 RES1    0.0000
      5 N2         5.7714    4.9473    0.4632 N.3       1 RES1    0.0000
      6 C4         6.1360    2.6937   -0.0220 C.2       1 RES1    0.0000
      7 C5         7.2248    3.1898    0.5938 C.2       1 RES1    0.0000
      8 O1         7.0635    4.4507    1.0439 O.3       1 RES1    0.0000
      9 C6         3.9623    6.4483    0.8000 C.3       1 RES1    0.0000
     10 H1         3.2857    5.8936    0.2735 H         1 RES1    0.0000
     11 H2         4.4540    7.0325    0.1231 H         1 RES1    0.0000
     12 H3         3.5196    6.9585    1.4770 H         1 RES1    0.0000
     13 C7         5.8664    6.5090    2.3946 C.3       1 RES1    0.0000
     14 H4         6.5844    6.0690    2.8445 H         1 RES1    0.0000
     15 H5         5.2195    6.8998    3.1317 H         1 RES1    0.0000
     16 H6         6.3190    7.1932    1.8052 H         1 RES1    0.0000
     17 C8         5.2118    3.7919    3.4189 C.3       1 RES1    0.0000
     18 H7         6.1205    3.4427    3.0223 H         1 RES1    0.0000
     19 H8         4.7264    2.9492    3.7471 H         1 RES1    0.0000
     20 H9         5.3469    4.4922    4.0890 H         1 RES1    0.0000
     21 C9         2.9863    4.7919    2.9717 C.3       1 RES1    0.0000
     22 H10        2.3507    5.1273    2.3112 H         1 RES1    0.0000
     23 H11        3.1504    5.4984    3.6377 H         1 RES1    0.0000
     24 H12        2.6633    3.9924    3.4873 H         1 RES1    0.0000
     25 C10        3.7676    2.0880    1.5125 C.3       1 RES1    0.0000
     26 H13        3.4243    1.5606    0.6154 H         1 RES1    0.0000
     27 H14        3.0230    2.0622    2.2702 H         1 RES1    0.0000
     28 H15        4.6359    1.6082    1.9146 H         1 RES1    0.0000
     29 C11        4.3076    3.9691   -1.2407 C.ar      1 RES1    0.0000
     30 C12        4.9852    4.5954   -2.2674 C.ar      1 RES1    0.0000
     31 H16        5.9096    4.9458   -2.1430 H         1 RES1    0.0000
     32 C13        4.3647    4.8540   -3.4750 C.ar      1 RES1    0.0000
     33 H17        4.8361    5.3663   -4.1984 H         1 RES1    0.0000
     34 C14        3.0488    4.4986   -3.6610 C.ar      1 RES1    0.0000
     35 H18        2.6080    4.7429   -4.5540 H         1 RES1    0.0000
     36 C15        2.3783    3.8697   -2.6572 C.ar      1 RES1    0.0000
     37 H19        1.4573    3.5996   -2.7762 H         1 RES1    0.0000
     38 C16        2.9917    3.6019   -1.4400 C.ar      1 RES1    0.0000
     39 H20        2.5336    3.0863   -0.7248 H         1 RES1    0.0000
     40 C17        8.5544    2.6198    0.8479 C.ar      1 RES1    0.0000
     41 C18        9.7018    3.3853    0.6660 C.ar      1 RES1    0.0000
     42 H21        9.5664    4.3346    0.3829 H         1 RES1    0.0000
     43 C19       10.9491    2.8350    0.8780 C.ar      1 RES1    0.0000
     44 H22       11.7052    3.4140    0.6564 H         1 RES1    0.0000
     45 C20       11.0560    1.5323    1.2814 C.ar      1 RES1    0.0000
     46 H23       11.8948    1.1106    1.4496 H         1 RES1    0.0000
     47 C21        9.9414    0.7663    1.4947 C.ar      1 RES1    0.0000
     48 H24        9.9689   -0.2063    1.7095 H         1 RES1    0.0000
     49 C22        8.6859    1.2995    1.2759 C.ar      1 RES1    0.0000
     50 H25        7.9177    0.8033    1.4633 H         1 RES1    0.0000
     51 C23        6.1120    1.4556   -0.7563 C.2       1 RES1    0.0000
     52 H26        7.0281    0.9501   -0.7891 H         1 RES1    0.0000
     53 O2         5.1408    0.9833   -1.3217 O.2       1 RES1    0.0000
     54 C24        6.0979    9.8795    5.7792 C.3       2 RES2    0.0000
     55 C25        6.6723   10.4946    4.4688 C.3       2 RES2    0.0000
     56 N3         7.2588   11.7329    5.0157 N.3       2 RES2    0.0000
     57 C26        6.4450   12.2551    6.1162 C.3       2 RES2    0.0000
     58 N4         5.6401   11.0675    6.5836 N.3       2 RES2    0.0000
     59 C27        5.3565   13.2557    5.7658 C.2       2 RES2    0.0000
     60 C28        4.1617   12.6555    5.8435 C.2       2 RES2    0.0000
     61 O3         4.2278   11.3589    6.2068 O.3       2 RES2    0.0000
     62 C29        4.9806    8.8635    5.6029 C.3       2 RES2    0.0000
     63 H27        4.6151    8.5871    6.5233 H         2 RES2    0.0000
     64 H28        5.3614    8.1346    5.1557 H         2 RES2    0.0000
     65 H29        4.2268    9.1909    5.0600 H         2 RES2    0.0000
     66 C30        7.1876    9.2520    6.6423 C.3       2 RES2    0.0000
     67 H30        6.7721    8.9917    7.5079 H         2 RES2    0.0000
     68 H31        7.9410    9.9260    6.8105 H         2 RES2    0.0000
     69 H32        7.5764    8.5011    6.2087 H         2 RES2    0.0000
     70 C31        7.7792    9.6402    3.8470 C.3       2 RES2    0.0000
     71 H33        8.0169   10.0973    2.9813 H         2 RES2    0.0000
     72 H34        7.4247    8.6722    3.7881 H         2 RES2    0.0000
     73 H35        8.5814    9.6541    4.3899 H         2 RES2    0.0000
     74 C32        5.6039   10.7210    3.3834 C.3       2 RES2    0.0000
     75 H36        5.9603   11.2697    2.6531 H         2 RES2    0.0000
     76 H37        4.8409   11.2780    3.7881 H         2 RES2    0.0000
     77 H38        5.2925    9.8106    2.9813 H         2 RES2    0.0000
     78 C33        7.7704   12.7105    4.0617 C.3       2 RES2    0.0000
     79 H39        8.2361   13.4772    4.5677 H         2 RES2    0.0000
     80 H40        7.0281   13.1192    3.4052 H         2 RES2    0.0000
     81 H41        8.4409   12.2528    3.4873 H         2 RES2    0.0000
     82 C34        7.3274   12.7447    7.2705 C.ar      2 RES2    0.0000
     83 C35        6.7384   13.3756    8.3558 C.ar      2 RES2    0.0000
     84 H42        5.7554   13.5741    8.3503 H         2 RES2    0.0000
     85 C36        7.4968   13.7952    9.4307 C.ar      2 RES2    0.0000
     86 H43        7.0341   14.2343   10.1747 H         2 RES2    0.0000
     87 C37        8.8530   13.5840    9.4403 C.ar      2 RES2    0.0000
     88 H44        9.2943   13.8413   10.2020 H         2 RES2    0.0000
     89 C38        9.4519   12.9702    8.3750 C.ar      2 RES2    0.0000
     90 H45       10.3917   12.7999    8.3695 H         2 RES2    0.0000
     91 C39        8.6988   12.5523    7.2782 C.ar      2 RES2    0.0000
     92 H46        9.1099   12.0974    6.5370 H         2 RES2    0.0000
     93 C40        2.7872   13.1093    5.5824 C.ar      2 RES2    0.0000
     94 C41        1.9152   12.2670    4.8959 C.ar      2 RES2    0.0000
     95 H47        2.1945   11.3600    4.6497 H         2 RES2    0.0000
     96 C42        0.6331   12.6790    4.6018 C.ar      2 RES2    0.0000
     97 H48        0.0129   12.0154    4.1027 H         2 RES2    0.0000
     98 C43        0.2165   13.9242    5.0203 C.ar      2 RES2    0.0000
     99 H49       -0.6089   14.2123    4.7454 H         2 RES2    0.0000
    100 C44        1.0625   14.7467    5.7027 C.ar      2 RES2    0.0000
    101 H50        0.7472   15.6431    6.0173 H         2 RES2    0.0000
    102 C45        2.3353   14.3479    5.9940 C.ar      2 RES2    0.0000
    103 H51        2.9412   14.8910    6.5506 H         2 RES2    0.0000
    104 C46        5.5579   14.6388    5.4019 C.2       2 RES2    0.0000
    105 H52        4.7506   15.1084    5.1967 H         2 RES2    0.0000
    106 O4         6.6199   15.2415    5.4413 O.2       2 RES2    0.0000
@<TRIPOS>BOND
     1    1    2 1
     2    2    3 1
     3    3    4 1
     4    4    5 1
     5    5    1 1
     6    6    4 1
     7    7    6 2
     8    8    5 1
     9    9    1 1
    10   10    9 1
    11   11    9 1
    12   12    9 1
    13   13    1 1
    14   14   13 1
    15   15   13 1
    16   16   13 1
    17   17    2 1
    18   18   17 1
    19   19   17 1
    20   20   17 1
    21   21    2 1
    22   22   21 1
    23   23   21 1
    24   24   21 1
    25   25    3 1
    26   26   25 1
    27   27   25 1
    28   28   25 1
    29   29    4 1
    30   30   29 ar
    31   31   30 1
    32   32   30 ar
    33   33   32 1
    34   34   32 ar
    35   35   34 1
    36   36   34 ar
    37   37   36 1
    38   38   29 ar
    39   39   38 1
    40   40    7 1
    41   41   40 ar
    42   42   41 1
    43   43   41 ar
    44   44   43 1
    45   45   43 ar
    46   46   45 1
    47   47   45 ar
    48   48   47 1
    49   49   40 ar
    50   50   49 1
    51   51    6 1
    52   52   51 1
    53   53   51 2
    54   54   55 1
    55   55   56 1
    56   56   57 1
    57   57   58 1
    58   58   54 1
    59   59   57 1
    60   60   59 2
    61   61   58 1
    62   62   54 1
    63   63   62 1
    64   64   62 1
    65   65   62 1
    66   66   54 1
    67   67   66 1
    68   68   66 1
    69   69   66 1
    70   70   55 1
    71   71   70 1
    72   72   70 1
    73   73   70 1
    74   74   55 1
    75   75   74 1
    76   76   74 1
    77   77   74 1
    78   78   56 1
    79   79   78 1
    80   80   78 1
    81   81   78 1
    82   82   57 1
    83   83   82 ar
    84   84   83 1
    85   85   83 ar
    86   86   85 1
    87   87   85 ar
    88   88   87 1
    89   89   87 ar
    90   90   89 1
    91   91   82 ar
    92   92   91 1
    93   93   60 1
    94   94   93 ar
    95   95   94 1
    96   96   94 ar
    97   97   96 1
    98   98   96 ar
    99   99   98 1
   100  100   98 ar
   101  101  100 1
   102  102   93 ar
   103  103  102 1
   104  104   59 1
   105  105  104 1
   106  106  104 2
   107    7    8 1
   108   36   38 ar
   109   47   49 ar
   110   60   61 1
   111   89   91 ar
   112  100  102 ar
@<TRIPOS>SUBSTRUCTURE
     1 RES1 1
     2 RES2 54

@<TRIPOS>CRYSIN
  11.3300   13.7390   14.9050  66.6590  80.8910  71.5000   2 1

