# MOL2 file generated by ConQuest
# Please check atom types

@<TRIPOS>MOLECULE
REQREL
    62    65     1
SMALL
NO_CHARGES
****
Generated from CSD

@<TRIPOS>ATOM
      1 O1         9.3945    2.6961    4.3316 O.3       1 RES1    0.0000
      2 N1        10.4739    2.9512    3.3662 N.3       1 RES1    0.0000
      3 O2         7.4773    4.4242    0.6740 O.2       1 RES1    0.0000
      4 N2        10.3521    4.3509    1.5250 N.3       1 RES1    0.0000
      5 H1         9.8200    4.6406    0.9168 H         1 RES1    0.0000
      6 C1         8.3110    3.1321    2.4084 C.2       1 RES1    0.0000
      7 C2         9.8046    3.1084    2.0483 C.3       1 RES1    0.0000
      8 C3         5.9161    2.8683    1.4953 C.ar      1 RES1    0.0000
      9 C4         8.1928    2.9039    3.7166 C.2       1 RES1    0.0000
     10 C5         7.0582    2.9351    4.6512 C.ar      1 RES1    0.0000
     11 C6        10.1623    1.9208    1.1077 C.3       1 RES1    0.0000
     12 C7         6.0303    3.8481    4.4907 C.ar      1 RES1    0.0000
     13 H2         6.0301    4.4898    3.7752 H         1 RES1    0.0000
     14 C8         7.2461    3.5445    1.4835 C.2       1 RES1    0.0000
     15 C9         5.7329    1.5806    1.9325 C.ar      1 RES1    0.0000
     16 H3         6.5124    1.1198    2.1986 H         1 RES1    0.0000
     17 C10        4.8105    3.5779    1.0229 C.ar      1 RES1    0.0000
     18 H4         5.0089    4.5006    0.7496 H         1 RES1    0.0000
     19 C11       11.1550    4.2680    3.7052 C.3       1 RES1    0.0000
     20 C12       10.6447    5.2575    2.6372 C.3       1 RES1    0.0000
     21 C13        7.0296    2.0899    5.7437 C.ar      1 RES1    0.0000
     22 H5         7.8258    1.5397    5.8605 H         1 RES1    0.0000
     23 C14        9.6753    0.6062    1.7312 C.3       1 RES1    0.0000
     24 H6         9.9556   -0.1400    1.1865 H         1 RES1    0.0000
     25 H7         8.6664    0.5168    1.6934 H         1 RES1    0.0000
     26 H8         9.8369    0.5168    2.6606 H         1 RES1    0.0000
     27 C15        3.5625    2.9814    1.0229 C.ar      1 RES1    0.0000
     28 H9         2.8719    3.5639    0.7191 H         1 RES1    0.0000
     29 C16       11.6937    1.8325    0.9564 C.3       1 RES1    0.0000
     30 H10       12.0048    2.6487    0.5753 H         1 RES1    0.0000
     31 H11       11.9041    1.1844    0.3416 H         1 RES1    0.0000
     32 H12       12.1703    1.5827    1.7977 H         1 RES1    0.0000
     33 C17        3.4058    1.6926    1.4579 C.ar      1 RES1    0.0000
     34 H13        2.4877    1.2490    1.4741 H         1 RES1    0.0000
     35 C18        4.9813    3.8987    5.3787 C.ar      1 RES1    0.0000
     36 H14        4.2636    4.5867    5.3212 H         1 RES1    0.0000
     37 C19        4.9642    3.0557    6.4483 C.ar      1 RES1    0.0000
     38 H15        4.2708    3.1332    6.9931 H         1 RES1    0.0000
     39 C20        4.4944    0.9895    1.9020 C.ar      1 RES1    0.0000
     40 H16        4.4336    0.0969    2.2291 H         1 RES1    0.0000
     41 C21        5.9790    2.1620    6.6443 C.ar      1 RES1    0.0000
     42 H17        6.0393    1.5504    7.2807 H         1 RES1    0.0000
     43 C22        9.5169    2.0856   -0.2463 C.3       1 RES1    0.0000
     44 H18        9.7134    2.8210   -0.6472 H         1 RES1    0.0000
     45 H19        8.4254    2.0673   -0.1798 H         1 RES1    0.0000
     46 H20        9.8741    1.3566   -0.7910 H         1 RES1    0.0000
     47 C23       10.9056    4.6955    5.1360 C.3       1 RES1    0.0000
     48 H21        9.8533    4.9205    5.1774 H         1 RES1    0.0000
     49 H22       11.3890    5.5127    5.2313 H         1 RES1    0.0000
     50 H23       11.3021    3.9407    5.6987 H         1 RES1    0.0000
     51 C24       12.6635    3.9655    3.5576 C.3       1 RES1    0.0000
     52 H24       12.8682    3.8008    2.5168 H         1 RES1    0.0000
     53 H25       12.9468    3.1547    4.2066 H         1 RES1    0.0000
     54 H26       13.2110    4.7267    3.8291 H         1 RES1    0.0000
     55 C25       11.6921    6.2739    2.1806 C.3       1 RES1    0.0000
     56 H27       12.5329    5.8357    1.7258 H         1 RES1    0.0000
     57 H28       12.0155    6.8047    2.8943 H         1 RES1    0.0000
     58 H29       11.1665    6.9339    1.6359 H         1 RES1    0.0000
     59 C26        9.3842    6.0500    3.0723 C.3       1 RES1    0.0000
     60 H30        8.6679    5.4266    3.5415 H         1 RES1    0.0000
     61 H31        9.1470    6.6002    2.0674 H         1 RES1    0.0000
     62 H32        9.5631    6.7509    3.7212 H         1 RES1    0.0000
@<TRIPOS>BOND
     1    1    2 1
     2    2    7 1
     3    3   14 2
     4    4    5 1
     5    6    7 1
     6    7    4 1
     7    8   14 1
     8    9    1 1
     9   10    9 1
    10   11    7 1
    11   12   10 ar
    12   13   12 1
    13   14    6 1
    14   15    8 ar
    15   16   15 1
    16   17    8 ar
    17   18   17 1
    18   19    2 1
    19   20    4 1
    20   21   10 ar
    21   22   21 1
    22   23   11 1
    23   24   23 1
    24   25   23 1
    25   26   23 1
    26   27   17 ar
    27   28   27 1
    28   29   11 1
    29   30   29 1
    30   31   29 1
    31   32   29 1
    32   33   27 ar
    33   34   33 1
    34   35   12 ar
    35   36   35 1
    36   37   35 ar
    37   38   37 1
    38   39   15 ar
    39   40   39 1
    40   41   21 ar
    41   42   41 1
    42   43   11 1
    43   44   43 1
    44   45   43 1
    45   46   43 1
    46   47   19 1
    47   48   47 1
    48   49   47 1
    49   50   47 1
    50   51   19 1
    51   52   51 1
    52   53   51 1
    53   54   51 1
    54   55   20 1
    55   56   55 1
    56   57   55 1
    57   58   55 1
    58   59   20 1
    59   60   59 1
    60   61   59 1
    61   62   59 1
    62    6    9 2
    63   19   20 1
    64   33   39 ar
    65   37   41 ar
@<TRIPOS>SUBSTRUCTURE
     1 RES1 1

@<TRIPOS>CRYSIN
  12.0110   10.7670   17.9860  90.0000  91.8130  90.0000  14 1

