# MOL2 file generated by ConQuest
# Please check atom types

@<TRIPOS>MOLECULE
REQRIP
    46    48     1
SMALL
NO_CHARGES
****
Generated from CSD

@<TRIPOS>ATOM
      1 C1         7.7698    9.6992    0.3333 C.2       1 RES1    0.0000
      2 O1         6.3487    9.4330    3.6491 O.3       1 RES1    0.0000
      3 O2         8.3595    9.0141   -0.4767 O.2       1 RES1    0.0000
      4 C2         7.4039    9.2918    1.6655 C.2       1 RES1    0.0000
      5 N1         6.6131    7.9769    3.4377 N.3       1 RES1    0.0000
      6 C3         6.7565   10.0788    2.5422 C.2       1 RES1    0.0000
      7 N2         8.8384    7.5051    2.8084 N.3       1 RES1    0.0000
      8 C4         7.5242    7.8937    2.2525 C.3       1 RES1    0.0000
      9 C5         8.8763    7.7930    4.2517 C.3       1 RES1    0.0000
     10 C6         7.4004    7.4841    4.6157 C.3       1 RES1    0.0000
     11 C7         6.4380   11.5133    2.5231 C.ar      1 RES1    0.0000
     12 C8         5.2006   11.9543    2.9528 C.ar      1 RES1    0.0000
     13 C9         7.1219    5.9791    4.6373 C.3       1 RES1    0.0000
     14 C10        9.3138    9.2207    4.6071 C.3       1 RES1    0.0000
     15 C11        7.3635   12.4344    2.0636 C.ar      1 RES1    0.0000
     16 C12        4.8797   13.2937    2.9021 C.ar      1 RES1    0.0000
     17 C13        9.9896    7.9103    2.0279 C.3       1 RES1    0.0000
     18 C14        9.8593    6.8420    4.9348 C.3       1 RES1    0.0000
     19 C15        7.0388    6.8270    1.2813 C.3       1 RES1    0.0000
     20 C16        7.0239   13.7808    2.0239 C.ar      1 RES1    0.0000
     21 C17        6.9114    8.0838    5.9162 C.3       1 RES1    0.0000
     22 C18        5.7870   14.2009    2.4285 C.ar      1 RES1    0.0000
     23 H1         7.0195    9.0684    5.9761 H         1 RES1    0.0000
     24 H2         7.5010    5.5992    5.4574 H         1 RES1    0.0000
     25 H3         7.5102    5.5426    3.8846 H         1 RES1    0.0000
     26 H4         7.5075   10.6356    0.0722 H         1 RES1    0.0000
     27 H5         6.1349    5.8175    4.6378 H         1 RES1    0.0000
     28 H6         5.9775    7.9111    6.0282 H         1 RES1    0.0000
     29 H7         9.2638    9.3343    5.5995 H         1 RES1    0.0000
     30 H8         8.2289   12.1529    1.8168 H         1 RES1    0.0000
     31 H9        10.2543    9.3313    4.3003 H         1 RES1    0.0000
     32 H10        7.6733    6.7180    0.5495 H         1 RES1    0.0000
     33 H11        9.8025    6.9429    5.9204 H         1 RES1    0.0000
     34 H12        6.1779    7.0646    0.8871 H         1 RES1    0.0000
     35 H13        8.7454    9.9397    4.1605 H         1 RES1    0.0000
     36 H14       10.7520    7.1023    4.6497 H         1 RES1    0.0000
     37 H15       10.0881    8.9021    1.9672 H         1 RES1    0.0000
     38 H16        6.9130    5.9727    1.7173 H         1 RES1    0.0000
     39 H17        9.9004    7.5006    1.0837 H         1 RES1    0.0000
     40 H18        7.3983    7.7030    6.6962 H         1 RES1    0.0000
     41 H19        9.7244    5.9121    4.6828 H         1 RES1    0.0000
     42 H20       10.8091    7.6002    2.4681 H         1 RES1    0.0000
     43 H21        4.5593   11.3420    3.2782 H         1 RES1    0.0000
     44 H22        7.7085   14.3389    1.6462 H         1 RES1    0.0000
     45 H23        4.0077   13.5907    3.1965 H         1 RES1    0.0000
     46 H24        5.5292   15.1411    2.4160 H         1 RES1    0.0000
@<TRIPOS>BOND
     1    1    3 2
     2    2    5 1
     3    4    1 1
     4    5    8 1
     5    6    2 1
     6    7    8 1
     7    8    4 1
     8    9    7 1
     9   10    5 1
    10   11    6 1
    11   12   11 ar
    12   13   10 1
    13   14    9 1
    14   15   11 ar
    15   16   12 ar
    16   17    7 1
    17   18    9 1
    18   19    8 1
    19   20   15 ar
    20   21   10 1
    21   22   16 ar
    22   23   21 1
    23   24   13 1
    24   25   13 1
    25   26    1 1
    26   27   13 1
    27   28   21 1
    28   29   14 1
    29   30   15 1
    30   31   14 1
    31   32   19 1
    32   33   18 1
    33   34   19 1
    34   35   14 1
    35   36   18 1
    36   37   17 1
    37   38   19 1
    38   39   17 1
    39   40   21 1
    40   41   18 1
    41   42   17 1
    42   43   12 1
    43   44   20 1
    44   45   16 1
    45   46   22 1
    46    4    6 2
    47    9   10 1
    48   20   22 ar
@<TRIPOS>SUBSTRUCTURE
     1 RES1 1

@<TRIPOS>CRYSIN
   6.7470   10.5850   12.1640  86.8340  76.8130  76.1650   2 1

