# MOL2 file generated by ConQuest
# Please check atom types

@<TRIPOS>MOLECULE
REQYES
    36    38     2
SMALL
NO_CHARGES
****
Generated from CSD

@<TRIPOS>ATOM
      1 C1        15.7418    4.6013    5.3284 C.3       1 RES1    0.0000
      2 O1        15.0507    3.7641    6.2809 O.3       1 RES1    0.0000
      3 C2        13.7512    3.6496    6.0846 C.2       1 RES1    0.0000
      4 N1        13.0573    4.3139    5.2100 N.2       1 RES1    0.0000
      5 O2        11.7482    3.8839    5.3848 O.3       1 RES1    0.0000
      6 N2        11.6565    2.9717    6.3885 N.2       1 RES1    0.0000
      7 C3        12.8588    2.8057    6.8268 C.2       1 RES1    0.0000
      8 N3        13.0415    1.8829    7.8761 N.2       1 RES1    0.0000
      9 N4        14.2497    1.6915    8.1167 N.2       1 RES1    0.0000
     10 C4        14.4454    0.8093    9.2104 C.2       1 RES1    0.0000
     11 N5        13.9531    1.0285   10.3750 N.2       1 RES1    0.0000
     12 O3        14.4625   -0.0028   11.1635 O.3       1 RES1    0.0000
     13 N6        15.2612   -0.8443   10.4099 N.2       1 RES1    0.0000
     14 C5        15.2474   -0.3264    9.2288 C.2       1 RES1    0.0000
     15 N7        15.9589   -1.3034    8.6272 N.2       1 RES1    0.0000
     16 N8        16.0959   -0.7949    7.5037 N.2       1 RES1    0.0000
     17 C6        16.9921   -1.7840    6.6070 C.2       1 RES1    0.0000
     18 N9        17.0059   -3.0441    6.2847 N.2       1 RES1    0.0000
     19 O4        17.8542   -3.1042    5.2100 O.3       1 RES1    0.0000
     20 N10       18.3937   -1.8787    4.8991 N.2       1 RES1    0.0000
     21 C7        17.8544   -1.0710    5.7578 C.2       1 RES1    0.0000
     22 N11       18.1380    0.3256    5.7837 N.2       1 RES1    0.0000
     23 N12       19.3746    0.5156    5.6425 N.2       1 RES1    0.0000
     24 C8        19.7287    1.8711    5.6679 C.2       1 RES1    0.0000
     25 N13       21.0018    2.1319    5.7071 N.2       1 RES1    0.0000
     26 O5        21.0986    3.4868    5.7419 O.3       1 RES1    0.0000
     27 N14       19.8352    4.0937    5.7287 N.2       1 RES1    0.0000
     28 C9        18.9883    3.1076    5.6748 C.2       1 RES1    0.0000
     29 O6        17.6781    3.2392    5.6121 O.3       1 RES1    0.0000
     30 C10       17.1820    4.6161    5.6812 C.3       1 RES1    0.0000
     31 H1        17.3222    4.9234    6.5734 H         1 RES1    0.0000
     32 H2        17.6263    5.2398    4.9649 H         1 RES1    0.0000
     33 H3        15.3805    5.4139    5.3512 H         1 RES1    0.0000
     34 H4        15.5721    4.1946    4.3886 H         1 RES1    0.0000
     35 N15       16.0353   -0.5186    7.8634 Du        2 SUP2    0.0000
     36 N16       16.3233   -1.7479    7.7900 Du        2 SUP2    0.0000
@<TRIPOS>BOND
     1    1    2 1
     2    2    3 1
     3    3    4 2
     4    4    5 1
     5    5    6 1
     6    6    7 2
     7    7    3 1
     8    8    7 1
     9    9    8 2
    10   10    9 1
    11   11   10 2
    12   12   11 1
    13   13   12 1
    14   14   10 1
    15   15   14 1
    16   16   15 2
    17   17   16 1
    18   18   17 2
    19   19   18 1
    20   20   19 1
    21   21   17 1
    22   22   21 1
    23   23   22 2
    24   24   23 1
    25   25   24 2
    26   26   25 1
    27   27   26 1
    28   28   24 1
    29   29   28 1
    30   30    1 1
    31   31   30 1
    32   32   30 1
    33   33    1 1
    34   34    1 1
    35   13   14 2
    36   20   21 2
    37   27   28 2
    38   29   30 1
@<TRIPOS>SUBSTRUCTURE
     1 RES1 1
     2 SUP2 35

@<TRIPOS>CRYSIN
  25.5490   20.0220    6.3328  90.0000  90.0000  90.0000  41 1

