# MOL2 file generated by ConQuest
# Please check atom types

@<TRIPOS>MOLECULE
RERWOC
    65    69     1
SMALL
NO_CHARGES
****
Generated from CSD

@<TRIPOS>ATOM
      1 O1        -0.9668   -8.3683  -11.4838 O.3       1 RES1    0.0000
      2 O2         2.5717   -8.2804   -8.1096 O.3       1 RES1    0.0000
      3 O3         3.9929   -8.7756  -10.7449 O.3       1 RES1    0.0000
      4 O4        -1.0907   -8.0566   -9.2363 O.3       1 RES1    0.0000
      5 O5         2.9404  -10.7349  -10.4847 O.2       1 RES1    0.0000
      6 O6         1.6365   -6.5195   -9.1403 O.2       1 RES1    0.0000
      7 C1         1.6736   -8.6629  -10.2892 C.3       1 RES1    0.0000
      8 N1        -0.8679   -9.0695  -10.2696 N.3       1 RES1    0.0000
      9 C2         0.0256   -7.2871  -11.6290 C.3       1 RES1    0.0000
     10 H1        -0.0741   -6.6431  -10.8713 H         1 RES1    0.0000
     11 C3         1.9421   -7.6773   -9.1384 C.2       1 RES1    0.0000
     12 C4         1.4237   -7.8784  -11.6035 C.3       1 RES1    0.0000
     13 H2         2.0901   -7.1512  -11.6840 H         1 RES1    0.0000
     14 H3         1.5379   -8.4859  -12.3761 H         1 RES1    0.0000
     15 C5        -0.0691  -11.8246   -8.8786 C.ar      1 RES1    0.0000
     16 C6        -0.3647   -6.6031  -12.9170 C.ar      1 RES1    0.0000
     17 C7         0.4791   -9.6379  -10.0593 C.3       1 RES1    0.0000
     18 H4         0.5787  -10.3458  -10.7604 H         1 RES1    0.0000
     19 C8         2.9250   -9.5325  -10.4946 C.2       1 RES1    0.0000
     20 C9         2.8036   -7.4260   -6.9590 C.3       1 RES1    0.0000
     21 H5         3.2626   -7.9370   -6.2604 H         1 RES1    0.0000
     22 H6         1.9455   -7.0998   -6.6149 H         1 RES1    0.0000
     23 H7         3.3597   -6.6646   -7.2250 H         1 RES1    0.0000
     24 C10       -1.4815   -8.7851   -8.0565 C.3       1 RES1    0.0000
     25 H8        -2.2571   -9.3821   -8.2596 H         1 RES1    0.0000
     26 C11       -0.2864   -9.6147   -7.5836 C.3       1 RES1    0.0000
     27 H9        -0.6007  -10.2579   -6.8995 H         1 RES1    0.0000
     28 H10        0.3644   -9.0090   -7.1479 H         1 RES1    0.0000
     29 C12        0.0219   -7.0961  -14.1604 C.ar      1 RES1    0.0000
     30 H11        0.5841   -7.8598  -14.2137 H         1 RES1    0.0000
     31 C13       -1.0893   -6.6035   -6.8640 C.ar      1 RES1    0.0000
     32 H12       -0.3311   -6.4652   -7.4204 H         1 RES1    0.0000
     33 C14       -1.8792   -7.7427   -7.0403 C.ar      1 RES1    0.0000
     34 C15       -0.9004  -14.4881   -9.1827 C.ar      1 RES1    0.0000
     35 H13       -1.1832  -15.3895   -9.2821 H         1 RES1    0.0000
     36 C16       -1.6514   -4.8814  -14.0312 C.ar      1 RES1    0.0000
     37 H14       -2.2305   -4.1304  -13.9846 H         1 RES1    0.0000
     38 C17        5.2306   -9.4960  -10.9789 C.3       1 RES1    0.0000
     39 H15        5.9518   -8.8568  -11.1583 H         1 RES1    0.0000
     40 H16        5.1210  -10.0906  -11.7491 H         1 RES1    0.0000
     41 H17        5.4548  -10.0263  -10.1864 H         1 RES1    0.0000
     42 C18       -1.1884   -5.4798  -12.8635 C.ar      1 RES1    0.0000
     43 H18       -1.4359   -5.1188  -12.0216 H         1 RES1    0.0000
     44 C19        0.7475  -12.8819   -8.4786 C.ar      1 RES1    0.0000
     45 H19        1.5966  -12.6966   -8.0956 H         1 RES1    0.0000
     46 C20        0.4466  -10.4038   -8.7052 C.3       1 RES1    0.0000
     47 H20        1.3985  -10.4873   -8.4091 H         1 RES1    0.0000
     48 C21       -3.0094   -7.9088   -6.2409 C.ar      1 RES1    0.0000
     49 H21       -3.5720   -8.6638   -6.3665 H         1 RES1    0.0000
     50 C22       -0.4143   -6.4710  -15.3209 C.ar      1 RES1    0.0000
     51 H22       -0.1245   -6.7943  -16.1671 H         1 RES1    0.0000
     52 C23        0.3403  -14.2073   -8.6319 C.ar      1 RES1    0.0000
     53 H23        0.9122  -14.9157   -8.3609 H         1 RES1    0.0000
     54 C24       -1.7265  -13.4540   -9.5884 C.ar      1 RES1    0.0000
     55 H24       -2.5750  -13.6475   -9.9694 H         1 RES1    0.0000
     56 C25       -1.3164  -12.1277   -9.4376 C.ar      1 RES1    0.0000
     57 H25       -1.8892  -11.4242   -9.7186 H         1 RES1    0.0000
     58 C26       -1.2668   -5.3814  -15.2587 C.ar      1 RES1    0.0000
     59 H26       -1.5854   -4.9794  -16.0586 H         1 RES1    0.0000
     60 C27       -1.4010   -5.6732   -5.8859 C.ar      1 RES1    0.0000
     61 H27       -0.8552   -4.9033   -5.7733 H         1 RES1    0.0000
     62 C28       -2.5095   -5.8636   -5.0710 C.ar      1 RES1    0.0000
     63 H28       -2.7111   -5.2345   -4.3890 H         1 RES1    0.0000
     64 C29       -3.3173   -6.9681   -5.2550 C.ar      1 RES1    0.0000
     65 H29       -4.0863   -7.0891   -4.7098 H         1 RES1    0.0000
@<TRIPOS>BOND
     1    1    8 1
     2    2   11 1
     3    3   19 1
     4    4    8 1
     5    5   19 2
     6    6   11 2
     7    7   11 1
     8    8   17 1
     9    9    1 1
    10   10    9 1
    11   12    7 1
    12   13   12 1
    13   14   12 1
    14   15   44 ar
    15   16    9 1
    16   17    7 1
    17   18   17 1
    18   19    7 1
    19   20    2 1
    20   21   20 1
    21   22   20 1
    22   23   20 1
    23   24    4 1
    24   25   24 1
    25   26   24 1
    26   27   26 1
    27   28   26 1
    28   29   16 ar
    29   30   29 1
    30   31   32 1
    31   33   24 1
    32   34   35 1
    33   36   37 1
    34   38    3 1
    35   39   38 1
    36   40   38 1
    37   41   38 1
    38   42   16 ar
    39   43   42 1
    40   44   45 1
    41   46   15 1
    42   47   46 1
    43   48   33 ar
    44   49   48 1
    45   50   29 ar
    46   51   50 1
    47   52   34 ar
    48   53   52 1
    49   54   34 ar
    50   55   54 1
    51   56   15 ar
    52   57   56 1
    53   58   36 ar
    54   59   58 1
    55   60   31 ar
    56   61   60 1
    57   62   60 ar
    58   63   62 1
    59   64   48 ar
    60   65   64 1
    61    9   12 1
    62   17   46 1
    63   26   46 1
    64   31   33 ar
    65   36   42 ar
    66   44   52 ar
    67   50   58 ar
    68   54   56 ar
    69   62   64 ar
@<TRIPOS>SUBSTRUCTURE
     1 RES1 1

@<TRIPOS>CRYSIN
   9.4038   10.7199   24.4225  90.0000  99.0930  90.0000  14 1

