# MOL2 file generated by ConQuest
# Please check atom types

@<TRIPOS>MOLECULE
RERWES
    68    71     1
SMALL
NO_CHARGES
****
Generated from CSD

@<TRIPOS>ATOM
      1 N1         2.2387    7.0233   20.9313 N.3       1 RES1    0.0000
      2 O1         2.1064    8.0563   19.9119 O.3       1 RES1    0.0000
      3 O2         2.7542    7.6862   22.0565 O.3       1 RES1    0.0000
      4 O3        -2.2105    7.6184   22.8397 O.3       1 RES1    0.0000
      5 O4        -1.4451    5.5700   22.3245 O.2       1 RES1    0.0000
      6 O5        -1.6094    7.9336   19.8934 O.3       1 RES1    0.0000
      7 O6        -0.3966    9.6932   20.5946 O.2       1 RES1    0.0000
      8 O7         2.7267    0.5056   20.6176 O.3       1 RES1    0.0000
      9 C1         0.8801    6.4974   21.1578 C.3       1 RES1    0.0000
     10 H1         0.9753    5.8097   21.8781 H         1 RES1    0.0000
     11 C2         0.5197    5.7035   19.8657 C.3       1 RES1    0.0000
     12 H2        -0.4723    5.5748   19.8734 H         1 RES1    0.0000
     13 C3         0.8614    6.4757   18.5656 C.3       1 RES1    0.0000
     14 H3         0.9983    5.8185   17.8382 H         1 RES1    0.0000
     15 H4         0.0826    7.0357   18.3189 H         1 RES1    0.0000
     16 C4         2.0965    7.3733   18.6448 C.3       1 RES1    0.0000
     17 H5         2.9258    6.8239   18.5463 H         1 RES1    0.0000
     18 C5         1.9171    8.7896   22.5330 C.3       1 RES1    0.0000
     19 H6         1.8584    9.5021   21.8336 H         1 RES1    0.0000
     20 C6         0.5287    8.2796   22.8786 C.3       1 RES1    0.0000
     21 H7        -0.0403    9.0455   23.1442 H         1 RES1    0.0000
     22 H8         0.5932    7.6669   23.6530 H         1 RES1    0.0000
     23 C7        -0.1438    7.5368   21.7032 C.3       1 RES1    0.0000
     24 C8         1.1436    4.3164   19.9560 C.ar      1 RES1    0.0000
     25 C9         0.3609    3.2345   20.3606 C.ar      1 RES1    0.0000
     26 H9        -0.5663    3.3686   20.5159 H         1 RES1    0.0000
     27 C10        0.8979    1.9707   20.5433 C.ar      1 RES1    0.0000
     28 H10        0.3379    1.2469   20.7972 H         1 RES1    0.0000
     29 C11        2.2633    1.7664   20.3515 C.ar      1 RES1    0.0000
     30 C12        3.0631    2.8189   19.9203 C.ar      1 RES1    0.0000
     31 H11        3.9894    2.6826   19.7632 H         1 RES1    0.0000
     32 C13        2.4950    4.0758   19.7201 C.ar      1 RES1    0.0000
     33 H12        3.0449    4.7878   19.4139 H         1 RES1    0.0000
     34 C14        2.0819    8.4837   17.6057 C.3       1 RES1    0.0000
     35 H13        1.2786    9.0455   17.7468 H         1 RES1    0.0000
     36 H14        2.0120    8.0796   16.7058 H         1 RES1    0.0000
     37 C15        3.3219    9.3724   17.6533 C.3       1 RES1    0.0000
     38 H15        3.5555    9.5493   18.5979 H         1 RES1    0.0000
     39 H16        4.0816    8.8896   17.2380 H         1 RES1    0.0000
     40 C16        3.1249   10.6961   16.9358 C.3       1 RES1    0.0000
     41 H17        3.9376   11.2385   17.0223 H         1 RES1    0.0000
     42 H18        2.3691   11.1749   17.3341 H         1 RES1    0.0000
     43 H19        2.9431   10.5295   15.9883 H         1 RES1    0.0000
     44 C17        2.6158    9.3224   23.7578 C.ar      1 RES1    0.0000
     45 C18        2.7546   10.6997   23.9391 C.ar      1 RES1    0.0000
     46 H20        2.4343   11.2989   23.2755 H         1 RES1    0.0000
     47 C19        3.3605   11.1976   25.0905 C.ar      1 RES1    0.0000
     48 H21        3.4442   12.1353   25.2169 H         1 RES1    0.0000
     49 C20        3.8395   10.3255   26.0507 C.ar      1 RES1    0.0000
     50 H22        4.2620   10.6667   26.8301 H         1 RES1    0.0000
     51 C21        3.7045    8.9536   25.8807 C.ar      1 RES1    0.0000
     52 H23        4.0316    8.3595   26.5464 H         1 RES1    0.0000
     53 C22        3.0917    8.4471   24.7372 C.ar      1 RES1    0.0000
     54 H24        2.9969    7.5088   24.6237 H         1 RES1    0.0000
     55 C23       -1.3356    6.7683   22.2912 C.2       1 RES1    0.0000
     56 C24       -3.3336    7.0067   23.5274 C.3       1 RES1    0.0000
     57 H25       -3.9241    7.7075   23.8758 H         1 RES1    0.0000
     58 H26       -3.0026    6.4595   24.2697 H         1 RES1    0.0000
     59 H27       -3.8320    6.4408   22.9004 H         1 RES1    0.0000
     60 C25       -0.6927    8.5365   20.6812 C.2       1 RES1    0.0000
     61 C26       -2.1677    8.7552   18.8392 C.3       1 RES1    0.0000
     62 H28       -2.9604    8.3156   18.4690 H         1 RES1    0.0000
     63 H29       -1.5013    8.8776   18.1313 H         1 RES1    0.0000
     64 H30       -2.4190    9.6283   19.2052 H         1 RES1    0.0000
     65 C27        4.1395    0.3347   20.6791 C.3       1 RES1    0.0000
     66 H31        4.3465   -0.5861   20.9449 H         1 RES1    0.0000
     67 H32        4.5154    0.9560   21.3365 H         1 RES1    0.0000
     68 H33        4.5289    0.5159   19.7984 H         1 RES1    0.0000
@<TRIPOS>BOND
     1    1    2 1
     2    2   16 1
     3    3    1 1
     4    4   55 1
     5    5   55 2
     6    6   60 1
     7    7   60 2
     8    8   29 1
     9    9    1 1
    10   10    9 1
    11   11    9 1
    12   12   11 1
    13   13   11 1
    14   14   13 1
    15   15   13 1
    16   16   13 1
    17   17   16 1
    18   18    3 1
    19   19   18 1
    20   20   18 1
    21   21   20 1
    22   22   20 1
    23   23    9 1
    24   24   11 1
    25   25   24 ar
    26   26   25 1
    27   27   25 ar
    28   28   27 1
    29   29   27 ar
    30   30   29 ar
    31   31   30 1
    32   32   24 ar
    33   33   32 1
    34   34   16 1
    35   35   34 1
    36   36   34 1
    37   37   34 1
    38   38   37 1
    39   39   37 1
    40   40   37 1
    41   41   40 1
    42   42   40 1
    43   43   40 1
    44   44   18 1
    45   45   44 ar
    46   46   45 1
    47   47   45 ar
    48   48   47 1
    49   49   47 ar
    50   50   49 1
    51   51   49 ar
    52   52   51 1
    53   53   44 ar
    54   54   53 1
    55   55   23 1
    56   56    4 1
    57   57   56 1
    58   58   56 1
    59   59   56 1
    60   60   23 1
    61   61    6 1
    62   62   61 1
    63   63   61 1
    64   64   61 1
    65   65    8 1
    66   66   65 1
    67   67   65 1
    68   68   65 1
    69   20   23 1
    70   30   32 ar
    71   51   53 ar
@<TRIPOS>SUBSTRUCTURE
     1 RES1 1

@<TRIPOS>CRYSIN
  19.1983   10.9762   23.4467  90.0000  90.0000  90.0000  61 1

