# MOL2 file generated by ConQuest
# Please check atom types

@<TRIPOS>MOLECULE
RERWIW03
   130   138     2
SMALL
NO_CHARGES
****
Generated from CSD

@<TRIPOS>ATOM
      1 N1         8.4128    9.5163    1.6246 N.3       1 RES1    0.0000
      2 O1         9.7424    9.1087    1.6713 O.3       1 RES1    0.0000
      3 O2         8.0043    9.3593    0.2219 O.3       1 RES1    0.0000
      4 O3         4.9938    9.8260    3.0766 O.2       1 RES1    0.0000
      5 O4         6.9155   10.1714    4.1886 O.3       1 RES1    0.0000
      6 O5         5.7261   13.3247    1.5682 O.2       1 RES1    0.0000
      7 O6         6.8764   13.0029    3.4739 O.3       1 RES1    0.0000
      8 C1        10.7579   10.0729    1.2286 C.3       1 RES1    0.0000
      9 C2        10.1650   11.1259    0.3056 C.3       1 RES1    0.0000
     10 C3         9.0192   11.9071    1.0019 C.3       1 RES1    0.0000
     11 C4         8.2603   10.9529    1.9545 C.3       1 RES1    0.0000
     12 C5         6.5647    9.3658    0.2390 C.3       1 RES1    0.0000
     13 C6         6.0814   10.7487    0.6598 C.3       1 RES1    0.0000
     14 C7         6.7188   11.1529    2.0004 C.3       1 RES1    0.0000
     15 C8        11.8487    9.2550    0.5915 C.ar      1 RES1    0.0000
     16 C9        13.1049    9.1848    1.1907 C.ar      1 RES1    0.0000
     17 C10       14.1321    8.4482    0.5943 C.ar      1 RES1    0.0000
     18 C11       13.9015    7.7690   -0.5976 C.ar      1 RES1    0.0000
     19 C12       12.6427    7.8250   -1.1931 C.ar      1 RES1    0.0000
     20 C13       11.6180    8.5632   -0.6019 C.ar      1 RES1    0.0000
     21 C14        9.5955   13.1353    1.6889 C.ar      1 RES1    0.0000
     22 C15        9.6605   14.3297    0.9593 C.ar      1 RES1    0.0000
     23 C16       10.3008   15.4570    1.4756 C.ar      1 RES1    0.0000
     24 C17       10.8797   15.4127    2.7423 C.ar      1 RES1    0.0000
     25 C18       10.8041   14.2390    3.4862 C.ar      1 RES1    0.0000
     26 C19       10.1737   13.1105    2.9612 C.ar      1 RES1    0.0000
     27 C20        6.1372    8.9083   -1.1346 C.ar      1 RES1    0.0000
     28 C21        6.5458    7.6372   -1.5544 C.ar      1 RES1    0.0000
     29 C22        6.1820    7.1529   -2.8086 C.ar      1 RES1    0.0000
     30 C23        5.4057    7.9381   -3.6606 C.ar      1 RES1    0.0000
     31 C24        4.9897    9.1990   -3.2475 C.ar      1 RES1    0.0000
     32 C25        5.3538    9.6799   -1.9863 C.ar      1 RES1    0.0000
     33 C26        6.1047   10.3022    3.1363 C.2       1 RES1    0.0000
     34 C27        6.3748    9.4421    5.3101 C.3       1 RES1    0.0000
     35 C28        6.3758   12.6217    2.3025 C.2       1 RES1    0.0000
     36 C29        6.6022   14.3699    3.8561 C.3       1 RES1    0.0000
     37 H1        11.1226   10.5026    2.0558 H         1 RES1    0.0000
     38 H2        10.8847   11.7414    0.0486 H         1 RES1    0.0000
     39 H3         9.8373   10.7004   -0.4999 H         1 RES1    0.0000
     40 H4         8.4072   12.1982    0.3118 H         1 RES1    0.0000
     41 H5         8.6145   11.0031    2.8707 H         1 RES1    0.0000
     42 H6         6.2655    8.7190    0.8916 H         1 RES1    0.0000
     43 H7         6.3316   11.4129    0.0157 H         1 RES1    0.0000
     44 H8         5.1045   10.7323    0.7365 H         1 RES1    0.0000
     45 H9        13.2737    9.6578    2.0355 H         1 RES1    0.0000
     46 H10       15.0169    8.4443    1.0405 H         1 RES1    0.0000
     47 H11       14.6216    7.2815   -1.0217 H         1 RES1    0.0000
     48 H12       12.4675    7.2923   -1.9869 H         1 RES1    0.0000
     49 H13       10.7140    8.5595   -0.9872 H         1 RES1    0.0000
     50 H14        9.2220   14.3590    0.0925 H         1 RES1    0.0000
     51 H15       10.3448   16.2464    0.9590 H         1 RES1    0.0000
     52 H16       11.3506   16.1977    3.1073 H         1 RES1    0.0000
     53 H17       11.2064   14.1781    4.3702 H         1 RES1    0.0000
     54 H18       10.1169   12.3014    3.5037 H         1 RES1    0.0000
     55 H19        7.1153    7.0852   -0.9652 H         1 RES1    0.0000
     56 H20        6.4873    6.2606   -3.0571 H         1 RES1    0.0000
     57 H21        5.1646    7.6063   -4.5583 H         1 RES1    0.0000
     58 H22        4.4304    9.7487   -3.8375 H         1 RES1    0.0000
     59 H23        5.0371   10.5547   -1.7299 H         1 RES1    0.0000
     60 H24        5.6000    9.9188    5.6959 H         1 RES1    0.0000
     61 H25        7.0806    9.3491    5.9372 H         1 RES1    0.0000
     62 H26        6.1068    8.5671    5.1020 H         1 RES1    0.0000
     63 H27        7.1609   14.5667    4.5959 H         1 RES1    0.0000
     64 H28        6.7503   14.9759    3.1464 H         1 RES1    0.0000
     65 H29        5.6237   14.4823    4.1148 H         1 RES1    0.0000
     66 N2        11.7130   12.2191    6.2871 N.3       2 RES2    0.0000
     67 O7        10.3730   12.5504    6.1555 O.3       2 RES2    0.0000
     68 O8        12.0273   12.4119    7.7063 O.3       2 RES2    0.0000
     69 O9        14.6609    8.5648    6.3695 O.2       2 RES2    0.0000
     70 O10       13.3423    8.8094    4.5617 O.3       2 RES2    0.0000
     71 O11       15.2154   12.0784    5.0417 O.2       2 RES2    0.0000
     72 O12       13.3672   11.6652    3.8290 O.3       2 RES2    0.0000
     73 C30        9.3701   11.6164    6.7009 C.3       2 RES2    0.0000
     74 C31        9.9851   10.5392    7.5829 C.3       2 RES2    0.0000
     75 C32       11.1913    9.8155    6.9209 C.3       2 RES2    0.0000
     76 C33       11.9467   10.7940    5.9831 C.3       2 RES2    0.0000
     77 C34       13.4605   12.4553    7.8004 C.3       2 RES2    0.0000
     78 C35       14.0408   11.0956    7.3882 C.3       2 RES2    0.0000
     79 C36       13.4948   10.6688    6.0122 C.3       2 RES2    0.0000
     80 C37        8.3766   12.5063    7.3993 C.ar      2 RES2    0.0000
     81 C38        7.1179   12.7200    6.8430 C.ar      2 RES2    0.0000
     82 C39        6.2356   13.6352    7.4245 C.ar      2 RES2    0.0000
     83 C40        6.6184   14.3413    8.5614 C.ar      2 RES2    0.0000
     84 C41        7.8730   14.1194    9.1291 C.ar      2 RES2    0.0000
     85 C42        8.7498   13.2090    8.5509 C.ar      2 RES2    0.0000
     86 C43       10.7641    8.5446    6.2076 C.ar      2 RES2    0.0000
     87 C44       11.1028    7.3066    6.7623 C.ar      2 RES2    0.0000
     88 C45       10.6978    6.1133    6.1578 C.ar      2 RES2    0.0000
     89 C46        9.9478    6.1470    4.9864 C.ar      2 RES2    0.0000
     90 C47        9.6065    7.3746    4.4204 C.ar      2 RES2    0.0000
     91 C48       10.0130    8.5622    5.0265 C.ar      2 RES2    0.0000
     92 C49       13.7604   12.8536    9.2218 C.ar      2 RES2    0.0000
     93 C50       13.1829   12.1765   10.2975 C.ar      2 RES2    0.0000
     94 C51       13.4389   12.5815   11.6063 C.ar      2 RES2    0.0000
     95 C52       14.2844   13.6609   11.8493 C.ar      2 RES2    0.0000
     96 C53       14.8559   14.3465   10.7839 C.ar      2 RES2    0.0000
     97 C54       14.5883   13.9445    9.4771 C.ar      2 RES2    0.0000
     98 C55       13.9124    9.2245    5.6904 C.2       2 RES2    0.0000
     99 C56       13.6084    7.4394    4.1885 C.3       2 RES2    0.0000
    100 C57       14.1309   11.5612    4.9185 C.2       2 RES2    0.0000
    101 C58       13.9266   12.4320    2.7420 C.3       2 RES2    0.0000
    102 H30        8.9419   11.2206    5.9246 H         2 RES2    0.0000
    103 H31        9.2784    9.8782    7.7736 H         2 RES2    0.0000
    104 H32       10.2840   10.9158    8.4239 H         2 RES2    0.0000
    105 H33       11.7895    9.5648    7.6295 H         2 RES2    0.0000
    106 H34       11.6126   10.6930    5.0675 H         2 RES2    0.0000
    107 H35       13.8022   13.1422    7.1939 H         2 RES2    0.0000
    108 H36       13.8136   10.4498    8.0212 H         2 RES2    0.0000
    109 H37       15.0200   11.1829    7.3553 H         2 RES2    0.0000
    110 H38        6.8753   12.2338    6.0046 H         2 RES2    0.0000
    111 H39        5.3506   13.8080    7.0090 H         2 RES2    0.0000
    112 H40        6.0317   15.0076    8.9739 H         2 RES2    0.0000
    113 H41        8.1381   14.6600    9.8984 H         2 RES2    0.0000
    114 H42        9.6659   13.1247    8.9128 H         2 RES2    0.0000
    115 H43       11.6788    7.2855    7.5558 H         2 RES2    0.0000
    116 H44       10.9521    5.2483    6.5373 H         2 RES2    0.0000
    117 H45        9.6806    5.2970    4.5442 H         2 RES2    0.0000
    118 H46        9.0965    7.4219    3.6103 H         2 RES2    0.0000
    119 H47        9.7536    9.3961    4.6037 H         2 RES2    0.0000
    120 H48       12.5860   11.4557   10.1617 H         2 RES2    0.0000
    121 H49       13.0324   12.1413   12.3053 H         2 RES2    0.0000
    122 H50       14.4610   13.9300   12.7565 H         2 RES2    0.0000
    123 H51       15.4579   15.1168   10.9436 H         2 RES2    0.0000
    124 H52       15.0124   14.4347    8.7405 H         2 RES2    0.0000
    125 H53       14.5646    7.3529    3.9628 H         2 RES2    0.0000
    126 H54       13.3150    6.8588    4.9281 H         2 RES2    0.0000
    127 H55       13.0470    7.2616    3.3752 H         2 RES2    0.0000
    128 H56       14.6739   11.9509    2.3426 H         2 RES2    0.0000
    129 H57       13.2047   12.5502    2.1075 H         2 RES2    0.0000
    130 H58       14.2061   13.3053    3.0352 H         2 RES2    0.0000
@<TRIPOS>BOND
     1    1    2 1
     2    2    8 1
     3    3    1 1
     4    4   33 2
     5    5   33 1
     6    6   35 2
     7    7   35 1
     8    8    9 1
     9    9   10 1
    10   10   11 1
    11   11    1 1
    12   12    3 1
    13   13   12 1
    14   14   11 1
    15   15    8 1
    16   16   15 ar
    17   17   16 ar
    18   18   17 ar
    19   19   18 ar
    20   20   15 ar
    21   21   10 1
    22   22   21 ar
    23   23   22 ar
    24   24   23 ar
    25   25   24 ar
    26   26   21 ar
    27   27   12 1
    28   28   27 ar
    29   29   28 ar
    30   30   29 ar
    31   31   30 ar
    32   32   27 ar
    33   33   14 1
    34   34    5 1
    35   35   14 1
    36   36    7 1
    37   37    8 1
    38   38    9 1
    39   39    9 1
    40   40   10 1
    41   41   11 1
    42   42   12 1
    43   43   13 1
    44   44   13 1
    45   45   16 1
    46   46   17 1
    47   47   18 1
    48   48   19 1
    49   49   20 1
    50   50   22 1
    51   51   23 1
    52   52   24 1
    53   53   25 1
    54   54   26 1
    55   55   28 1
    56   56   29 1
    57   57   30 1
    58   58   31 1
    59   59   32 1
    60   60   34 1
    61   61   34 1
    62   62   34 1
    63   63   36 1
    64   64   36 1
    65   65   36 1
    66   66   67 1
    67   67   73 1
    68   68   66 1
    69   69   98 2
    70   70   98 1
    71   71  100 2
    72   72  100 1
    73   73   74 1
    74   74   75 1
    75   75   76 1
    76   76   66 1
    77   77   68 1
    78   78   77 1
    79   79   76 1
    80   80   73 1
    81   81   80 ar
    82   82   81 ar
    83   83   82 ar
    84   84   83 ar
    85   85   80 ar
    86   86   75 1
    87   87   86 ar
    88   88   87 ar
    89   89   88 ar
    90   90   89 ar
    91   91   86 ar
    92   92   77 1
    93   93   92 ar
    94   94   93 ar
    95   95   94 ar
    96   96   95 ar
    97   97   92 ar
    98   98   79 1
    99   99   70 1
   100  100   79 1
   101  101   72 1
   102  102   73 1
   103  103   74 1
   104  104   74 1
   105  105   75 1
   106  106   76 1
   107  107   77 1
   108  108   78 1
   109  109   78 1
   110  110   81 1
   111  111   82 1
   112  112   83 1
   113  113   84 1
   114  114   85 1
   115  115   87 1
   116  116   88 1
   117  117   89 1
   118  118   90 1
   119  119   91 1
   120  120   93 1
   121  121   94 1
   122  122   95 1
   123  123   96 1
   124  124   97 1
   125  125   99 1
   126  126   99 1
   127  127   99 1
   128  128  101 1
   129  129  101 1
   130  130  101 1
   131   13   14 1
   132   19   20 ar
   133   25   26 ar
   134   31   32 ar
   135   78   79 1
   136   84   85 ar
   137   90   91 ar
   138   96   97 ar
@<TRIPOS>SUBSTRUCTURE
     1 RES1 1
     2 RES2 66

@<TRIPOS>CRYSIN
  11.3043   13.5609   16.6403  78.6600  73.5170  86.7910   2 1

