# MOL2 file generated by ConQuest
# Please check atom types

@<TRIPOS>MOLECULE
RERWIV
    92    94     2
SMALL
NO_CHARGES
****
Generated from CSD

@<TRIPOS>ATOM
      1 C1         5.6360    0.5824    7.2161 C.2       1 RES1    0.0000
      2 C2         4.8466    1.8791    7.2035 C.3       1 RES1    0.0000
      3 H1         3.9279    1.7058    7.5296 H         1 RES1    0.0000
      4 H2         4.7820    2.2129    6.2735 H         1 RES1    0.0000
      5 C3         5.4959    2.9429    8.0749 C.3       1 RES1    0.0000
      6 H3         5.6092    2.5955    8.9849 H         1 RES1    0.0000
      7 H4         4.9253    3.7386    8.0990 H         1 RES1    0.0000
      8 H5         6.3720    3.1791    7.7037 H         1 RES1    0.0000
      9 C4         5.5637   -1.8266    6.6029 C.ar      1 RES1    0.0000
     10 C5         4.7274   -2.8573    6.1323 C.ar      1 RES1    0.0000
     11 H6         3.8633   -2.6444    5.7996 H         1 RES1    0.0000
     12 C6         5.1477   -4.1770    6.1489 C.ar      1 RES1    0.0000
     13 H7         4.5861   -4.8644    5.8113 H         1 RES1    0.0000
     14 C7         6.3947   -4.4824    6.6634 C.ar      1 RES1    0.0000
     15 C8         7.2189   -3.4958    7.1901 C.ar      1 RES1    0.0000
     16 H8         8.0556   -3.7254    7.5765 H         1 RES1    0.0000
     17 C9         6.8082   -2.1719    7.1474 C.ar      1 RES1    0.0000
     18 H9         7.3759   -1.4920    7.4911 H         1 RES1    0.0000
     19 C10        3.8998   -0.2706    5.6827 C.ar      1 RES1    0.0000
     20 C11        2.7061   -0.3194    6.3941 C.ar      1 RES1    0.0000
     21 H10        2.7318   -0.4371    7.3370 H         1 RES1    0.0000
     22 C12        1.4801   -0.2000    5.7592 C.ar      1 RES1    0.0000
     23 H11        0.6705   -0.2186    6.2551 H         1 RES1    0.0000
     24 C13        1.4654   -0.0536    4.3876 C.ar      1 RES1    0.0000
     25 H12        0.6364    0.0138    3.9289 H         1 RES1    0.0000
     26 C14        2.6551   -0.0043    3.6735 C.ar      1 RES1    0.0000
     27 H13        2.6135    0.0936    2.7298 H         1 RES1    0.0000
     28 C15        3.9192   -0.0932    4.2843 C.ar      1 RES1    0.0000
     29 C16        5.1913   -0.0005    3.4126 C.3       1 RES1    0.0000
     30 C17        5.9862   -1.3157    3.4241 C.3       1 RES1    0.0000
     31 H14        6.7072   -1.2667    2.7616 H         1 RES1    0.0000
     32 H15        5.3891   -2.0604    3.2021 H         1 RES1    0.0000
     33 H16        6.3696   -1.4578    4.3141 H         1 RES1    0.0000
     34 C18        6.1009    1.1521    3.8808 C.3       1 RES1    0.0000
     35 H17        5.5859    1.9853    3.9055 H         1 RES1    0.0000
     36 H18        6.8507    1.2508    3.2573 H         1 RES1    0.0000
     37 H19        6.4448    0.9540    4.7763 H         1 RES1    0.0000
     38 C19        4.8459    0.2916    1.9459 C.3       1 RES1    0.0000
     39 H20        4.3514    1.1353    1.8891 H         1 RES1    0.0000
     40 H21        4.2934   -0.4359    1.5893 H         1 RES1    0.0000
     41 H22        5.6721    0.3609    1.4235 H         1 RES1    0.0000
     42 C20        3.9241    5.5295    1.7486 C.2       2 RES2    0.0000
     43 C21        4.6193    6.5450    2.6487 C.3       2 RES2    0.0000
     44 H23        4.3408    7.4580    2.3848 H         2 RES2    0.0000
     45 H24        4.3328    6.3989    3.5856 H         2 RES2    0.0000
     46 C22        6.1271    6.4430    2.5695 C.3       2 RES2    0.0000
     47 H25        6.4098    5.5508    2.8604 H         2 RES2    0.0000
     48 H26        6.5315    7.1192    3.1518 H         2 RES2    0.0000
     49 H27        6.4164    6.5920    1.6446 H         2 RES2    0.0000
     50 C23        1.7627    4.4514    1.2381 C.ar      2 RES2    0.0000
     51 C24        2.2816    3.2613    0.6957 C.ar      2 RES2    0.0000
     52 H28        3.2123    3.0776    0.7520 H         2 RES2    0.0000
     53 C25        1.4303    2.3568    0.0775 C.ar      2 RES2    0.0000
     54 H29        1.7741    1.5505   -0.2881 H         2 RES2    0.0000
     55 C26        0.0817    2.6355   -0.0039 C.ar      2 RES2    0.0000
     56 C27       -0.4612    3.8129    0.5039 C.ar      2 RES2    0.0000
     57 H30       -1.3918    3.9909    0.4371 H         2 RES2    0.0000
     58 C28        0.3982    4.7183    1.1115 C.ar      2 RES2    0.0000
     59 H31        0.0511    5.5353    1.4486 H         2 RES2    0.0000
     60 C29        1.8820    6.2204    2.9366 C.ar      2 RES2    0.0000
     61 C30        1.6707    7.5318    2.4938 C.ar      2 RES2    0.0000
     62 H32        1.9619    7.7850    1.6262 H         2 RES2    0.0000
     63 C31        1.0438    8.4661    3.3016 C.ar      2 RES2    0.0000
     64 H33        0.9262    9.3609    3.0061 H         2 RES2    0.0000
     65 C32        0.5927    8.0672    4.5484 C.ar      2 RES2    0.0000
     66 H34        0.1509    8.6897    5.1129 H         2 RES2    0.0000
     67 C33        0.7840    6.7629    4.9743 C.ar      2 RES2    0.0000
     68 H35        0.4473    6.5130    5.8264 H         2 RES2    0.0000
     69 C34        1.4515    5.7898    4.2086 C.ar      2 RES2    0.0000
     70 C35        1.5789    4.3657    4.8133 C.3       2 RES2    0.0000
     71 C36        2.7818    3.5570    4.2923 C.3       2 RES2    0.0000
     72 H36        2.8722    2.7328    4.8148 H         2 RES2    0.0000
     73 H37        3.5986    4.0917    4.3811 H         2 RES2    0.0000
     74 H38        2.6406    3.3321    3.3495 H         2 RES2    0.0000
     75 C37        0.2768    3.5965    4.5321 C.3       2 RES2    0.0000
     76 H39        0.1753    3.4683    3.5655 H         2 RES2    0.0000
     77 H40       -0.4857    4.1083    4.8751 H         2 RES2    0.0000
     78 H41        0.3108    2.7229    4.9756 H         2 RES2    0.0000
     79 C38        1.7585    4.4400    6.3489 C.3       2 RES2    0.0000
     80 H42        1.8949    3.5371    6.7056 H         2 RES2    0.0000
     81 H43        0.9568    4.8339    6.7525 H         2 RES2    0.0000
     82 H44        2.5377    4.9960    6.5599 H         2 RES2    0.0000
     83 N1         5.1127   -0.4816    6.4683 N.am      1 RES1    0.0000
     84 N2         6.8725   -5.8627    6.6235 N.pl3     1 RES1    0.0000
     85 N3         2.5637    5.3498    1.9891 N.am      2 RES2    0.0000
     86 N4        -0.8119    1.6629   -0.6428 N.pl3     2 RES2    0.0000
     87 O1         6.6532    0.4705    7.8786 O.2       1 RES1    0.0000
     88 O2         7.8969   -6.1520    7.2398 O.2       1 RES1    0.0000
     89 O3         6.2296   -6.6774    5.9486 O.2       1 RES1    0.0000
     90 O4         4.5230    4.9180    0.8802 O.2       2 RES2    0.0000
     91 O5        -0.2985    0.7159   -1.2539 O.2       2 RES2    0.0000
     92 O6        -2.0241    1.8404   -0.5517 O.2       2 RES2    0.0000
@<TRIPOS>BOND
     1    1    2 1
     2    2    3 1
     3    4    2 1
     4    5    2 1
     5    6    5 1
     6    7    5 1
     7    8    5 1
     8    9   10 ar
     9   10   11 1
    10   12   10 ar
    11   13   12 1
    12   14   12 ar
    13   15   14 ar
    14   16   15 1
    15   17    9 ar
    16   18   17 1
    17   19   20 ar
    18   20   21 1
    19   22   20 ar
    20   23   22 1
    21   24   22 ar
    22   25   24 1
    23   26   24 ar
    24   27   26 1
    25   28   19 ar
    26   29   28 1
    27   30   29 1
    28   31   30 1
    29   32   30 1
    30   33   30 1
    31   34   29 1
    32   35   34 1
    33   36   34 1
    34   37   34 1
    35   38   29 1
    36   39   38 1
    37   40   38 1
    38   41   38 1
    39   42   43 1
    40   43   44 1
    41   45   43 1
    42   46   43 1
    43   47   46 1
    44   48   46 1
    45   49   46 1
    46   50   51 ar
    47   51   52 1
    48   53   51 ar
    49   54   53 1
    50   55   53 ar
    51   56   55 ar
    52   57   56 1
    53   58   50 ar
    54   59   58 1
    55   60   61 ar
    56   61   62 1
    57   63   61 ar
    58   64   63 1
    59   65   63 ar
    60   66   65 1
    61   67   65 ar
    62   68   67 1
    63   69   60 ar
    64   70   69 1
    65   71   70 1
    66   72   71 1
    67   73   71 1
    68   74   71 1
    69   75   70 1
    70   76   75 1
    71   77   75 1
    72   78   75 1
    73   79   70 1
    74   80   79 1
    75   81   79 1
    76   82   79 1
    77   83    1 1
    78   84   14 1
    79   85   42 1
    80   86   55 1
    81   87    1 2
    82   88   84 2
    83   89   84 2
    84   90   42 2
    85   91   86 2
    86   92   86 2
    87    9   83 1
    88   15   17 ar
    89   19   83 1
    90   26   28 ar
    91   50   85 1
    92   56   58 ar
    93   60   85 1
    94   67   69 ar
@<TRIPOS>SUBSTRUCTURE
     1 RES1 1
     2 RES2 42

@<TRIPOS>CRYSIN
   8.4270   12.1600   16.8370  95.4770  91.7730  94.7580   2 1

