# MOL2 file generated by ConQuest
# Please check atom types

@<TRIPOS>MOLECULE
RERWIW
   130   138     2
SMALL
NO_CHARGES
****
Generated from CSD

@<TRIPOS>ATOM
      1 N1         8.3661    7.0501   14.0524 N.3       1 RES1    0.0000
      2 O1         7.0301    7.4596   14.0083 O.3       1 RES1    0.0000
      3 O2         8.7696    7.2053   15.4638 O.3       1 RES1    0.0000
      4 O3        11.7839    6.7369   12.6037 O.2       1 RES1    0.0000
      5 O4         9.8614    6.3911   11.4932 O.3       1 RES1    0.0000
      6 O5        11.0469    3.2369   14.1125 O.2       1 RES1    0.0000
      7 O6         9.9035    3.5587   12.2072 O.3       1 RES1    0.0000
      8 C1         6.0128    6.4890   14.4553 C.3       1 RES1    0.0000
      9 H1         5.6367    6.0290   13.6500 H         1 RES1    0.0000
     10 C2         6.6068    5.4394   15.3771 C.3       1 RES1    0.0000
     11 H2         5.8977    4.8062   15.6526 H         1 RES1    0.0000
     12 H3         6.9574    5.8792   16.1921 H         1 RES1    0.0000
     13 C3         7.7546    4.6551   14.6806 C.3       1 RES1    0.0000
     14 H4         8.3922    4.3456   15.3860 H         1 RES1    0.0000
     15 C4         8.5163    5.6087   13.7268 C.3       1 RES1    0.0000
     16 H5         8.1610    5.4647   12.8031 H         1 RES1    0.0000
     17 C5        10.2095    7.1990   15.4423 C.3       1 RES1    0.0000
     18 H6        10.5232    7.8680   14.7681 H         1 RES1    0.0000
     19 C6        10.6952    5.8146   15.0228 C.3       1 RES1    0.0000
     20 H7        10.4530    5.1523   15.7185 H         1 RES1    0.0000
     21 H8        11.6816    5.8211   14.9344 H         1 RES1    0.0000
     22 C7        10.0588    5.4110   13.6796 C.3       1 RES1    0.0000
     23 C8         4.9185    7.3142   15.0928 C.ar      1 RES1    0.0000
     24 C9         3.6687    7.3823   14.4945 C.ar      1 RES1    0.0000
     25 H9         3.5100    6.9272   13.6766 H         1 RES1    0.0000
     26 C10        2.6411    8.1191   15.0917 C.ar      1 RES1    0.0000
     27 H10        1.7850    8.1566   14.6835 H         1 RES1    0.0000
     28 C11        2.8714    8.7960   16.2806 C.ar      1 RES1    0.0000
     29 H11        2.1731    9.2949   16.6877 H         1 RES1    0.0000
     30 C12        4.1241    8.7409   16.8716 C.ar      1 RES1    0.0000
     31 H12        4.2843    9.2087   17.6819 H         1 RES1    0.0000
     32 C13        5.1506    8.0031   16.2842 C.ar      1 RES1    0.0000
     33 H13        6.0074    7.9694   16.6939 H         1 RES1    0.0000
     34 C14        7.1791    3.4253   13.9916 C.ar      1 RES1    0.0000
     35 C15        7.1168    2.2304   14.7194 C.ar      1 RES1    0.0000
     36 H14        7.5170    2.1859   15.5789 H         1 RES1    0.0000
     37 C16        6.4755    1.1050   14.2019 C.ar      1 RES1    0.0000
     38 H15        6.4326    0.3065   14.7148 H         1 RES1    0.0000
     39 C17        5.9002    1.1503   12.9408 C.ar      1 RES1    0.0000
     40 H16        5.4592    0.3859   12.5883 H         1 RES1    0.0000
     41 C18        5.9742    2.3191   12.1981 C.ar      1 RES1    0.0000
     42 H17        5.5939    2.3509   11.3290 H         1 RES1    0.0000
     43 C19        6.6033    3.4462   12.7200 C.ar      1 RES1    0.0000
     44 H18        6.6420    4.2417   12.2025 H         1 RES1    0.0000
     45 C20       10.6400    7.6576   16.8199 C.ar      1 RES1    0.0000
     46 C21       10.2294    8.9276   17.2420 C.ar      1 RES1    0.0000
     47 H19        9.6977    9.4642   16.6657 H         1 RES1    0.0000
     48 C22       10.5903    9.4106   18.4921 C.ar      1 RES1    0.0000
     49 H20       10.3084   10.2757   18.7672 H         1 RES1    0.0000
     50 C23       11.3640    8.6281   19.3418 C.ar      1 RES1    0.0000
     51 H21       11.6071    8.9540   20.2005 H         1 RES1    0.0000
     52 C24       11.7798    7.3695   18.9315 C.ar      1 RES1    0.0000
     53 H22       12.3117    6.8340   19.5089 H         1 RES1    0.0000
     54 C25       11.4169    6.8889   17.6724 C.ar      1 RES1    0.0000
     55 H23       11.7048    6.0272   17.3965 H         1 RES1    0.0000
     56 C26       10.6748    6.2625   12.5441 C.2       1 RES1    0.0000
     57 C27       10.4062    7.1226   10.3672 C.3       1 RES1    0.0000
     58 H24        9.7182    7.2175    9.6761 H         1 RES1    0.0000
     59 H25       11.1724    6.6350   10.0007 H         1 RES1    0.0000
     60 H26       10.6966    8.0110   10.6641 H         1 RES1    0.0000
     61 C28       10.4034    3.9385   13.3829 C.2       1 RES1    0.0000
     62 C29       10.1719    2.1858   11.8239 C.3       1 RES1    0.0000
     63 H27        9.6167    1.9478   11.0514 H         1 RES1    0.0000
     64 H28        9.9616    1.5904   12.5726 H         1 RES1    0.0000
     65 H29       11.1183    2.0918   11.5877 H         1 RES1    0.0000
     66 N2         5.0603    4.3381    9.3960 N.3       2 RES2    0.0000
     67 O7         6.4085    4.0078    9.5235 O.3       2 RES2    0.0000
     68 O8         4.7537    4.1472    7.9670 O.3       2 RES2    0.0000
     69 O9         2.1161    7.9979    9.3092 O.2       2 RES2    0.0000
     70 O10        3.4319    7.7523   11.1165 O.3       2 RES2    0.0000
     71 O11        1.5610    4.4828   10.6368 O.2       2 RES2    0.0000
     72 O12        3.4091    4.8965   11.8490 O.3       2 RES2    0.0000
     73 C30        7.4105    4.9452    8.9754 C.3       2 RES2    0.0000
     74 H30        7.8730    5.3936    9.7404 H         2 RES2    0.0000
     75 C31        6.7947    6.0215    8.0931 C.3       2 RES2    0.0000
     76 H31        6.4937    5.6081    7.2453 H         2 RES2    0.0000
     77 H32        7.4890    6.6911    7.8726 H         2 RES2    0.0000
     78 C32        5.5873    6.7465    8.7571 C.3       2 RES2    0.0000
     79 H33        4.9572    7.0081    8.0263 H         2 RES2    0.0000
     80 C33        4.8307    5.7673    9.6949 C.3       2 RES2    0.0000
     81 H34        5.1353    5.9393   10.6311 H         2 RES2    0.0000
     82 C34        3.3180    4.1045    7.8757 C.3       2 RES2    0.0000
     83 H35        2.9712    3.3997    8.4936 H         2 RES2    0.0000
     84 C35        2.7357    5.4637    8.2874 C.3       2 RES2    0.0000
     85 H36        1.7482    5.4032    8.3274 H         2 RES2    0.0000
     86 H37        2.9744    6.1447    7.6107 H         2 RES2    0.0000
     87 C36        3.2829    5.8914    9.6652 C.3       2 RES2    0.0000
     88 C37        8.4086    4.0502    8.2755 C.ar      2 RES2    0.0000
     89 C38        9.6621    3.8375    8.8298 C.ar      2 RES2    0.0000
     90 H38        9.9221    4.3166    9.6086 H         2 RES2    0.0000
     91 C39       10.5448    2.9221    8.2501 C.ar      2 RES2    0.0000
     92 H39       11.4034    2.7812    8.6316 H         2 RES2    0.0000
     93 C40       10.1628    2.2193    7.1151 C.ar      2 RES2    0.0000
     94 H40       10.7558    1.5874    6.7262 H         2 RES2    0.0000
     95 C41        8.9144    2.4389    6.5490 C.ar      2 RES2    0.0000
     96 H41        8.6601    1.9659    5.7649 H         2 RES2    0.0000
     97 C42        8.0345    3.3483    7.1263 C.ar      2 RES2    0.0000
     98 H42        7.1786    3.4925    6.7387 H         2 RES2    0.0000
     99 C43        6.0123    8.0202    9.4697 C.ar      2 RES2    0.0000
    100 C44        5.6756    9.2579    8.9178 C.ar      2 RES2    0.0000
    101 H43        5.1627    9.2891    8.1188 H         2 RES2    0.0000
    102 C45        6.0795   10.4476    9.5208 C.ar      2 RES2    0.0000
    103 H44        5.8435   11.2810    9.1303 H         2 RES2    0.0000
    104 C46        6.8264   10.4163   10.6910 C.ar      2 RES2    0.0000
    105 H45        7.1024   11.2264   11.1047 H         2 RES2    0.0000
    106 C47        7.1684    9.1894   11.2537 C.ar      2 RES2    0.0000
    107 H46        7.6810    9.1623   12.0535 H         2 RES2    0.0000
    108 C48        6.7635    8.0041   10.6504 C.ar      2 RES2    0.0000
    109 H47        7.0002    7.1723   11.0451 H         2 RES2    0.0000
    110 C49        3.0165    3.7036    6.4502 C.ar      2 RES2    0.0000
    111 C50        3.5942    4.3794    5.3748 C.ar      2 RES2    0.0000
    112 H48        4.1657    5.1212    5.5343 H         2 RES2    0.0000
    113 C51        3.3378    3.9727    4.0691 C.ar      2 RES2    0.0000
    114 H49        3.7413    4.4318    3.3419 H         2 RES2    0.0000
    115 C52        2.4951    2.8989    3.8271 C.ar      2 RES2    0.0000
    116 H50        2.3093    2.6307    2.9342 H         2 RES2    0.0000
    117 C53        1.9249    2.2174    4.8890 C.ar      2 RES2    0.0000
    118 H51        1.3526    1.4772    4.7267 H         2 RES2    0.0000
    119 C54        2.1903    2.6177    6.1957 C.ar      2 RES2    0.0000
    120 H52        1.8022    2.1426    6.9207 H         2 RES2    0.0000
    121 C55        2.8605    7.3381    9.9847 C.2       2 RES2    0.0000
    122 C56        3.1645    9.1286   11.4902 C.3       2 RES2    0.0000
    123 H53        3.6779    9.3538   12.2950 H         2 RES2    0.0000
    124 H54        2.2083    9.2379   11.6724 H         2 RES2    0.0000
    125 H55        3.4282    9.7228   10.7566 H         2 RES2    0.0000
    126 C57        2.6413    4.9968   10.7602 C.2       2 RES2    0.0000
    127 C58        2.8488    4.1264   12.9396 C.3       2 RES2    0.0000
    128 H56        3.5384    3.9739   13.6186 H         2 RES2    0.0000
    129 H57        2.5277    3.2655   12.6008 H         2 RES2    0.0000
    130 H58        2.1016    4.6204   13.3379 H         2 RES2    0.0000
@<TRIPOS>BOND
     1    1    2 1
     2    2    8 1
     3    3    1 1
     4    4   56 2
     5    5   56 1
     6    6   61 2
     7    7   61 1
     8    8    9 1
     9   10    8 1
    10   11   10 1
    11   12   10 1
    12   13   10 1
    13   14   13 1
    14   15    1 1
    15   16   15 1
    16   17    3 1
    17   18   17 1
    18   19   17 1
    19   20   19 1
    20   21   19 1
    21   22   15 1
    22   23    8 1
    23   24   23 ar
    24   25   24 1
    25   26   24 ar
    26   27   26 1
    27   28   26 ar
    28   29   28 1
    29   30   28 ar
    30   31   30 1
    31   32   23 ar
    32   33   32 1
    33   34   13 1
    34   35   34 ar
    35   36   35 1
    36   37   35 ar
    37   38   37 1
    38   39   37 ar
    39   40   39 1
    40   41   39 ar
    41   42   41 1
    42   43   34 ar
    43   44   43 1
    44   45   17 1
    45   46   45 ar
    46   47   46 1
    47   48   46 ar
    48   49   48 1
    49   50   48 ar
    50   51   50 1
    51   52   50 ar
    52   53   52 1
    53   54   45 ar
    54   55   54 1
    55   56   22 1
    56   57    5 1
    57   58   57 1
    58   59   57 1
    59   60   57 1
    60   61   22 1
    61   62    7 1
    62   63   62 1
    63   64   62 1
    64   65   62 1
    65   66   67 1
    66   67   73 1
    67   68   66 1
    68   69  121 2
    69   70  121 1
    70   71  126 2
    71   72  126 1
    72   73   74 1
    73   75   73 1
    74   76   75 1
    75   77   75 1
    76   78   75 1
    77   79   78 1
    78   80   66 1
    79   81   80 1
    80   82   68 1
    81   83   82 1
    82   84   82 1
    83   85   84 1
    84   86   84 1
    85   87   80 1
    86   88   73 1
    87   89   88 ar
    88   90   89 1
    89   91   89 ar
    90   92   91 1
    91   93   91 ar
    92   94   93 1
    93   95   93 ar
    94   96   95 1
    95   97   88 ar
    96   98   97 1
    97   99   78 1
    98  100   99 ar
    99  101  100 1
   100  102  100 ar
   101  103  102 1
   102  104  102 ar
   103  105  104 1
   104  106  104 ar
   105  107  106 1
   106  108   99 ar
   107  109  108 1
   108  110   82 1
   109  111  110 ar
   110  112  111 1
   111  113  111 ar
   112  114  113 1
   113  115  113 ar
   114  116  115 1
   115  117  115 ar
   116  118  117 1
   117  119  110 ar
   118  120  119 1
   119  121   87 1
   120  122   70 1
   121  123  122 1
   122  124  122 1
   123  125  122 1
   124  126   87 1
   125  127   72 1
   126  128  127 1
   127  129  127 1
   128  130  127 1
   129   13   15 1
   130   19   22 1
   131   30   32 ar
   132   41   43 ar
   133   52   54 ar
   134   78   80 1
   135   84   87 1
   136   95   97 ar
   137  106  108 ar
   138  117  119 ar
@<TRIPOS>SUBSTRUCTURE
     1 RES1 1
     2 RES2 66

@<TRIPOS>CRYSIN
  11.3123   13.5731   16.6509  78.6450  73.5690  86.8200   2 1

