# MOL2 file generated by ConQuest
# Please check atom types

@<TRIPOS>MOLECULE
RERXES02
   188   102     3
SMALL
NO_CHARGES
****
Generated from CSD

@<TRIPOS>ATOM
      1 C1         7.5928    9.3334    0.7707 C.2       1 RES1    0.0000
      2 O1         9.2890    8.0734   -0.3776 O.2       1 RES1    0.0000
      3 N1         8.4581    9.0379   -0.2983 N.3       1 RES1    0.0000
      4 N2         6.8531   10.3757    0.5438 N.2       1 RES1    0.0000
      5 C2         8.4732   10.2201   -1.2245 C.3       1 RES1    0.0000
      6 C3         7.0803   10.8112   -0.8664 C.3       1 RES1    0.0000
      7 C4         9.6406   11.1068   -0.7659 C.3       1 RES1    0.0000
      8 H1         9.4950   11.3821    0.1621 H         1 RES1    0.0000
      9 H2         9.6955   11.8970   -1.3392 H         1 RES1    0.0000
     10 H3        10.4778   10.5981   -0.8273 H         1 RES1    0.0000
     11 C5         8.6690    9.7690   -2.6552 C.3       1 RES1    0.0000
     12 H4         7.9141    9.2121   -2.9292 H         1 RES1    0.0000
     13 H5         9.5012    9.2619   -2.7265 H         1 RES1    0.0000
     14 H6         8.7189   10.5608   -3.2385 H         1 RES1    0.0000
     15 C6         5.9544   10.2045   -1.7050 C.3       1 RES1    0.0000
     16 H7         6.0046    9.2261   -1.6545 H         1 RES1    0.0000
     17 H8         6.0503   10.4877   -2.6379 H         1 RES1    0.0000
     18 H9         5.0885   10.5048   -1.3587 H         1 RES1    0.0000
     19 C7         7.0115   12.3357   -0.9387 C.3       1 RES1    0.0000
     20 H10        7.7341   12.7183   -0.4009 H         1 RES1    0.0000
     21 H11        6.1477   12.6375   -0.5915 H         1 RES1    0.0000
     22 H12        7.1096   12.6203   -1.8707 H         1 RES1    0.0000
     23 C8         7.6571    8.5867    2.0336 C.ar      1 RES1    0.0000
     24 C9         8.8749    8.5401    2.7166 C.ar      1 RES1    0.0000
     25 H13        9.5800    9.1203    2.4593 H         1 RES1    0.0000
     26 C10        9.0657    7.6534    3.7620 C.ar      1 RES1    0.0000
     27 H14        9.8985    7.6441    4.2189 H         1 RES1    0.0000
     28 C11        8.0551    6.7823    4.1590 C.ar      1 RES1    0.0000
     29 C12        8.2125    5.8801    5.2676 C.ar      1 RES1    0.0000
     30 H15        9.0474    5.8365    5.7202 H         1 RES1    0.0000
     31 C13        7.1990    5.0867    5.6814 C.ar      1 RES1    0.0000
     32 H16        7.3280    4.5189    6.4349 H         1 RES1    0.0000
     33 C14        5.9351    5.0712    5.0090 C.ar      1 RES1    0.0000
     34 C15        4.8738    4.2467    5.4077 C.ar      1 RES1    0.0000
     35 H17        4.9809    3.6867    6.1616 H         1 RES1    0.0000
     36 C16        3.6729    4.2623    4.7244 C.ar      1 RES1    0.0000
     37 H18        2.9666    3.6883    5.0116 H         1 RES1    0.0000
     38 C17        3.4892    5.0712    3.6209 C.ar      1 RES1    0.0000
     39 H19        2.6625    5.0634    3.1529 H         1 RES1    0.0000
     40 C18        4.5141    5.9267    3.1940 C.ar      1 RES1    0.0000
     41 C19        4.3579    6.8290    2.0796 C.ar      1 RES1    0.0000
     42 H20        3.5416    6.8150    1.5930 H         1 RES1    0.0000
     43 C20        5.3399    7.6690    1.7017 C.ar      1 RES1    0.0000
     44 H21        5.1900    8.2585    0.9684 H         1 RES1    0.0000
     45 C21        6.6070    7.7156    2.3863 C.ar      1 RES1    0.0000
     46 C22        6.8077    6.7978    3.4680 C.ar      1 RES1    0.0000
     47 C23        5.7571    5.9267    3.8818 C.ar      1 RES1    0.0000
     48 C24        2.9564    8.9912    7.1338 C.2       2 RES2    0.0000
     49 O2         4.8337   10.4223    7.6030 O.2       2 RES2    0.0000
     50 N3         4.1709    9.3334    7.7523 N.3       2 RES2    0.0000
     51 N4         2.5200    7.8401    7.5057 N.2       2 RES2    0.0000
     52 C25        4.7332    8.1045    8.4003 C.3       2 RES2    0.0000
     53 C26        3.4055    7.3112    8.5976 C.3       2 RES2    0.0000
     54 C27        5.6617    7.4667    7.3593 C.3       2 RES2    0.0000
     55 H22        5.1469    7.2458    6.5565 H         2 RES2    0.0000
     56 H23        6.0575    6.6532    7.7321 H         2 RES2    0.0000
     57 H24        6.3740    8.0999    7.1255 H         2 RES2    0.0000
     58 C28        5.4990    8.4623    9.6531 C.3       2 RES2    0.0000
     59 H25        4.8889    8.8714   10.3039 H         2 RES2    0.0000
     60 H26        6.2107    9.1016    9.4301 H         2 RES2    0.0000
     61 H27        5.8935    7.6550   10.0367 H         2 RES2    0.0000
     62 C29        2.7152    7.6690    9.9196 C.3       2 RES2    0.0000
     63 H28        2.6261    8.6412    9.9931 H         2 RES2    0.0000
     64 H29        3.2507    7.3314   10.6673 H         2 RES2    0.0000
     65 H30        1.8261    7.2567    9.9436 H         2 RES2    0.0000
     66 C30        3.5485    5.8178    8.4726 C.3       2 RES2    0.0000
     67 H31        3.9910    5.5954    7.6255 H         2 RES2    0.0000
     68 H32        2.6608    5.3963    8.4933 H         2 RES2    0.0000
     69 H33        4.0862    5.4725    9.2184 H         2 RES2    0.0000
     70 C31        2.1900    9.8623    6.2571 C.ar      2 RES2    0.0000
     71 C32        0.8724   10.1579    6.6187 C.ar      2 RES2    0.0000
     72 H34        0.4762    9.7021    7.3537 H         2 RES2    0.0000
     73 C33        0.1378   11.0912    5.9192 C.ar      2 RES2    0.0000
     74 H35       -0.7536   11.2841    6.1872 H         2 RES2    0.0000
     75 C34        0.6834   11.7757    4.8247 C.ar      2 RES2    0.0000
     76 C35       -0.0431   12.7868    4.1066 C.ar      2 RES2    0.0000
     77 H36       -0.9433   12.9657    4.3465 H         2 RES2    0.0000
     78 C36        0.5265   13.4712    3.0966 C.ar      2 RES2    0.0000
     79 H37        0.0267   14.1541    2.6604 H         2 RES2    0.0000
     80 C37        1.8665   13.2068    2.6694 C.ar      2 RES2    0.0000
     81 C38        2.4753   13.9068    1.6167 C.ar      2 RES2    0.0000
     82 H38        1.9943   14.5866    1.1696 H         2 RES2    0.0000
     83 C39        3.7636   13.5957    1.2154 C.ar      2 RES2    0.0000
     84 H39        4.1562   14.0841    0.4970 H         2 RES2    0.0000
     85 C40        4.4898   12.6001    1.8536 C.ar      2 RES2    0.0000
     86 H40        5.3715   12.4026    1.5629 H         2 RES2    0.0000
     87 C41        3.9313   11.9001    2.9227 C.ar      2 RES2    0.0000
     88 C42        4.6560   10.8734    3.6330 C.ar      2 RES2    0.0000
     89 H41        5.5356   10.6588    3.3511 H         2 RES2    0.0000
     90 C43        4.1226   10.2357    4.6936 C.ar      2 RES2    0.0000
     91 H42        4.6419    9.5761    5.1467 H         2 RES2    0.0000
     92 C44        2.7854   10.5157    5.1517 C.ar      2 RES2    0.0000
     93 C45        2.0233   11.4801    4.4319 C.ar      2 RES2    0.0000
     94 C46        2.6032   12.1801    3.3362 C.ar      2 RES2    0.0000
     95 C47        4.0081    7.0934    1.5853 Du        3 SUP3    0.0000
     96 C48        4.5363    6.3934    2.6788 Du        3 SUP3    0.0000
     97 C49        3.7952    5.3823    3.3769 Du        3 SUP3    0.0000
     98 C50        4.3484    4.6823    4.3861 Du        3 SUP3    0.0000
     99 C51        5.6845    4.9312    4.8325 Du        3 SUP3    0.0000
    100 C52        6.2763    4.2156    5.8849 Du        3 SUP3    0.0000
    101 C53        7.5614    4.5112    6.3052 Du        3 SUP3    0.0000
    102 C54        8.3013    5.5067    5.6868 Du        3 SUP3    0.0000
    103 C55        7.7599    6.2378    4.6188 Du        3 SUP3    0.0000
    104 C56        8.4993    7.2490    3.9283 Du        3 SUP3    0.0000
    105 C57        6.8562    9.1623    0.4000 Du        3 SUP3    0.0000
    106 C58        7.9826    7.9179    2.8687 Du        3 SUP3    0.0000
    107 C59        6.6495    7.6534    2.3912 Du        3 SUP3    0.0000
    108 C60        5.8730    6.6734    3.0912 Du        3 SUP3    0.0000
    109 C61        6.4354    5.9578    4.1860 Du        3 SUP3    0.0000
    110 C62        3.7191    8.8356    6.7747 Du        3 SUP3    0.0000
    111 C63        4.5805    7.9023    8.7566 Du        3 SUP3    0.0000
    112 C64        3.1720    7.3423    8.3943 Du        3 SUP3    0.0000
    113 C65        5.7239    7.0001    8.2840 Du        3 SUP3    0.0000
    114 C66        4.7904    8.3223   10.1922 Du        3 SUP3    0.0000
    115 C67        2.0640    7.9801    9.2432 Du        3 SUP3    0.0000
    116 C68        8.6531   10.0023   -0.8654 Du        3 SUP3    0.0000
    117 C69        3.0648    5.8334    8.4476 Du        3 SUP3    0.0000
    118 C70        3.8061    9.5823    5.5097 Du        3 SUP3    0.0000
    119 C71        5.0298    9.6134    4.8365 Du        3 SUP3    0.0000
    120 C72        5.2332   10.4845    3.7830 Du        3 SUP3    0.0000
    121 C73        4.2298   11.3557    3.3677 Du        3 SUP3    0.0000
    122 C74        4.4003   12.2423    2.2504 Du        3 SUP3    0.0000
    123 C75        3.3938   13.0357    1.8192 Du        3 SUP3    0.0000
    124 C76        2.1243   13.0668    2.4809 Du        3 SUP3    0.0000
    125 C77        1.0699   13.8757    2.0642 Du        3 SUP3    0.0000
    126 C78       -0.1366   13.8912    2.7373 Du        3 SUP3    0.0000
    127 C79        7.3541   10.8579   -1.0331 Du        3 SUP3    0.0000
    128 C80       -0.3331   13.0823    3.8485 Du        3 SUP3    0.0000
    129 C81        0.6846   12.2268    4.2933 Du        3 SUP3    0.0000
    130 C82        0.5152   11.3557    5.4165 Du        3 SUP3    0.0000
    131 C83        1.4903   10.5001    5.8120 Du        3 SUP3    0.0000
    132 C84        2.7629   10.4534    5.1386 Du        3 SUP3    0.0000
    133 C85        2.9765   11.3557    4.0485 Du        3 SUP3    0.0000
    134 C86        1.9332   12.2268    3.6161 Du        3 SUP3    0.0000
    135 C87        9.6144   10.5934    0.1796 Du        3 SUP3    0.0000
    136 C88        9.3940    9.6445   -2.1329 Du        3 SUP3    0.0000
    137 C89        6.6387   10.5623   -2.3552 Du        3 SUP3    0.0000
    138 C90        7.5541   12.3512   -0.8780 Du        3 SUP3    0.0000
    139 C91        6.0715    8.3067    1.2859 Du        3 SUP3    0.0000
    140 C92        4.7567    8.0267    0.9052 Du        3 SUP3    0.0000
    141 H43        3.1190    6.9067    1.3047 Du        3 SUP3    0.0000
    142 H44        2.8964    5.2080    3.1229 Du        3 SUP3    0.0000
    143 H45        3.8394    3.9947    4.8089 Du        3 SUP3    0.0000
    144 H46        5.7855    3.5343    6.3178 Du        3 SUP3    0.0000
    145 H47        7.9418    4.0149    7.0234 Du        3 SUP3    0.0000
    146 H48        9.1799    5.7012    5.9905 Du        3 SUP3    0.0000
    147 H49        9.3761    7.4652    4.2249 Du        3 SUP3    0.0000
    148 H50        8.5110    8.5712    2.4292 Du        3 SUP3    0.0000
    149 H51        5.5691    6.7310    7.3522 Du        3 SUP3    0.0000
    150 H52        5.7596    6.1927    8.8476 Du        3 SUP3    0.0000
    151 H53        6.5733    7.4776    8.3506 Du        3 SUP3    0.0000
    152 H54        4.0515    8.9010   10.4751 Du        3 SUP3    0.0000
    153 H55        5.6360    8.8139   10.2679 Du        3 SUP3    0.0000
    154 H56        4.8216    7.5290   10.7649 Du        3 SUP3    0.0000
    155 H57        2.1389    8.9523    9.2049 Du        3 SUP3    0.0000
    156 H58        2.1544    7.6783   10.1718 Du        3 SUP3    0.0000
    157 H59        1.1895    7.7016    8.8956 Du        3 SUP3    0.0000
    158 H60        3.7760    5.4336    7.9032 Du        3 SUP3    0.0000
    159 H61        2.1924    5.5518    8.0984 Du        3 SUP3    0.0000
    160 H62        3.1572    5.5285    9.3761 Du        3 SUP3    0.0000
    161 H63        5.7304    9.0285    5.1062 Du        3 SUP3    0.0000
    162 H64        6.0703   10.4845    3.3331 Du        3 SUP3    0.0000
    163 H65        5.2385   12.2781    1.8047 Du        3 SUP3    0.0000
    164 H66        3.5315   13.5941    1.0600 Du        3 SUP3    0.0000
    165 H67        1.1861   14.4404    1.3047 Du        3 SUP3    0.0000
    166 H68       -0.8377   14.4606    2.4382 Du        3 SUP3    0.0000
    167 H69       -1.1637   13.1072    4.3089 Du        3 SUP3    0.0000
    168 H70       -0.3049   11.3697    5.8959 Du        3 SUP3    0.0000
    169 H71        1.3325    9.9261    6.5505 Du        3 SUP3    0.0000
    170 H72        9.1158   10.8174    0.9924 Du        3 SUP3    0.0000
    171 H73       10.0365   11.3992   -0.1802 Du        3 SUP3    0.0000
    172 H74       10.3044    9.9292    0.3934 Du        3 SUP3    0.0000
    173 H75        8.7631    9.2805   -2.7866 Du        3 SUP3    0.0000
    174 H76       10.0829    8.9834   -1.9308 Du        3 SUP3    0.0000
    175 H77        9.8150   10.4534   -2.5028 Du        3 SUP3    0.0000
    176 H78        6.5133    9.5885   -2.4487 Du        3 SUP3    0.0000
    177 H79        7.1807   10.8874   -3.1018 Du        3 SUP3    0.0000
    178 H80        5.7659   11.0010   -2.3617 Du        3 SUP3    0.0000
    179 H81        8.0118   12.5317   -0.0315 Du        3 SUP3    0.0000
    180 H82        6.6828   12.7977   -0.8813 Du        3 SUP3    0.0000
    181 H83        8.0976   12.6841   -1.6215 Du        3 SUP3    0.0000
    182 H84        4.3723    8.4934    0.1697 Du        3 SUP3    0.0000
    183 N5         8.0515    8.7890   -0.2375 Du        3 SUP3    0.0000
    184 N6         6.4601   10.3445    0.0566 Du        3 SUP3    0.0000
    185 N7         4.5936    9.0845    7.8451 Du        3 SUP3    0.0000
    186 N8         2.9534    7.8090    6.9904 Du        3 SUP3    0.0000
    187 O3         8.6748    7.6845   -0.1176 Du        3 SUP3    0.0000
    188 O4         5.4492   10.0334    7.9346 Du        3 SUP3    0.0000
@<TRIPOS>BOND
     1    1    3 1
     2    2    3 1
     3    3    5 1
     4    4    1 2
     5    5    6 1
     6    6    4 1
     7    7    5 1
     8    8    7 1
     9    9    7 1
    10   10    7 1
    11   11    5 1
    12   12   11 1
    13   13   11 1
    14   14   11 1
    15   15    6 1
    16   16   15 1
    17   17   15 1
    18   18   15 1
    19   19    6 1
    20   20   19 1
    21   21   19 1
    22   22   19 1
    23   23    1 1
    24   24   23 ar
    25   25   24 1
    26   26   24 ar
    27   27   26 1
    28   28   26 ar
    29   29   28 ar
    30   30   29 1
    31   31   29 ar
    32   32   31 1
    33   33   31 ar
    34   34   33 ar
    35   35   34 1
    36   36   34 ar
    37   37   36 1
    38   38   36 ar
    39   39   38 1
    40   40   38 ar
    41   41   40 ar
    42   42   41 1
    43   43   41 ar
    44   44   43 1
    45   45   23 ar
    46   46   28 ar
    47   47   33 ar
    48   48   50 1
    49   49   50 1
    50   50   52 1
    51   51   48 2
    52   52   53 1
    53   53   51 1
    54   54   52 1
    55   55   54 1
    56   56   54 1
    57   57   54 1
    58   58   52 1
    59   59   58 1
    60   60   58 1
    61   61   58 1
    62   62   53 1
    63   63   62 1
    64   64   62 1
    65   65   62 1
    66   66   53 1
    67   67   66 1
    68   68   66 1
    69   69   66 1
    70   70   48 1
    71   71   70 ar
    72   72   71 1
    73   73   71 ar
    74   74   73 1
    75   75   73 ar
    76   76   75 ar
    77   77   76 1
    78   78   76 ar
    79   79   78 1
    80   80   78 ar
    81   81   80 ar
    82   82   81 1
    83   83   81 ar
    84   84   83 1
    85   85   83 ar
    86   86   85 1
    87   87   85 ar
    88   88   87 ar
    89   89   88 1
    90   90   88 ar
    91   91   90 1
    92   92   70 ar
    93   93   75 ar
    94   94   80 ar
    95   40   47 ar
    96   43   45 ar
    97   45   46 ar
    98   46   47 ar
    99   87   94 ar
   100   90   92 ar
   101   92   93 ar
   102   93   94 ar
@<TRIPOS>SUBSTRUCTURE
     1 RES1 1
     2 RES2 48
     3 SUP3 95

@<TRIPOS>CRYSIN
   7.6366   15.5557   15.0141  90.0000  90.3950  90.0000   4 1

