# MOL2 file generated by ConQuest
# Please check atom types

@<TRIPOS>MOLECULE
RERXEU
    29    29     1
SMALL
NO_CHARGES
****
Generated from CSD

@<TRIPOS>ATOM
      1 C1         4.1710    2.0238    3.5073 C.3       1 RES1    0.0000
      2 H1         4.7472    1.9284    4.2805 H         1 RES1    0.0000
      3 H2         4.0530    2.9703    3.3374 H         1 RES1    0.0000
      4 C2         4.8276    1.3768    2.3069 C.3       1 RES1    0.0000
      5 H3         5.6456    1.8558    2.0970 H         1 RES1    0.0000
      6 H4         5.0677    0.4640    2.5305 H         1 RES1    0.0000
      7 C3         3.9321    1.3683    1.0882 C.3       1 RES1    0.0000
      8 H5         4.3572    0.8553    0.3678 H         1 RES1    0.0000
      9 C4         2.5582    0.7872    1.3919 C.3       1 RES1    0.0000
     10 C5         1.9203    1.4605    2.5874 C.3       1 RES1    0.0000
     11 H6         1.0781    1.0264    2.7909 H         1 RES1    0.0000
     12 H7         1.7355    2.3871    2.3743 H         1 RES1    0.0000
     13 C6         2.8279    1.3952    3.8022 C.3       1 RES1    0.0000
     14 H8         2.4093    1.8610    4.5434 H         1 RES1    0.0000
     15 H9         2.9524    0.4691    4.0618 H         1 RES1    0.0000
     16 O1         3.6914    2.7275    0.6466 O.3       1 RES1    0.0000
     17 C7         4.4913    3.2085   -0.3173 C.2       1 RES1    0.0000
     18 C8         4.0403    4.5519   -0.7757 C.3       1 RES1    0.0000
     19 H10        4.1244    4.6084   -1.7300 H         1 RES1    0.0000
     20 H11        4.5838    5.2305   -0.3654 H         1 RES1    0.0000
     21 H12        3.1219    4.6836   -0.5273 H         1 RES1    0.0000
     22 O2         5.4436    2.6157   -0.7388 O.2       1 RES1    0.0000
     23 N1         1.6945    1.0570    0.1402 N.pl3     1 RES1    0.0000
     24 O3         2.1649    0.7522   -0.9271 O.2       1 RES1    0.0000
     25 O4         0.5874    1.5316    0.2797 O.2       1 RES1    0.0000
     26 C9         2.6043   -0.7345    1.5096 C.3       1 RES1    0.0000
     27 H13        1.7233   -1.0679    1.7004 H         1 RES1    0.0000
     28 H14        3.2015   -0.9823    2.2204 H         1 RES1    0.0000
     29 H15        2.9177   -1.1093    0.6835 H         1 RES1    0.0000
@<TRIPOS>BOND
     1    1    2 1
     2    3    1 1
     3    4    1 1
     4    5    4 1
     5    6    4 1
     6    7    4 1
     7    8    7 1
     8    9    7 1
     9   10    9 1
    10   11   10 1
    11   12   10 1
    12   13    1 1
    13   14   13 1
    14   15   13 1
    15   16    7 1
    16   17   16 1
    17   18   17 1
    18   19   18 1
    19   20   18 1
    20   21   18 1
    21   22   17 2
    22   23    9 1
    23   24   23 2
    24   25   23 2
    25   26    9 1
    26   27   26 1
    27   28   26 1
    28   29   26 1
    29   10   13 1
@<TRIPOS>SUBSTRUCTURE
     1 RES1 1

@<TRIPOS>CRYSIN
  20.4180   25.9190    8.0130  90.0000  90.0000  90.0000  43 1

