# MOL2 file generated by ConQuest
# Please check atom types

@<TRIPOS>MOLECULE
RERXES03
    48    51     2
SMALL
NO_CHARGES
****
Generated from CSD

@<TRIPOS>ATOM
      1 O1        -0.6101    1.4391   -0.2204 O.2       1 RES1    0.0000
      2 O2        -1.7811    0.3993    4.1663 Du        2 SUP2    0.0000
      3 N1        -1.2259    0.9525    0.7864 N.pl3     1 RES1    0.0000
      4 N2        -1.6140    0.3207    2.9055 N.2       1 RES1    0.0000
      5 C1        -2.6837    0.6168    0.7743 C.3       1 RES1    0.0000
      6 C2        -3.4256    1.9554    0.8881 C.3       1 RES1    0.0000
      7 H1        -3.1711    2.5342    0.1404 H         1 RES1    0.0000
      8 H2        -3.1869    2.3898    1.7328 H         1 RES1    0.0000
      9 H3        -4.3919    1.7960    0.8640 H         1 RES1    0.0000
     10 C3        -3.0606   -0.0969   -0.5032 C.3       1 RES1    0.0000
     11 H4        -3.9977   -0.3792   -0.4546 H         1 RES1    0.0000
     12 H5        -2.4882   -0.8840   -0.6189 H         1 RES1    0.0000
     13 H6        -2.9402    0.5084   -1.2639 H         1 RES1    0.0000
     14 C4        -2.7408   -0.2240    2.0843 C.3       1 RES1    0.0000
     15 C5        -2.4251   -1.7026    1.8373 C.3       1 RES1    0.0000
     16 H7        -1.6165   -1.7766    1.2901 H         1 RES1    0.0000
     17 H8        -3.1758   -2.1234    1.3686 H         1 RES1    0.0000
     18 H9        -2.2808   -2.1536    2.6944 H         1 RES1    0.0000
     19 C6        -4.0429   -0.0948    2.8546 C.3       1 RES1    0.0000
     20 H10       -3.9893   -0.6247    3.6774 H         1 RES1    0.0000
     21 H11       -4.7833   -0.4237    2.3017 H         1 RES1    0.0000
     22 H12       -4.1962    0.8459    3.0800 H         1 RES1    0.0000
     23 C7        -0.7670    0.8955    2.1131 C.2       1 RES1    0.0000
     24 C8         0.5045    1.5245    2.5140 C.ar      1 RES1    0.0000
     25 C9         0.7877    2.8027    2.0256 C.ar      1 RES1    0.0000
     26 H13        0.1944    3.2099    1.4043 H         1 RES1    0.0000
     27 C10        1.9203    3.4821    2.4349 C.ar      1 RES1    0.0000
     28 H14        2.0890    4.3531    2.0970 H         1 RES1    0.0000
     29 C11        2.8210    2.9090    3.3366 C.ar      1 RES1    0.0000
     30 C12        3.9828    3.6085    3.8098 C.ar      1 RES1    0.0000
     31 H15        4.1787    4.4709    3.4632 H         1 RES1    0.0000
     32 C13        4.8029    3.0656    4.7361 C.ar      1 RES1    0.0000
     33 H16        5.5481    3.5661    5.0484 H         1 RES1    0.0000
     34 C14        4.5741    1.7522    5.2588 C.ar      1 RES1    0.0000
     35 C15        5.4160    1.1604    6.2078 C.ar      1 RES1    0.0000
     36 H17        6.1633    1.6466    6.5360 H         1 RES1    0.0000
     37 C16        5.1787   -0.1171    6.6769 C.ar      1 RES1    0.0000
     38 H18        5.7650   -0.4991    7.3191 H         1 RES1    0.0000
     39 C17        4.0903   -0.8474    6.2168 C.ar      1 RES1    0.0000
     40 H19        3.9427   -1.7285    6.5384 H         1 RES1    0.0000
     41 C18        3.2098   -0.2930    5.2814 C.ar      1 RES1    0.0000
     42 C19        2.0541   -0.9974    4.8025 C.ar      1 RES1    0.0000
     43 H20        1.8954   -1.8836    5.1055 H         1 RES1    0.0000
     44 C20        1.1846   -0.4359    3.9309 C.ar      1 RES1    0.0000
     45 H21        0.4229   -0.9307    3.6512 H         1 RES1    0.0000
     46 C21        1.3875    0.8948    3.4177 C.ar      1 RES1    0.0000
     47 C22        2.5566    1.6006    3.8393 C.ar      1 RES1    0.0000
     48 C23        3.4507    1.0154    4.7833 C.ar      1 RES1    0.0000
@<TRIPOS>BOND
     1    1    3 1
     2    3    5 1
     3    4   14 1
     4    5    6 1
     5    6    7 1
     6    8    6 1
     7    9    6 1
     8   10    5 1
     9   11   10 1
    10   12   10 1
    11   13   10 1
    12   14    5 1
    13   15   14 1
    14   16   15 1
    15   17   15 1
    16   18   15 1
    17   19   14 1
    18   20   19 1
    19   21   19 1
    20   22   19 1
    21   23    3 1
    22   24   23 1
    23   25   24 ar
    24   26   25 1
    25   27   25 ar
    26   28   27 1
    27   29   27 ar
    28   30   29 ar
    29   31   30 1
    30   32   30 ar
    31   33   32 1
    32   34   32 ar
    33   35   34 ar
    34   36   35 1
    35   37   35 ar
    36   38   37 1
    37   39   37 ar
    38   40   39 1
    39   41   39 ar
    40   42   41 ar
    41   43   42 1
    42   44   42 ar
    43   45   44 1
    44   46   24 ar
    45   47   29 ar
    46   48   34 ar
    47    4   23 2
    48   41   48 ar
    49   44   46 ar
    50   46   47 ar
    51   47   48 ar
@<TRIPOS>SUBSTRUCTURE
     1 RES1 1
     2 SUP2 2

@<TRIPOS>CRYSIN
  10.3220    7.1810   24.0370  90.0000  98.0180  90.0000 231 1

