# MOL2 file generated by ConQuest
# Please check atom types

@<TRIPOS>MOLECULE
RESKIJ
    43    45     1
SMALL
NO_CHARGES
****
Generated from CSD

@<TRIPOS>ATOM
      1 O1         1.4907   18.0285   -2.5947 O.2       1 RES1    0.0000
      2 O2         0.9900   22.3907    1.5949 O.2       1 RES1    0.0000
      3 N1         1.4653   21.3860   -0.2543 N.pl3     1 RES1    0.0000
      4 C1         1.0268   20.1172    0.3539 C.3       1 RES1    0.0000
      5 C2         0.5076   19.1506   -0.7341 C.3       1 RES1    0.0000
      6 C3         1.4941   19.0108   -1.8930 C.2       1 RES1    0.0000
      7 C4         2.8966   20.2446   -3.5989 C.3       1 RES1    0.0000
      8 C5         3.9304   21.3375   -3.7807 C.3       1 RES1    0.0000
      9 C6         3.4224   22.6614   -3.2852 C.3       1 RES1    0.0000
     10 C7         2.9362   22.5955   -1.8466 C.3       1 RES1    0.0000
     11 C8         1.8993   21.5011   -1.6605 C.3       1 RES1    0.0000
     12 C9         2.4414   20.1563   -2.1455 C.3       1 RES1    0.0000
     13 N2         1.3973   22.5113    0.4309 N.2       1 RES1    0.0000
     14 C10        2.0752   19.5971    1.3310 C.ar      1 RES1    0.0000
     15 C11        3.4264   19.8847    1.2157 C.ar      1 RES1    0.0000
     16 C12        4.3340   19.4424    2.1543 C.ar      1 RES1    0.0000
     17 C13        3.9235   18.7003    3.2362 C.ar      1 RES1    0.0000
     18 C14        2.5852   18.4102    3.3577 C.ar      1 RES1    0.0000
     19 C15        1.6813   18.8465    2.4296 C.ar      1 RES1    0.0000
     20 C16        0.2005   17.7722   -0.1591 C.3       1 RES1    0.0000
     21 C17       -0.7982   19.7149   -1.3398 C.3       1 RES1    0.0000
     22 H1         0.2880   20.3192    0.9194 H         1 RES1    0.0000
     23 H2         2.1407   20.4016   -4.1504 H         1 RES1    0.0000
     24 H3         3.2061   19.3765   -3.8436 H         1 RES1    0.0000
     25 H4         4.1845   21.3718   -4.6974 H         1 RES1    0.0000
     26 H5         4.7341   21.1270   -3.3157 H         1 RES1    0.0000
     27 H6         2.7165   22.9690   -3.8384 H         1 RES1    0.0000
     28 H7         4.0677   23.3534   -3.3691 H         1 RES1    0.0000
     29 H8         3.6937   22.3969   -1.3057 H         1 RES1    0.0000
     30 H9         2.5779   23.4357   -1.5827 H         1 RES1    0.0000
     31 H10        1.1095   21.6876   -2.1569 H         1 RES1    0.0000
     32 H11        3.1953   19.9714   -1.5967 H         1 RES1    0.0000
     33 H12        3.7145   20.4107    0.4772 H         1 RES1    0.0000
     34 H13        5.2450   19.6922    2.0608 H         1 RES1    0.0000
     35 H14        4.5184   18.4292    3.9240 H         1 RES1    0.0000
     36 H15        2.2478   17.9120    4.0918 H         1 RES1    0.0000
     37 H16        0.7492   18.6763    2.4960 H         1 RES1    0.0000
     38 H17        0.9804   17.3743    0.2115 H         1 RES1    0.0000
     39 H18       -0.3982   17.8159    0.5751 H         1 RES1    0.0000
     40 H19       -0.1517   17.2668   -0.8809 H         1 RES1    0.0000
     41 H20       -1.1042   19.1683   -2.0573 H         1 RES1    0.0000
     42 H21       -0.7007   20.5984   -1.6815 H         1 RES1    0.0000
     43 H22       -1.3997   19.7838   -0.6083 H         1 RES1    0.0000
@<TRIPOS>BOND
     1    1    6 2
     2    2   13 2
     3    3    4 1
     4    4    5 1
     5    5    6 1
     6    6   12 1
     7    7    8 1
     8    8    9 1
     9    9   10 1
    10   10   11 1
    11   11    3 1
    12   12    7 1
    13   13    3 1
    14   14    4 1
    15   15   14 ar
    16   16   15 ar
    17   17   16 ar
    18   18   17 ar
    19   19   14 ar
    20   20    5 1
    21   21    5 1
    22   22    4 1
    23   23    7 1
    24   24    7 1
    25   25    8 1
    26   26    8 1
    27   27    9 1
    28   28    9 1
    29   29   10 1
    30   30   10 1
    31   31   11 1
    32   32   12 1
    33   33   15 1
    34   34   16 1
    35   35   17 1
    36   36   18 1
    37   37   19 1
    38   38   20 1
    39   39   20 1
    40   40   20 1
    41   41   21 1
    42   42   21 1
    43   43   21 1
    44   11   12 1
    45   18   19 ar
@<TRIPOS>SUBSTRUCTURE
     1 RES1 1

@<TRIPOS>CRYSIN
   7.5960   22.8820    9.3110  90.0000 110.1800  90.0000  14 2

