# MOL2 file generated by ConQuest
# Please check atom types

@<TRIPOS>MOLECULE
RESKUV
    72    74     2
SMALL
NO_CHARGES
****
Generated from CSD

@<TRIPOS>ATOM
      1 C1         1.5031    1.2450    9.0405 C.3       1 RES1    0.0000
      2 C2         1.7431    2.0020   10.3494 C.3       1 RES1    0.0000
      3 H1         0.9563    1.9251   10.9113 H         1 RES1    0.0000
      4 H2         2.4873    1.5952   10.8212 H         1 RES1    0.0000
      5 C3         2.0460    3.4745   10.1094 C.3       1 RES1    0.0000
      6 H3         2.8977    3.5572    9.6528 H         1 RES1    0.0000
      7 H4         2.1197    3.9298   10.9629 H         1 RES1    0.0000
      8 C4         0.9598    4.1420    9.2758 C.3       1 RES1    0.0000
      9 H5         0.1305    4.1572    9.7781 H         1 RES1    0.0000
     10 H6         1.2144    5.0595    9.0897 H         1 RES1    0.0000
     11 C5         0.7432    3.4057    7.9693 C.3       1 RES1    0.0000
     12 H7         1.5440    3.4714    7.4260 H         1 RES1    0.0000
     13 H8         0.0159    3.8246    7.4811 H         1 RES1    0.0000
     14 C6         0.4133    1.9419    8.2046 C.3       1 RES1    0.0000
     15 H9         0.3270    1.4901    7.3499 H         1 RES1    0.0000
     16 H10       -0.4374    1.8738    8.6659 H         1 RES1    0.0000
     17 C7         2.7332    1.2516    8.2257 C.1       1 RES1    0.0000
     18 N1         3.6503    1.3863    7.5618 N.1       1 RES1    0.0000
     19 N2         1.1170   -0.1702    9.2664 N.am      1 RES1    0.0000
     20 O1        -0.1924   -0.2498    9.7968 O.3       1 RES1    0.0000
     21 H11       -0.7077   -0.5095    9.2126 H         1 RES1    0.0000
     22 C8         2.0104   -0.9902    9.9584 C.2       1 RES1    0.0000
     23 O2         3.2278   -0.7967    9.8512 O.2       1 RES1    0.0000
     24 N3         1.4590   -1.9926   10.6468 N.am      1 RES1    0.0000
     25 H12        0.6010   -2.0499   10.6374 H         1 RES1    0.0000
     26 C9         2.1627   -2.9690   11.3902 C.ar      1 RES1    0.0000
     27 C10        3.2697   -2.6474   12.1594 C.ar      1 RES1    0.0000
     28 H13        3.6036   -1.7797   12.1582 H         1 RES1    0.0000
     29 C11        3.8730   -3.6194   12.9285 C.ar      1 RES1    0.0000
     30 H14        4.6187   -3.4048   13.4402 H         1 RES1    0.0000
     31 C12        3.3820   -4.9068   12.9473 C.ar      1 RES1    0.0000
     32 H15        3.7920   -5.5552   13.4718 H         1 RES1    0.0000
     33 C13        2.2807   -5.2266   12.1828 C.ar      1 RES1    0.0000
     34 H16        1.9457   -6.0951   12.1921 H         1 RES1    0.0000
     35 C14        1.6726   -4.2617   11.4031 C.ar      1 RES1    0.0000
     36 H17        0.9318   -4.4827   10.8856 H         1 RES1    0.0000
     37 C15       -3.5205   -3.0056    8.4938 C.3       2 RES2    0.0000
     38 C16       -4.6198   -3.6955    9.3180 C.3       2 RES2    0.0000
     39 H18       -4.7042   -3.2511   10.1761 H         2 RES2    0.0000
     40 H19       -5.4681   -3.6121    8.8543 H         2 RES2    0.0000
     41 C17       -4.3144   -5.1688    9.5427 C.3       2 RES2    0.0000
     42 H20       -3.5055   -5.2540   10.0719 H         2 RES2    0.0000
     43 H21       -5.0418   -5.5778   10.0368 H         2 RES2    0.0000
     44 C18       -4.1323   -5.8912    8.2257 C.3       2 RES2    0.0000
     45 H22       -4.9655   -5.8721    7.7293 H         2 RES2    0.0000
     46 H23       -3.9039   -6.8174    8.3942 H         2 RES2    0.0000
     47 C19       -3.0372   -5.2449    7.3944 C.3       2 RES2    0.0000
     48 H24       -2.9860   -5.6877    6.5328 H         2 RES2    0.0000
     49 H25       -2.1841   -5.3627    7.8417 H         2 RES2    0.0000
     50 C20       -3.2889   -3.7621    7.1802 C.3       2 RES2    0.0000
     51 H26       -4.0660   -3.6519    6.6112 H         2 RES2    0.0000
     52 H27       -2.5265   -3.3742    6.7224 H         2 RES2    0.0000
     53 C21       -2.2941   -3.0228    9.3215 C.1       2 RES2    0.0000
     54 N4        -1.3938   -3.1519    9.9982 N.1       2 RES2    0.0000
     55 N5        -3.8918   -1.5898    8.2737 N.am      2 RES2    0.0000
     56 O3        -5.1961   -1.4889    7.7398 O.3       2 RES2    0.0000
     57 H28       -5.7158   -1.2602    8.3310 H         2 RES2    0.0000
     58 C22       -2.9849   -0.7645    7.5981 C.2       2 RES2    0.0000
     59 O4        -1.7724   -0.9810    7.7020 O.2       2 RES2    0.0000
     60 N6        -3.5171    0.2600    6.9332 N.am      2 RES2    0.0000
     61 H29       -4.3741    0.3394    6.9425 H         2 RES2    0.0000
     62 C23       -2.7767    1.2346    6.2085 C.ar      2 RES2    0.0000
     63 C24       -1.7263    0.8764    5.3854 C.ar      2 RES2    0.0000
     64 H30       -1.4611   -0.0135    5.3292 H         2 RES2    0.0000
     65 C25       -1.0716    1.8418    4.6479 C.ar      2 RES2    0.0000
     66 H31       -0.3632    1.5974    4.0964 H         2 RES2    0.0000
     67 C26       -1.4552    3.1587    4.7193 C.ar      2 RES2    0.0000
     68 H32       -1.0156    3.8040    4.2135 H         2 RES2    0.0000
     69 C27       -2.4933    3.5144    5.5435 C.ar      2 RES2    0.0000
     70 H33       -2.7507    4.4062    5.6044 H         2 RES2    0.0000
     71 C28       -3.1615    2.5521    6.2857 C.ar      2 RES2    0.0000
     72 H34       -3.8692    2.7989    6.8360 H         2 RES2    0.0000
@<TRIPOS>BOND
     1    1    2 1
     2    2    3 1
     3    4    2 1
     4    5    2 1
     5    6    5 1
     6    7    5 1
     7    8    5 1
     8    9    8 1
     9   10    8 1
    10   11    8 1
    11   12   11 1
    12   13   11 1
    13   14    1 1
    14   15   14 1
    15   16   14 1
    16   17    1 1
    17   18   17 3
    18   19    1 1
    19   20   19 1
    20   21   20 1
    21   22   19 1
    22   23   22 2
    23   24   22 1
    24   25   24 1
    25   26   24 1
    26   27   26 ar
    27   28   27 1
    28   29   27 ar
    29   30   29 1
    30   31   29 ar
    31   32   31 1
    32   33   31 ar
    33   34   33 1
    34   35   26 ar
    35   36   35 1
    36   37   38 1
    37   38   39 1
    38   40   38 1
    39   41   38 1
    40   42   41 1
    41   43   41 1
    42   44   41 1
    43   45   44 1
    44   46   44 1
    45   47   44 1
    46   48   47 1
    47   49   47 1
    48   50   37 1
    49   51   50 1
    50   52   50 1
    51   53   37 1
    52   54   53 3
    53   55   37 1
    54   56   55 1
    55   57   56 1
    56   58   55 1
    57   59   58 2
    58   60   58 1
    59   61   60 1
    60   62   60 1
    61   63   62 ar
    62   64   63 1
    63   65   63 ar
    64   66   65 1
    65   67   65 ar
    66   68   67 1
    67   69   67 ar
    68   70   69 1
    69   71   62 ar
    70   72   71 1
    71   11   14 1
    72   33   35 ar
    73   47   50 1
    74   69   71 ar
@<TRIPOS>SUBSTRUCTURE
     1 RES1 1
     2 RES2 37

@<TRIPOS>CRYSIN
  10.0301   11.7403   11.7660  95.5590  90.6170  97.3230   2 1

