# MOL2 file generated by ConQuest
# Please check atom types

@<TRIPOS>MOLECULE
RETREP
    52    58     1
SMALL
NO_CHARGES
****
Generated from CSD

@<TRIPOS>ATOM
      1 O1         8.3812   17.6119    0.4849 O.3       1 RES1    0.0000
      2 N1         5.8087   10.5130    4.5479 N.pl3     1 RES1    0.0000
      3 C1         9.6256   17.0485    0.7316 C.ar      1 RES1    0.0000
      4 O2         6.6669   10.5179    5.4197 O.2       1 RES1    0.0000
      5 C2        11.9959   17.2532    0.5341 C.ar      1 RES1    0.0000
      6 H1        12.7622   17.6981    0.1910 H         1 RES1    0.0000
      7 O3         8.2063   11.6580    3.5356 O.3       1 RES1    0.0000
      8 C3        10.7283   17.7257    0.2293 C.ar      1 RES1    0.0000
      9 H2        10.6164   18.4981   -0.3127 H         1 RES1    0.0000
     10 C4         9.7462   15.8671    1.4685 C.ar      1 RES1    0.0000
     11 C5        11.0399   15.4382    1.7966 C.ar      1 RES1    0.0000
     12 H3        11.1573   14.6650    2.3361 H         1 RES1    0.0000
     13 O4         4.9246    9.6572    4.4563 O.2       1 RES1    0.0000
     14 C6        12.1486   16.1313    1.3402 C.ar      1 RES1    0.0000
     15 H4        13.0202   15.8372    1.5795 H         1 RES1    0.0000
     16 C7         8.4898   15.1878    1.8654 C.2       1 RES1    0.0000
     17 C8         7.4536   16.1924    2.2075 C.ar      1 RES1    0.0000
     18 C9         6.5244   16.0733    3.2542 C.ar      1 RES1    0.0000
     19 H5         6.5542   15.3152    3.8260 H         1 RES1    0.0000
     20 C10        5.5657   17.0493    3.4608 C.ar      1 RES1    0.0000
     21 H6         4.9350   16.9516    4.1643 H         1 RES1    0.0000
     22 C11        5.5238   18.1699    2.6428 C.ar      1 RES1    0.0000
     23 H7         4.8438   18.8211    2.7694 H         1 RES1    0.0000
     24 C12        6.4632   18.3447    1.6461 C.ar      1 RES1    0.0000
     25 H8         6.4472   19.1205    1.0971 H         1 RES1    0.0000
     26 C13        7.4295   17.3687    1.4610 C.ar      1 RES1    0.0000
     27 C14        8.2673   13.8494    1.8761 C.2       1 RES1    0.0000
     28 C15        6.9583   13.2460    2.2436 C.ar      1 RES1    0.0000
     29 C16        5.7308   13.6169    1.6930 C.ar      1 RES1    0.0000
     30 H9         5.7012   14.3078    1.0416 H         1 RES1    0.0000
     31 C17        4.5520   12.9953    2.0808 C.ar      1 RES1    0.0000
     32 H10        3.7263   13.2554    1.6894 H         1 RES1    0.0000
     33 C18        4.5797   11.9912    3.0407 C.ar      1 RES1    0.0000
     34 H11        3.7742   11.5805    3.3319 H         1 RES1    0.0000
     35 C19        5.8018   11.5979    3.5687 C.ar      1 RES1    0.0000
     36 C20        6.9988   12.1799    3.1430 C.ar      1 RES1    0.0000
     37 C21        9.1826   11.7044    2.5395 C.ar      1 RES1    0.0000
     38 C22       10.0594   10.6094    2.5059 C.ar      1 RES1    0.0000
     39 H12        9.9990    9.9207    3.1579 H         1 RES1    0.0000
     40 C23       11.0006   10.5510    1.5197 C.ar      1 RES1    0.0000
     41 H13       11.6214    9.8308    1.5069 H         1 RES1    0.0000
     42 C24       11.0662   11.5515    0.5108 C.ar      1 RES1    0.0000
     43 C25       12.0090   11.4700   -0.5458 C.ar      1 RES1    0.0000
     44 H14       12.6312   10.7528   -0.5656 H         1 RES1    0.0000
     45 C26       12.0314   12.4090   -1.5305 C.ar      1 RES1    0.0000
     46 H15       12.6853   12.3570   -2.2177 H         1 RES1    0.0000
     47 C27       11.0965   13.4526   -1.5377 C.ar      1 RES1    0.0000
     48 H16       11.1041   14.0853   -2.2454 H         1 RES1    0.0000
     49 C28       10.1716   13.5696   -0.5340 C.ar      1 RES1    0.0000
     50 H17        9.5337   14.2735   -0.5614 H         1 RES1    0.0000
     51 C29       10.1572   12.6500    0.5460 C.ar      1 RES1    0.0000
     52 C30        9.2439   12.7557    1.6475 C.ar      1 RES1    0.0000
@<TRIPOS>BOND
     1    1    3 1
     2    2    4 2
     3    3    8 ar
     4    5    6 1
     5    7   36 1
     6    8    5 ar
     7    9    8 1
     8   10    3 ar
     9   11   10 ar
    10   12   11 1
    11   13    2 2
    12   14    5 ar
    13   15   14 1
    14   16   10 1
    15   17   16 1
    16   18   17 ar
    17   19   18 1
    18   20   18 ar
    19   21   20 1
    20   22   20 ar
    21   23   22 1
    22   24   22 ar
    23   25   24 1
    24   26    1 1
    25   27   16 2
    26   28   27 1
    27   29   28 ar
    28   30   29 1
    29   31   29 ar
    30   32   31 1
    31   33   31 ar
    32   34   33 1
    33   35    2 1
    34   36   28 ar
    35   37    7 1
    36   38   37 ar
    37   39   38 1
    38   40   38 ar
    39   41   40 1
    40   42   40 ar
    41   43   42 ar
    42   44   43 1
    43   45   43 ar
    44   46   45 1
    45   47   45 ar
    46   48   47 1
    47   49   47 ar
    48   50   49 1
    49   51   42 ar
    50   52   27 1
    51   11   14 ar
    52   17   26 ar
    53   24   26 ar
    54   33   35 ar
    55   35   36 ar
    56   37   52 ar
    57   49   51 ar
    58   51   52 ar
@<TRIPOS>SUBSTRUCTURE
     1 RES1 1

@<TRIPOS>CRYSIN
   9.4540   21.3900   10.7090  90.0000  94.7500  90.0000  14 1

