# MOL2 file generated by ConQuest
# Please check atom types

@<TRIPOS>MOLECULE
RETSEP
   110   114     2
SMALL
NO_CHARGES
****
Generated from CSD

@<TRIPOS>ATOM
      1 O1         3.2730    5.7889   -0.0906 O.2       1 RES1    0.0000
      2 O2         1.6913    4.1410    3.9305 O.2       1 RES1    0.0000
      3 O3        -2.0799    0.1459   -0.5191 O.2       1 RES1    0.0000
      4 O4        -1.0916    1.7482    3.7096 O.2       1 RES1    0.0000
      5 O5         8.7475    5.7287    8.1475 O.2       2 RES2    0.0000
      6 O6         7.2969    7.2020    4.0052 O.2       2 RES2    0.0000
      7 O7         2.8768   10.9395    8.0128 O.2       2 RES2    0.0000
      8 O8         4.8880    9.8850    3.9719 O.2       2 RES2    0.0000
      9 N1        -0.0391    3.6588   -1.0649 N.ar      1 RES1    0.0000
     10 N2         3.1239    5.5515    1.1458 N.3       1 RES1    0.0000
     11 N3         2.3696    4.7811    3.0612 N.pl3     1 RES1    0.0000
     12 N4        -2.1199    0.3696    0.7357 N.3       1 RES1    0.0000
     13 N5        -1.6308    1.1087    2.7443 N.pl3     1 RES1    0.0000
     14 N6         5.1978    7.6916    8.7910 N.ar      2 RES2    0.0000
     15 N7         8.5783    5.8387    6.8906 N.3       2 RES2    0.0000
     16 N8         7.9190    6.5686    4.9297 N.pl3     2 RES2    0.0000
     17 N9         3.2154   10.9407    6.7832 N.3       2 RES2    0.0000
     18 N10        4.1760   10.4455    4.8702 N.pl3     2 RES2    0.0000
     19 C1         0.8814    4.3008   -0.3413 C.ar      1 RES1    0.0000
     20 C2         1.1755    3.9938    0.9924 C.ar      1 RES1    0.0000
     21 C3         0.4595    2.9588    1.6042 C.ar      1 RES1    0.0000
     22 C4        -0.5003    2.2760    0.8503 C.ar      1 RES1    0.0000
     23 C5        -0.7031    2.6643   -0.4803 C.ar      1 RES1    0.0000
     24 C6         2.1929    4.7542    1.7191 C.2       1 RES1    0.0000
     25 C7         4.1642    5.9863    2.1452 C.3       1 RES1    0.0000
     26 C8         3.3817    5.8210    3.4696 C.3       1 RES1    0.0000
     27 C9         4.6175    7.4065    1.8322 C.3       1 RES1    0.0000
     28 C10        5.3236    5.0074    1.9999 C.3       1 RES1    0.0000
     29 C11        2.5838    7.0654    3.8796 C.3       1 RES1    0.0000
     30 C12        4.2132    5.3312    4.6447 C.3       1 RES1    0.0000
     31 C13       -1.3578    1.2511    1.4360 C.2       1 RES1    0.0000
     32 C14       -3.2189   -0.1925    1.5955 C.3       1 RES1    0.0000
     33 C15       -2.6011   -0.0143    3.0070 C.3       1 RES1    0.0000
     34 C16       -4.4298    0.7054    1.3359 C.3       1 RES1    0.0000
     35 C17       -3.5192   -1.6274    1.1949 C.3       1 RES1    0.0000
     36 C18       -3.5880    0.4052    4.0863 C.3       1 RES1    0.0000
     37 C19       -1.7822   -1.2069    3.4755 C.3       1 RES1    0.0000
     38 C20        6.2437    7.1272    8.1938 C.ar      2 RES2    0.0000
     39 C21        6.6514    7.4501    6.8986 C.ar      2 RES2    0.0000
     40 C22        5.9583    8.4485    6.2127 C.ar      2 RES2    0.0000
     41 C23        4.8630    9.0553    6.8387 C.ar      2 RES2    0.0000
     42 C24        4.5106    8.6224    8.1277 C.ar      2 RES2    0.0000
     43 C25        7.7124    6.6747    6.2495 C.2       2 RES2    0.0000
     44 C26        9.2083    4.8788    5.9182 C.3       2 RES2    0.0000
     45 C27        9.0892    5.6734    4.5974 C.3       2 RES2    0.0000
     46 C28        8.3266    3.6354    5.9474 C.3       2 RES2    0.0000
     47 C29       10.6127    4.5567    6.3548 C.3       2 RES2    0.0000
     48 C30        8.7718    4.8336    3.3781 C.3       2 RES2    0.0000
     49 C31       10.2726    6.5752    4.3042 C.3       2 RES2    0.0000
     50 C32        4.0998   10.1152    6.1761 C.2       2 RES2    0.0000
     51 C33        2.8113   12.0766    5.8788 C.3       2 RES2    0.0000
     52 C34        3.1313   11.4673    4.4897 C.3       2 RES2    0.0000
     53 C35        1.3569   12.4304    6.0987 C.3       2 RES2    0.0000
     54 C36        3.7142   13.2422    6.2668 C.3       2 RES2    0.0000
     55 C37        1.9669   10.6893    3.8785 C.3       2 RES2    0.0000
     56 C38        3.7051   12.4414    3.4755 C.3       2 RES2    0.0000
     57 H1         1.3633    5.0079   -0.7549 H         1 RES1    0.0000
     58 H2         0.6228    2.7240    2.5105 H         1 RES1    0.0000
     59 H3        -1.3494    2.1938   -0.9930 H         1 RES1    0.0000
     60 H4         3.9044    7.8840    1.4241 H         1 RES1    0.0000
     61 H5         5.3597    7.3791    1.2389 H         1 RES1    0.0000
     62 H6         4.8714    7.8432    2.6366 H         1 RES1    0.0000
     63 H7         5.3629    4.6936    1.1035 H         1 RES1    0.0000
     64 H8         5.1921    4.2728    2.5868 H         1 RES1    0.0000
     65 H9         6.1381    5.4443    2.2179 H         1 RES1    0.0000
     66 H10        2.4514    7.6219    3.1206 H         1 RES1    0.0000
     67 H11        1.7409    6.8000    4.2288 H         1 RES1    0.0000
     68 H12        3.0655    7.5454    4.5432 H         1 RES1    0.0000
     69 H13        3.7913    5.5829    5.4584 H         1 RES1    0.0000
     70 H14        5.0791    5.7195    4.6039 H         1 RES1    0.0000
     71 H15        4.2879    4.3852    4.6070 H         1 RES1    0.0000
     72 H16       -5.2273    0.1978    1.4381 H         1 RES1    0.0000
     73 H17       -4.4299    1.4235    1.9564 H         1 RES1    0.0000
     74 H18       -4.3857    1.0506    0.4514 H         1 RES1    0.0000
     75 H19       -3.8253   -2.1108    1.9533 H         1 RES1    0.0000
     76 H20       -4.1903   -1.6347    0.5230 H         1 RES1    0.0000
     77 H21       -2.7291   -2.0353    0.8576 H         1 RES1    0.0000
     78 H22       -4.4168   -0.0375    3.9471 H         1 RES1    0.0000
     79 H23       -3.7192    1.3456    4.0467 H         1 RES1    0.0000
     80 H24       -3.2422    0.1693    4.9386 H         1 RES1    0.0000
     81 H25       -1.0008   -0.8992    3.9207 H         1 RES1    0.0000
     82 H26       -2.3016   -1.7327    4.0732 H         1 RES1    0.0000
     83 H27       -1.5314   -1.7335    2.7253 H         1 RES1    0.0000
     84 H28        6.7383    6.4728    8.6724 H         2 RES2    0.0000
     85 H29        6.2243    8.7120    5.3401 H         2 RES2    0.0000
     86 H30        3.7494    9.0094    8.5448 H         2 RES2    0.0000
     87 H31        7.4593    3.8552    5.6281 H         2 RES2    0.0000
     88 H32        8.2633    3.3113    6.8390 H         2 RES2    0.0000
     89 H33        8.7080    2.9645    5.3930 H         2 RES2    0.0000
     90 H34       10.6174    4.3568    7.2825 H         2 RES2    0.0000
     91 H35       10.9307    3.8072    5.8662 H         2 RES2    0.0000
     92 H36       11.1755    5.3036    6.1899 H         2 RES2    0.0000
     93 H37        8.7025    5.3959    2.6148 H         2 RES2    0.0000
     94 H38        7.9494    4.3787    3.5113 H         2 RES2    0.0000
     95 H39        9.4657    4.1994    3.2420 H         2 RES2    0.0000
     96 H40       10.9945    6.0537    3.9705 H         2 RES2    0.0000
     97 H41       10.0233    7.2227    3.6561 H         2 RES2    0.0000
     98 H42       10.5419    7.0142    5.1020 H         2 RES2    0.0000
     99 H43        1.1000   13.1096    5.4849 H         2 RES2    0.0000
    100 H44        0.8193   11.6602    5.9611 H         2 RES2    0.0000
    101 H45        1.2392   12.7450    6.9868 H         2 RES2    0.0000
    102 H46        3.2994   13.7476    6.9557 H         2 RES2    0.0000
    103 H47        3.8580   13.7976    5.5098 H         2 RES2    0.0000
    104 H48        4.5475   12.9081    6.5775 H         2 RES2    0.0000
    105 H49        1.6564   10.0436    4.5012 H         2 RES2    0.0000
    106 H50        1.2620   11.2893    3.6670 H         2 RES2    0.0000
    107 H51        2.2590   10.2517    3.0880 H         2 RES2    0.0000
    108 H52        3.0997   13.1631    3.3494 H         2 RES2    0.0000
    109 H53        4.5361   12.7758    3.7915 H         2 RES2    0.0000
    110 H54        3.8383   11.9924    2.6490 H         2 RES2    0.0000
@<TRIPOS>BOND
     1    1   10 1
     2    2   11 1
     3    3   12 1
     4    4   13 1
     5    5   15 1
     6    6   16 1
     7    7   17 1
     8    8   18 1
     9    9   19 ar
    10   10   24 1
    11   11   24 2
    12   12   31 1
    13   13   31 2
    14   14   38 ar
    15   15   43 1
    16   16   43 2
    17   17   50 1
    18   18   50 2
    19   19   20 ar
    20   20   21 ar
    21   21   22 ar
    22   22   23 ar
    23   23    9 ar
    24   24   20 1
    25   25   10 1
    26   26   11 1
    27   27   25 1
    28   28   25 1
    29   29   26 1
    30   30   26 1
    31   31   22 1
    32   32   12 1
    33   33   13 1
    34   34   32 1
    35   35   32 1
    36   36   33 1
    37   37   33 1
    38   38   39 ar
    39   39   40 ar
    40   40   41 ar
    41   41   42 ar
    42   42   14 ar
    43   43   39 1
    44   44   15 1
    45   45   16 1
    46   46   44 1
    47   47   44 1
    48   48   45 1
    49   49   45 1
    50   50   41 1
    51   51   17 1
    52   52   18 1
    53   53   51 1
    54   54   51 1
    55   55   52 1
    56   56   52 1
    57   57   19 1
    58   58   21 1
    59   59   23 1
    60   60   27 1
    61   61   27 1
    62   62   27 1
    63   63   28 1
    64   64   28 1
    65   65   28 1
    66   66   29 1
    67   67   29 1
    68   68   29 1
    69   69   30 1
    70   70   30 1
    71   71   30 1
    72   72   34 1
    73   73   34 1
    74   74   34 1
    75   75   35 1
    76   76   35 1
    77   77   35 1
    78   78   36 1
    79   79   36 1
    80   80   36 1
    81   81   37 1
    82   82   37 1
    83   83   37 1
    84   84   38 1
    85   85   40 1
    86   86   42 1
    87   87   46 1
    88   88   46 1
    89   89   46 1
    90   90   47 1
    91   91   47 1
    92   92   47 1
    93   93   48 1
    94   94   48 1
    95   95   48 1
    96   96   49 1
    97   97   49 1
    98   98   49 1
    99   99   53 1
   100  100   53 1
   101  101   53 1
   102  102   54 1
   103  103   54 1
   104  104   54 1
   105  105   55 1
   106  106   55 1
   107  107   55 1
   108  108   56 1
   109  109   56 1
   110  110   56 1
   111   25   26 1
   112   32   33 1
   113   44   45 1
   114   51   52 1
@<TRIPOS>SUBSTRUCTURE
     1 RES1 1
     2 RES2 5

@<TRIPOS>CRYSIN
  11.2750   11.2420   17.6880 108.5660 110.8690  89.3440   2 1

