# MOL2 file generated by ConQuest
# Please check atom types

@<TRIPOS>MOLECULE
RETXUM
    48    52     1
SMALL
NO_CHARGES
****
Generated from CSD

@<TRIPOS>ATOM
      1 C1        10.3630    1.5487   13.1303 C.3       1 RES1    0.0000
      2 H1        10.2045    0.7159   13.6219 H         1 RES1    0.0000
      3 N1         9.1074    2.2616   13.1381 N.3       1 RES1    0.0000
      4 O1        11.7372    2.9699    8.6888 O.3       1 RES1    0.0000
      5 C2        10.7138    1.1380   11.7106 C.3       1 RES1    0.0000
      6 H2        11.5829    0.7071   11.7098 H         1 RES1    0.0000
      7 H3        10.0616    0.4923   11.3960 H         1 RES1    0.0000
      8 N2        11.4832    2.2300   13.8275 N.am      1 RES1    0.0000
      9 O2        12.7475    3.9809   14.4298 O.2       1 RES1    0.0000
     10 C3        10.7433    2.3202   10.7583 C.3       1 RES1    0.0000
     11 O3        11.2856    2.0818   15.2203 O.3       1 RES1    0.0000
     12 C4        11.9494    3.1980   10.9641 C.ar      1 RES1    0.0000
     13 C5        12.5740    3.6748   12.1060 C.ar      1 RES1    0.0000
     14 C6        12.2382    3.3370   13.5308 C.2       1 RES1    0.0000
     15 C7        10.9816    1.9014    9.2987 C.3       1 RES1    0.0000
     16 H4        11.4795    1.0696    9.2615 H         1 RES1    0.0000
     17 H5        10.1365    1.7779    8.8388 H         1 RES1    0.0000
     18 C8        12.4291    3.5702    9.7138 C.ar      1 RES1    0.0000
     19 C9        13.4740    4.4393    9.5344 C.ar      1 RES1    0.0000
     20 H6        13.7673    4.6816    8.6858 H         1 RES1    0.0000
     21 C10       14.0685    4.9368   10.6759 C.ar      1 RES1    0.0000
     22 H7        14.7742    5.5370   10.5953 H         1 RES1    0.0000
     23 C11       13.6425    4.5652   11.9320 C.ar      1 RES1    0.0000
     24 H8        14.0723    4.9129   12.6799 H         1 RES1    0.0000
     25 C12        9.1380    3.4708   12.3276 C.3       1 RES1    0.0000
     26 H9         9.8185    4.0734   12.6665 H         1 RES1    0.0000
     27 H10        8.2809    3.9217   12.3820 H         1 RES1    0.0000
     28 C13        9.4386    3.1233   10.8884 C.3       1 RES1    0.0000
     29 H11        9.5122    3.9402   10.3705 H         1 RES1    0.0000
     30 H12        8.7049    2.6037   10.5245 H         1 RES1    0.0000
     31 C14       12.3076    1.2615   15.7819 C.3       1 RES1    0.0000
     32 H13       12.3399    0.4246   15.3132 H         1 RES1    0.0000
     33 H14       12.1164    1.1022   16.7091 H         1 RES1    0.0000
     34 H15       13.1547    1.7062   15.7019 H         1 RES1    0.0000
     35 C15        8.5372    2.4868   14.4649 C.3       1 RES1    0.0000
     36 H16        8.9282    3.2867   14.8494 H         1 RES1    0.0000
     37 H17        8.7617    1.7386   15.0402 H         1 RES1    0.0000
     38 C16        7.0397    2.6413   14.4135 C.ar      1 RES1    0.0000
     39 C17        6.2689    1.6969   13.7805 C.ar      1 RES1    0.0000
     40 H18        6.6826    0.9855   13.3469 H         1 RES1    0.0000
     41 C18        4.8992    1.7837   13.7761 C.ar      1 RES1    0.0000
     42 H19        4.3952    1.1333   13.3432 H         1 RES1    0.0000
     43 C19        4.2775    2.8137   14.4014 C.ar      1 RES1    0.0000
     44 H20        3.3496    2.8755   14.3908 H         1 RES1    0.0000
     45 C20        5.0159    3.7540   15.0417 C.ar      1 RES1    0.0000
     46 H21        4.5927    4.4567   15.4800 H         1 RES1    0.0000
     47 C21        6.4081    3.6702   15.0448 C.ar      1 RES1    0.0000
     48 H22        6.9089    4.3209   15.4809 H         1 RES1    0.0000
@<TRIPOS>BOND
     1    1    2 1
     2    3    1 1
     3    4   15 1
     4    5    1 1
     5    6    5 1
     6    7    5 1
     7    8    1 1
     8    9   14 2
     9   10    5 1
    10   11    8 1
    11   12   10 1
    12   13   12 ar
    13   14    8 1
    14   15   10 1
    15   16   15 1
    16   17   15 1
    17   18    4 1
    18   19   18 ar
    19   20   19 1
    20   21   19 ar
    21   22   21 1
    22   23   13 ar
    23   24   23 1
    24   25    3 1
    25   26   25 1
    26   27   25 1
    27   28   10 1
    28   29   28 1
    29   30   28 1
    30   31   11 1
    31   32   31 1
    32   33   31 1
    33   34   31 1
    34   35    3 1
    35   36   35 1
    36   37   35 1
    37   38   35 1
    38   39   38 ar
    39   40   39 1
    40   41   39 ar
    41   42   41 1
    42   43   41 ar
    43   44   43 1
    44   45   43 ar
    45   46   45 1
    46   47   38 ar
    47   48   47 1
    48   12   18 ar
    49   13   14 1
    50   21   23 ar
    51   25   28 1
    52   45   47 ar
@<TRIPOS>SUBSTRUCTURE
     1 RES1 1

@<TRIPOS>CRYSIN
  19.3193    5.7445   17.4580  90.0000 109.5940  90.0000  14 1

