# MOL2 file generated by ConQuest
# Please check atom types

@<TRIPOS>MOLECULE
REVDII
    90    96     2
SMALL
NO_CHARGES
****
Generated from CSD

@<TRIPOS>ATOM
      1 O1       -11.9471   -2.3287  -17.1737 O.2       1 RES1    0.0000
      2 O2       -13.3941   -4.1419  -11.9265 O.2       1 RES1    0.0000
      3 O3       -11.3459   -3.9029  -12.5267 O.2       1 RES1    0.0000
      4 N1       -13.3711   -2.0963  -15.4757 N.am      1 RES1    0.0000
      5 N2       -12.7064    1.1523  -15.3089 N.1       1 RES1    0.0000
      6 N3        -9.1032   -1.2259  -16.0476 N.1       1 RES1    0.0000
      7 N4       -12.5014   -3.5305  -12.4807 N.pl3     1 RES1    0.0000
      8 C1       -12.2227   -2.1718  -14.5621 C.3       1 RES1    0.0000
      9 H1       -11.7068   -3.0130  -14.7218 H         1 RES1    0.0000
     10 C2       -12.8324   -2.1770  -13.1508 C.3       1 RES1    0.0000
     11 C3       -12.1177   -1.0449  -12.3410 C.3       1 RES1    0.0000
     12 H2       -12.6796   -0.2220  -12.4231 H         1 RES1    0.0000
     13 C4       -10.8282   -0.7930  -13.1189 C.3       1 RES1    0.0000
     14 H3       -10.1384   -1.4661  -12.8910 H         1 RES1    0.0000
     15 H4       -10.4706    0.1107  -12.9316 H         1 RES1    0.0000
     16 C5       -11.2622   -0.9219  -14.6013 C.3       1 RES1    0.0000
     17 C6       -12.0344    0.2689  -15.0249 C.1       1 RES1    0.0000
     18 C7       -10.0799   -1.1015  -15.4684 C.1       1 RES1    0.0000
     19 C8       -11.9230   -1.3092  -10.8725 C.2       1 RES1    0.0000
     20 H5       -11.3559   -2.0267  -10.6136 H         1 RES1    0.0000
     21 C9       -12.4917   -0.6035   -9.9389 C.2       1 RES1    0.0000
     22 H6       -13.0623    0.1191  -10.1728 H         1 RES1    0.0000
     23 H7       -12.3359   -0.8112   -9.0264 H         1 RES1    0.0000
     24 C10      -14.2993   -2.0436  -13.3683 C.ar      1 RES1    0.0000
     25 C11      -15.2984   -1.9323  -12.4154 C.ar      1 RES1    0.0000
     26 H8       -15.0886   -1.8789  -11.4913 H         1 RES1    0.0000
     27 C12      -16.6173   -1.9010  -12.8504 C.ar      1 RES1    0.0000
     28 H9       -17.3238   -1.8379  -12.2182 H         1 RES1    0.0000
     29 C13      -16.9061   -1.9609  -14.1998 C.ar      1 RES1    0.0000
     30 H10      -17.8130   -1.9531  -14.4782 H         1 RES1    0.0000
     31 C14      -15.9033   -2.0338  -15.1606 C.ar      1 RES1    0.0000
     32 H11      -16.1145   -2.0651  -16.0866 H         1 RES1    0.0000
     33 C15      -14.5840   -2.0579  -14.7303 C.ar      1 RES1    0.0000
     34 C16      -13.1085   -2.1836  -16.8182 C.2       1 RES1    0.0000
     35 C17      -14.2086   -1.9961  -17.8024 C.ar      1 RES1    0.0000
     36 C18      -14.8340   -0.7624  -17.9252 C.ar      1 RES1    0.0000
     37 H12      -14.6381   -0.0645  -17.3104 H         1 RES1    0.0000
     38 C19      -15.7438   -0.5547  -18.9498 C.ar      1 RES1    0.0000
     39 H13      -16.1698    0.2891  -19.0426 H         1 RES1    0.0000
     40 C20      -16.0281   -1.5722  -19.8333 C.ar      1 RES1    0.0000
     41 H14      -16.6472   -1.4264  -20.5389 H         1 RES1    0.0000
     42 C21      -15.4198   -2.8007  -19.6999 C.ar      1 RES1    0.0000
     43 H15      -15.6394   -3.5051  -20.2973 H         1 RES1    0.0000
     44 C22      -14.4848   -3.0162  -18.6946 C.ar      1 RES1    0.0000
     45 H16      -14.0425   -3.8534  -18.6192 H         1 RES1    0.0000
     46 O4        -7.4087   -5.9302  -12.6335 O.2       2 RES2    0.0000
     47 O5        -6.0391   -7.3703  -17.0871 O.2       2 RES2    0.0000
     48 O6        -3.9006   -7.5656  -16.8955 O.2       2 RES2    0.0000
     49 N5        -4.9464   -6.9836  -16.6925 N.pl3     2 RES2    0.0000
     50 N6        -5.4264   -5.5865  -13.6115 N.am      2 RES2    0.0000
     51 N7        -5.8142   -2.2448  -14.0915 N.1       2 RES2    0.0000
     52 N8        -9.4519   -4.4862  -14.8008 N.1       2 RES2    0.0000
     53 C23       -6.0758   -5.5976  -14.9246 C.3       2 RES2    0.0000
     54 H17       -6.6515   -6.4100  -15.0195 H         2 RES2    0.0000
     55 C24       -4.9154   -5.6399  -15.9446 C.3       2 RES2    0.0000
     56 C25       -5.1822   -4.5077  -16.9924 C.3       2 RES2    0.0000
     57 H18       -4.6812   -3.6979  -16.6860 H         2 RES2    0.0000
     58 C26       -6.6771   -4.2076  -16.8215 C.3       2 RES2    0.0000
     59 H19       -7.2309   -4.8717  -17.3027 H         2 RES2    0.0000
     60 H20       -6.8986   -3.3007  -17.1519 H         2 RES2    0.0000
     61 C27       -6.8917   -4.3098  -15.2830 C.3       2 RES2    0.0000
     62 C28       -6.3164   -3.1308  -14.6054 C.1       2 RES2    0.0000
     63 C29       -8.3216   -4.4146  -14.9599 C.1       2 RES2    0.0000
     64 C30       -4.7694   -4.7753  -18.4106 C.2       2 RES2    0.0000
     65 H21       -5.2278   -5.4498  -18.8976 H         2 RES2    0.0000
     66 C31       -3.7997   -4.1178  -19.0117 C.2       2 RES2    0.0000
     67 H22       -3.3263   -3.4387  -18.5458 H         2 RES2    0.0000
     68 H23       -3.5737   -4.3222  -19.9106 H         2 RES2    0.0000
     69 C32       -3.6775   -5.4953  -15.1270 C.ar      2 RES2    0.0000
     70 C33       -2.3608   -5.3671  -15.5382 C.ar      2 RES2    0.0000
     71 H24       -2.1403   -5.3808  -16.4617 H         2 RES2    0.0000
     72 C34       -1.3703   -5.2193  -14.5768 C.ar      2 RES2    0.0000
     73 H25       -0.4604   -5.1503  -14.8378 H         2 RES2    0.0000
     74 C35       -1.7147   -5.1724  -13.2351 C.ar      2 RES2    0.0000
     75 H26       -1.0272   -5.0702  -12.5875 H         2 RES2    0.0000
     76 C36       -3.0340   -5.2701  -12.8090 C.ar      2 RES2    0.0000
     77 H27       -3.2588   -5.2076  -11.8876 H         2 RES2    0.0000
     78 C37       -4.0068   -5.4602  -13.7693 C.ar      2 RES2    0.0000
     79 C38       -6.1960   -5.8808  -12.5221 C.2       2 RES2    0.0000
     80 C39       -5.5219   -6.1451  -11.2040 C.ar      2 RES2    0.0000
     81 C40       -5.6054   -5.1933  -10.1927 C.ar      2 RES2    0.0000
     82 H28       -6.0126   -4.3502  -10.3545 H         2 RES2    0.0000
     83 C41       -5.0821   -5.4973   -8.9375 C.ar      2 RES2    0.0000
     84 H29       -5.1257   -4.8528   -8.2415 H         2 RES2    0.0000
     85 C42       -4.5059   -6.7186   -8.6997 C.ar      2 RES2    0.0000
     86 H30       -4.1651   -6.9191   -7.8355 H         2 RES2    0.0000
     87 C43       -4.4179   -7.6626   -9.7108 C.ar      2 RES2    0.0000
     88 H31       -4.0115   -8.5044   -9.5387 H         2 RES2    0.0000
     89 C44       -4.9228   -7.3801  -10.9732 C.ar      2 RES2    0.0000
     90 H32       -4.8612   -8.0220  -11.6711 H         2 RES2    0.0000
@<TRIPOS>BOND
     1    1   34 2
     2    2    7 2
     3    3    7 2
     4    4    8 1
     5    5   17 3
     6    6   18 3
     7    7   10 1
     8    8    9 1
     9   10    8 1
    10   11   10 1
    11   12   11 1
    12   13   11 1
    13   14   13 1
    14   15   13 1
    15   16    8 1
    16   17   16 1
    17   18   16 1
    18   19   11 1
    19   20   19 1
    20   21   19 2
    21   22   21 1
    22   23   21 1
    23   24   10 1
    24   25   24 ar
    25   26   25 1
    26   27   25 ar
    27   28   27 1
    28   29   27 ar
    29   30   29 1
    30   31   29 ar
    31   32   31 1
    32   33    4 1
    33   34    4 1
    34   35   34 1
    35   36   35 ar
    36   37   36 1
    37   38   36 ar
    38   39   38 1
    39   40   38 ar
    40   41   40 1
    41   42   40 ar
    42   43   42 1
    43   44   35 ar
    44   45   44 1
    45   46   79 2
    46   47   49 2
    47   48   49 2
    48   49   55 1
    49   50   53 1
    50   51   62 3
    51   52   63 3
    52   53   54 1
    53   55   53 1
    54   56   55 1
    55   57   56 1
    56   58   56 1
    57   59   58 1
    58   60   58 1
    59   61   53 1
    60   62   61 1
    61   63   61 1
    62   64   56 1
    63   65   64 1
    64   66   64 2
    65   67   66 1
    66   68   66 1
    67   69   55 1
    68   70   69 ar
    69   71   70 1
    70   72   70 ar
    71   73   72 1
    72   74   72 ar
    73   75   74 1
    74   76   74 ar
    75   77   76 1
    76   78   50 1
    77   79   50 1
    78   80   79 1
    79   81   80 ar
    80   82   81 1
    81   83   81 ar
    82   84   83 1
    83   85   83 ar
    84   86   85 1
    85   87   85 ar
    86   88   87 1
    87   89   80 ar
    88   90   89 1
    89   13   16 1
    90   24   33 ar
    91   31   33 ar
    92   42   44 ar
    93   58   61 1
    94   69   78 ar
    95   76   78 ar
    96   87   89 ar
@<TRIPOS>SUBSTRUCTURE
     1 RES1 1
     2 RES2 46

@<TRIPOS>CRYSIN
  14.8423    6.5103   19.3939  90.0000  94.5570  90.0000   4 1

