# MOL2 file generated by ConQuest
# Please check atom types

@<TRIPOS>MOLECULE
REVFEE
    60    65     1
SMALL
NO_CHARGES
****
Generated from CSD

@<TRIPOS>ATOM
      1 O1         5.3657    1.7464    7.7456 O.3       1 RES1    0.0000
      2 O2         3.0832   -1.6692    7.9805 O.3       1 RES1    0.0000
      3 O3         2.8904   -1.4683   10.1597 O.2       1 RES1    0.0000
      4 O4        -0.1026    2.2662   12.3769 O.3       1 RES1    0.0000
      5 O5        10.4300    6.2273    7.2112 O.2       1 RES1    0.0000
      6 O6         9.2716    7.6930    8.2561 O.2       1 RES1    0.0000
      7 N1         4.0513    3.3717    8.8584 N.3       1 RES1    0.0000
      8 N2         9.4416    6.5633    7.8422 N.pl3     1 RES1    0.0000
      9 C1         4.6108    0.6374    7.8899 C.2       1 RES1    0.0000
     10 C2         4.3772   -0.1092    6.6733 C.ar      1 RES1    0.0000
     11 C3         4.8241    0.2802    5.4114 C.ar      1 RES1    0.0000
     12 C4         4.4844   -0.4525    4.3034 C.ar      1 RES1    0.0000
     13 C5         3.6880   -1.5823    4.4262 C.ar      1 RES1    0.0000
     14 C6         3.2419   -1.9783    5.6547 C.ar      1 RES1    0.0000
     15 C7         3.5785   -1.2451    6.7735 C.ar      1 RES1    0.0000
     16 C8         3.3355   -0.9838    9.1482 C.2       1 RES1    0.0000
     17 C9         4.0965    0.2325    9.0719 C.2       1 RES1    0.0000
     18 C10        4.2855    1.0404   10.3350 C.3       1 RES1    0.0000
     19 C11        3.0805    1.9138   10.5366 C.ar      1 RES1    0.0000
     20 C12        2.0568    1.6277   11.4418 C.ar      1 RES1    0.0000
     21 C13        0.9561    2.4553   11.5229 C.ar      1 RES1    0.0000
     22 C14        0.8746    3.5667   10.7250 C.ar      1 RES1    0.0000
     23 C15        1.8961    3.8783    9.8519 C.ar      1 RES1    0.0000
     24 C16        3.0086    3.0575    9.7410 C.ar      1 RES1    0.0000
     25 C17        5.3217    2.7017    8.8787 C.3       1 RES1    0.0000
     26 C18        5.5454    1.9125   10.1966 C.3       1 RES1    0.0000
     27 C19        6.7974    1.0351   10.1072 C.3       1 RES1    0.0000
     28 C20        5.6920    2.8257   11.4120 C.3       1 RES1    0.0000
     29 C21        6.4371    3.6978    8.5805 C.ar      1 RES1    0.0000
     30 C22        6.3721    4.9613    9.1506 C.ar      1 RES1    0.0000
     31 C23        7.3580    5.8950    8.9204 C.ar      1 RES1    0.0000
     32 C24        8.4114    5.5565    8.1070 C.ar      1 RES1    0.0000
     33 C25        8.5161    4.3032    7.5404 C.ar      1 RES1    0.0000
     34 C26        7.5206    3.3794    7.7814 C.ar      1 RES1    0.0000
     35 C27        3.7510    4.1866    7.6824 C.3       1 RES1    0.0000
     36 C28       -0.0645    1.1780   13.2488 C.3       1 RES1    0.0000
     37 H1         5.3556    1.0387    5.3220 H         1 RES1    0.0000
     38 H2         4.7876   -0.1898    3.4637 H         1 RES1    0.0000
     39 H3         3.4571   -2.0715    3.6688 H         1 RES1    0.0000
     40 H4         2.7134   -2.7395    5.7370 H         1 RES1    0.0000
     41 H5         4.3855    0.4354   11.0995 H         1 RES1    0.0000
     42 H6         2.1171    0.8796   11.9905 H         1 RES1    0.0000
     43 H7         0.1257    4.1157   10.7727 H         1 RES1    0.0000
     44 H8         1.8377    4.6469    9.3307 H         1 RES1    0.0000
     45 H9         6.7257    0.4507    9.3486 H         1 RES1    0.0000
     46 H10        6.8785    0.5108   10.9075 H         1 RES1    0.0000
     47 H11        7.5722    1.5931   10.0094 H         1 RES1    0.0000
     48 H12        5.8273    2.2927   12.1980 H         1 RES1    0.0000
     49 H13        4.8942    3.3507   11.5146 H         1 RES1    0.0000
     50 H14        6.4441    3.4072   11.2856 H         1 RES1    0.0000
     51 H15        5.6519    5.1805    9.6969 H         1 RES1    0.0000
     52 H16        7.3108    6.7383    9.3080 H         1 RES1    0.0000
     53 H17        9.2452    4.0855    7.0061 H         1 RES1    0.0000
     54 H18        7.5798    2.5324    7.4033 H         1 RES1    0.0000
     55 H19        2.8802    4.5781    7.7778 H         1 RES1    0.0000
     56 H20        3.7695    3.6352    6.8964 H         1 RES1    0.0000
     57 H21        4.4081    4.8830    7.6001 H         1 RES1    0.0000
     58 H22       -0.8644    1.1656   13.7808 H         1 RES1    0.0000
     59 H23        0.7007    1.2554   13.8237 H         1 RES1    0.0000
     60 H24       -0.0043    0.3642   12.7431 H         1 RES1    0.0000
@<TRIPOS>BOND
     1    1    9 1
     2    2   15 1
     3    3   16 2
     4    4   21 1
     5    5    8 2
     6    6    8 2
     7    7   24 1
     8    8   32 1
     9    9   10 1
    10   10   11 ar
    11   11   12 ar
    12   12   13 ar
    13   13   14 ar
    14   14   15 ar
    15   15   10 ar
    16   16    2 1
    17   17    9 2
    18   18   17 1
    19   19   18 1
    20   20   19 ar
    21   21   20 ar
    22   22   21 ar
    23   23   22 ar
    24   24   19 ar
    25   25    1 1
    26   26   18 1
    27   27   26 1
    28   28   26 1
    29   29   25 1
    30   30   29 ar
    31   31   30 ar
    32   32   31 ar
    33   33   32 ar
    34   34   29 ar
    35   35    7 1
    36   36    4 1
    37   37   11 1
    38   38   12 1
    39   39   13 1
    40   40   14 1
    41   41   18 1
    42   42   20 1
    43   43   22 1
    44   44   23 1
    45   45   27 1
    46   46   27 1
    47   47   27 1
    48   48   28 1
    49   49   28 1
    50   50   28 1
    51   51   30 1
    52   52   31 1
    53   53   33 1
    54   54   34 1
    55   55   35 1
    56   56   35 1
    57   57   35 1
    58   58   36 1
    59   59   36 1
    60   60   36 1
    61    7   25 1
    62   16   17 1
    63   23   24 ar
    64   25   26 1
    65   33   34 ar
@<TRIPOS>SUBSTRUCTURE
     1 RES1 1

@<TRIPOS>CRYSIN
   9.2966   10.9142   12.7458  87.1530  69.5840  73.5400   2 1

