# MOL2 file generated by ConQuest
# Please check atom types

@<TRIPOS>MOLECULE
REVPUG
    89    93     1
SMALL
NO_CHARGES
****
Generated from CSD

@<TRIPOS>ATOM
      1 O1         5.8541    2.6304   20.7378 O.3       1 RES1    0.0000
      2 O2         2.6307    6.1105   20.0513 O.3       1 RES1    0.0000
      3 O3         4.6059    4.4753   18.9808 O.3       1 RES1    0.0000
      4 O4         4.7515    3.3181   23.2079 O.3       1 RES1    0.0000
      5 O5         2.9084    5.4639   22.7654 O.3       1 RES1    0.0000
      6 H1         2.7927    6.2381   22.5214 H         1 RES1    0.0000
      7 O6         5.8921    7.1972   27.8859 O.2       1 RES1    0.0000
      8 O7         8.1122    3.2069   29.3970 O.2       1 RES1    0.0000
      9 O8         5.6570    1.3654   23.9101 O.2       1 RES1    0.0000
     10 O9         5.1352    7.2976   25.8611 O.2       1 RES1    0.0000
     11 O10        8.2317    1.4664   28.0915 O.2       1 RES1    0.0000
     12 C1         4.2215    4.3562   20.3509 C.3       1 RES1    0.0000
     13 H2         4.7627    4.9657   20.8942 H         1 RES1    0.0000
     14 N1         5.6458    6.6953   26.7989 N.pl3     1 RES1    0.0000
     15 C2         2.1820    7.5917   18.1880 C.ar      1 RES1    0.0000
     16 C3         1.9670    1.4904   24.2560 C.2       1 RES1    0.0000
     17 H3         1.4937    0.8718   23.7480 H         1 RES1    0.0000
     18 C4         1.4751    7.9235   17.0443 C.ar      1 RES1    0.0000
     19 H4         0.7973    7.3632   16.7412 H         1 RES1    0.0000
     20 C5         2.4799    3.1271   22.3656 C.3       1 RES1    0.0000
     21 H5         1.9349    2.5476   21.7929 H         1 RES1    0.0000
     22 N2         7.8494    2.5980   28.3576 N.pl3     1 RES1    0.0000
     23 C6         5.8862   -0.2403   21.0346 C.ar      1 RES1    0.0000
     24 H6         6.2833    0.2209   21.7393 H         1 RES1    0.0000
     25 C7         5.5823    4.6551   25.4313 C.ar      1 RES1    0.0000
     26 H7         5.0986    5.1218   24.7886 H         1 RES1    0.0000
     27 C8         5.9877    5.2725   26.5952 C.ar      1 RES1    0.0000
     28 C9         7.0350    3.3059   27.3448 C.ar      1 RES1    0.0000
     29 C10        3.9258    2.6504   22.2000 C.3       1 RES1    0.0000
     30 H8         3.9572    1.6832   22.3574 H         1 RES1    0.0000
     31 C11        2.7665    4.7463   20.4619 C.3       1 RES1    0.0000
     32 H9         2.2432    4.1823   19.8536 H         1 RES1    0.0000
     33 C12        1.8356    6.2973   18.8862 C.3       1 RES1    0.0000
     34 H10        0.8980    6.3058   19.1346 H         1 RES1    0.0000
     35 H11        1.9775    5.5548   18.2769 H         1 RES1    0.0000
     36 C13        2.2171    4.5793   21.8847 C.3       1 RES1    0.0000
     37 C14        2.7897    9.9065   16.7744 C.ar      1 RES1    0.0000
     38 H12        3.0009   10.6751   16.2966 H         1 RES1    0.0000
     39 C15        4.4611    2.9324   20.8072 C.3       1 RES1    0.0000
     40 H13        3.9953    2.3371   20.1847 H         1 RES1    0.0000
     41 C16        6.8126    4.4491   16.6406 C.ar      1 RES1    0.0000
     42 H14        7.2649    3.8141   17.1480 H         1 RES1    0.0000
     43 C17        6.2206    1.7973   19.6212 C.3       1 RES1    0.0000
     44 H15        7.1858    1.8010   19.5225 H         1 RES1    0.0000
     45 H16        5.8361    2.1633   18.8099 H         1 RES1    0.0000
     46 C18        3.1853    8.4299   18.6188 C.ar      1 RES1    0.0000
     47 H17        3.6608    8.2217   19.3901 H         1 RES1    0.0000
     48 C19        5.7540    5.3012   18.7465 C.3       1 RES1    0.0000
     49 H18        6.5304    4.9274   19.1914 H         1 RES1    0.0000
     50 H19        5.5995    6.1939   19.0937 H         1 RES1    0.0000
     51 C20        5.9138    3.3156   25.2386 C.ar      1 RES1    0.0000
     52 C21        5.3382    6.2968   16.4931 C.ar      1 RES1    0.0000
     53 H20        4.7851    6.9228   16.9021 H         1 RES1    0.0000
     54 C22        5.4435   -1.5354   21.2294 C.ar      1 RES1    0.0000
     55 H21        5.5331   -1.9365   22.0641 H         1 RES1    0.0000
     56 C23        1.9700    2.9114   23.8045 C.3       1 RES1    0.0000
     57 H22        2.5254    3.4268   24.4102 H         1 RES1    0.0000
     58 H23        1.0667    3.2589   23.8679 H         1 RES1    0.0000
     59 C24        5.7451    0.3791   19.8006 C.ar      1 RES1    0.0000
     60 C25        2.5896    1.0628   25.3228 C.2       1 RES1    0.0000
     61 H24        3.0711    1.6582   25.8513 H         1 RES1    0.0000
     62 H25        2.5515    0.1635   25.5549 H         1 RES1    0.0000
     63 C26        4.7261   -1.6222   18.9536 C.ar      1 RES1    0.0000
     64 H26        4.3349   -2.0852   18.2486 H         1 RES1    0.0000
     65 C27        4.8657   -2.2359   20.1790 C.ar      1 RES1    0.0000
     66 H27        4.5753   -3.1102   20.3014 H         1 RES1    0.0000
     67 C28        5.4972    6.3249   15.1214 C.ar      1 RES1    0.0000
     68 H28        5.0456    6.9596   14.6127 H         1 RES1    0.0000
     69 C29        0.7256    4.8367   21.8885 C.2       1 RES1    0.0000
     70 H29        0.2001    4.2530   21.3893 H         1 RES1    0.0000
     71 C30        0.1008    5.7955   22.5211 C.2       1 RES1    0.0000
     72 H30        0.5815    6.4059   23.0322 H         1 RES1    0.0000
     73 H31       -0.8241    5.8684   22.4583 H         1 RES1    0.0000
     74 C31        3.4914    9.5812   17.9111 C.ar      1 RES1    0.0000
     75 H32        4.1759   10.1376   18.2076 H         1 RES1    0.0000
     76 C32        6.3236    5.4163   14.5093 C.ar      1 RES1    0.0000
     77 H33        6.4386    5.4369   13.5879 H         1 RES1    0.0000
     78 C33        5.1613   -0.3280   18.7613 C.ar      1 RES1    0.0000
     79 H34        5.0628    0.0736   17.9269 H         1 RES1    0.0000
     80 C34        6.7095    4.6297   27.5791 C.ar      1 RES1    0.0000
     81 H35        6.9641    5.0644   28.3614 H         1 RES1    0.0000
     82 C35        5.9847    5.3557   17.2682 C.ar      1 RES1    0.0000
     83 C36        6.6483    2.6316   26.2105 C.ar      1 RES1    0.0000
     84 H36        6.8723    1.7362   26.0910 H         1 RES1    0.0000
     85 C37        6.9805    4.4724   15.2648 C.ar      1 RES1    0.0000
     86 H37        7.5367    3.8509   14.8524 H         1 RES1    0.0000
     87 C38        5.4532    2.5419   24.0448 C.2       1 RES1    0.0000
     88 C39        1.7714    9.0802   16.3534 C.ar      1 RES1    0.0000
     89 H38        1.2788    9.3041   15.5966 H         1 RES1    0.0000
@<TRIPOS>BOND
     1    1   39 1
     2    2   31 1
     3    3   12 1
     4    4   29 1
     5    5    6 1
     6    7   14 2
     7    8   22 2
     8    9   87 2
     9   10   14 2
    10   11   22 2
    11   12   13 1
    12   14   27 1
    13   15   18 ar
    14   16   17 1
    15   18   19 1
    16   20   21 1
    17   22   28 1
    18   23   24 1
    19   25   26 1
    20   27   25 ar
    21   28   80 ar
    22   29   20 1
    23   30   29 1
    24   31   12 1
    25   32   31 1
    26   33    2 1
    27   34   33 1
    28   35   33 1
    29   36    5 1
    30   37   38 1
    31   39   12 1
    32   40   39 1
    33   41   42 1
    34   43    1 1
    35   44   43 1
    36   45   43 1
    37   46   15 ar
    38   47   46 1
    39   48    3 1
    40   49   48 1
    41   50   48 1
    42   51   25 ar
    43   52   53 1
    44   54   23 ar
    45   55   54 1
    46   56   16 1
    47   57   56 1
    48   58   56 1
    49   59   23 ar
    50   60   16 2
    51   61   60 1
    52   62   60 1
    53   63   64 1
    54   65   54 ar
    55   66   65 1
    56   67   52 ar
    57   68   67 1
    58   69   36 1
    59   70   69 1
    60   71   69 2
    61   72   71 1
    62   73   71 1
    63   74   37 ar
    64   75   74 1
    65   76   67 ar
    66   77   76 1
    67   78   59 ar
    68   79   78 1
    69   80   27 ar
    70   81   80 1
    71   82   41 ar
    72   83   28 ar
    73   84   83 1
    74   85   41 ar
    75   86   85 1
    76   87    4 1
    77   88   18 ar
    78   89   88 1
    79   15   33 1
    80   20   36 1
    81   20   56 1
    82   29   39 1
    83   31   36 1
    84   37   88 ar
    85   43   59 1
    86   46   74 ar
    87   48   82 1
    88   51   83 ar
    89   51   87 1
    90   52   82 ar
    91   63   65 ar
    92   63   78 ar
    93   76   85 ar
@<TRIPOS>SUBSTRUCTURE
     1 RES1 1

@<TRIPOS>CRYSIN
   7.4650   14.7263   31.5337  90.0000  90.0000  90.0000  19 1

