# MOL2 file generated by ConQuest
# Please check atom types

@<TRIPOS>MOLECULE
REVPOZ
    93    68     2
SMALL
NO_CHARGES
****
Generated from CSD

@<TRIPOS>ATOM
      1 O1         8.9451    3.3090    2.8012 O.2       1 RES1    0.0000
      2 O2         9.8070    2.2168    4.5851 O.3       1 RES1    0.0000
      3 O3         1.5697    1.7279    3.8500 O.2       1 RES1    0.0000
      4 O4         0.4216    1.7684    1.9260 O.3       1 RES1    0.0000
      5 O5         5.7583    5.7200    5.5314 O.2       1 RES1    0.0000
      6 O6         3.6146    5.8945    5.2593 O.2       1 RES1    0.0000
      7 N1         6.3477    3.0940    4.0277 N.3       1 RES1    0.0000
      8 N2         3.8667    2.8143    2.4804 N.3       1 RES1    0.0000
      9 N3         4.7319    5.5674    4.8633 N.pl3     1 RES1    0.0000
     10 C1         6.0666    1.9013    3.2297 C.3       1 RES1    0.0000
     11 H1         6.4712    1.1304    3.6561 H         1 RES1    0.0000
     12 H2         6.4676    2.0018    2.3525 H         1 RES1    0.0000
     13 C2         4.5636    1.6574    3.0703 C.3       1 RES1    0.0000
     14 H3         4.4254    0.8807    2.5058 H         1 RES1    0.0000
     15 H4         4.1789    1.4644    3.9404 H         1 RES1    0.0000
     16 C3         3.6551    3.8858    3.4541 C.3       1 RES1    0.0000
     17 H5         3.5791    3.4963    4.3394 H         1 RES1    0.0000
     18 H6         2.8189    4.3331    3.2541 H         1 RES1    0.0000
     19 C4         4.7972    4.9352    3.4632 C.3       1 RES1    0.0000
     20 C5         6.1935    4.3238    3.2480 C.3       1 RES1    0.0000
     21 H7         6.3204    4.1273    2.3058 H         1 RES1    0.0000
     22 H8         6.8724    4.9630    3.5150 H         1 RES1    0.0000
     23 C6         7.5858    2.9970    4.7638 C.3       1 RES1    0.0000
     24 H9         7.5284    2.2341    5.3598 H         1 RES1    0.0000
     25 H10        7.6797    3.7910    5.3141 H         1 RES1    0.0000
     26 C7         8.8293    2.8525    3.9120 C.2       1 RES1    0.0000
     27 C8        11.2255    2.1567    4.1343 C.3       1 RES1    0.0000
     28 C9        11.8096    3.4385    3.9506 C.3       1 RES1    0.0000
     29 H11       11.3591    3.8962    3.2378 H         1 RES1    0.0000
     30 H12       12.7395    3.3368    3.7302 H         1 RES1    0.0000
     31 H13       11.7280    3.9470    4.7608 H         1 RES1    0.0000
     32 C10       11.9771    1.5511    5.2441 C.3       1 RES1    0.0000
     33 H14       11.9976    2.1602    5.9862 H         1 RES1    0.0000
     34 H15       12.8762    1.3650    4.9588 H         1 RES1    0.0000
     35 H16       11.5506    0.7339    5.5121 H         1 RES1    0.0000
     36 C11       11.0635    1.0321    2.9982 C.3       1 RES1    0.0000
     37 H17       10.5881    0.2797    3.3586 H         1 RES1    0.0000
     38 H18       11.9326    0.7490    2.7017 H         1 RES1    0.0000
     39 H19       10.5757    1.3950    2.2560 H         1 RES1    0.0000
     40 C12        2.6488    2.4376    1.7869 C.3       1 RES1    0.0000
     41 H20        2.8639    1.7429    1.1453 H         1 RES1    0.0000
     42 H21        2.3302    3.2062    1.2874 H         1 RES1    0.0000
     43 C13        1.5183    1.9406    2.6743 C.2       1 RES1    0.0000
     44 C14       -0.7972    1.1257    2.2783 C.3       1 RES1    0.0000
     45 C15       -0.7067   -0.0335    3.2571 C.3       1 RES1    0.0000
     46 H22       -0.2571   -0.7709    2.8388 H         1 RES1    0.0000
     47 H23       -1.5907   -0.3028    3.5180 H         1 RES1    0.0000
     48 H24       -0.2145    0.2427    4.0338 H         1 RES1    0.0000
     49 C16       -1.5877    0.8125    1.1016 C.3       1 RES1    0.0000
     50 H25       -1.6954    1.6042    0.5686 H         1 RES1    0.0000
     51 H26       -2.4499    0.4901    1.3717 H         1 RES1    0.0000
     52 H27       -1.1417    0.1375    0.5858 H         1 RES1    0.0000
     53 C17       -1.4978    2.1937    3.0551 C.3       1 RES1    0.0000
     54 H28       -0.9085    2.5335    3.7323 H         1 RES1    0.0000
     55 H29       -2.2815    1.8261    3.4683 H         1 RES1    0.0000
     56 H30       -1.7507    2.9057    2.4641 H         1 RES1    0.0000
     57 C18        4.6059    6.1014    2.4987 C.ar      1 RES1    0.0000
     58 C19        4.1011    5.8310    1.2062 C.ar      1 RES1    0.0000
     59 H31        3.8730    4.9607    0.9706 H         1 RES1    0.0000
     60 C20        3.9450    6.8504    0.2944 C.ar      1 RES1    0.0000
     61 H32        3.5951    6.6701   -0.5483 H         1 RES1    0.0000
     62 C21        4.3061    8.1506    0.6315 C.ar      1 RES1    0.0000
     63 H33        4.2036    8.8360    0.0112 H         1 RES1    0.0000
     64 C22        4.8139    8.4269    1.8844 C.ar      1 RES1    0.0000
     65 H34        5.0561    9.2949    2.1129 H         1 RES1    0.0000
     66 C23        4.9618    7.3994    2.7941 C.ar      1 RES1    0.0000
     67 H35        5.3100    7.5901    3.6348 H         1 RES1    0.0000
     68 C24       11.1139    1.9325    3.8571 Du        2 SUP2    0.0000
     69 C25       11.6932    3.3298    3.5119 Du        2 SUP2    0.0000
     70 H36       11.1935    3.7136    2.7880 Du        2 SUP2    0.0000
     71 H37       12.6133    3.2397    3.2520 Du        2 SUP2    0.0000
     72 H38       11.6321    3.9008    4.2805 Du        2 SUP2    0.0000
     73 C26       11.7942    1.0633    4.9364 Du        2 SUP2    0.0000
     74 H39       11.7309    1.5025    5.7872 Du        2 SUP2    0.0000
     75 H40       12.7190    0.9373    4.7090 Du        2 SUP2    0.0000
     76 H41       11.3568    0.2104    4.9831 Du        2 SUP2    0.0000
     77 C27       11.1201    1.4251    2.5586 Du        2 SUP2    0.0000
     78 H42       10.6072    0.6149    2.5281 Du        2 SUP2    0.0000
     79 H43       12.0244    1.2402    2.2915 Du        2 SUP2    0.0000
     80 H44       10.7362    2.0712    1.9606 Du        2 SUP2    0.0000
     81 C28       -0.9073    1.3685    2.6835 Du        2 SUP2    0.0000
     82 C29       -0.6690   -0.1167    2.8865 Du        2 SUP2    0.0000
     83 H45       -0.3531   -0.5051    2.0661 Du        2 SUP2    0.0000
     84 H46       -1.4888   -0.5409    3.1464 Du        2 SUP2    0.0000
     85 H47       -0.0112   -0.2439    3.5739 Du        2 SUP2    0.0000
     86 C30       -1.9103    1.6181    1.5483 Du        2 SUP2    0.0000
     87 H48       -1.9088    2.5497    1.3179 Du        2 SUP2    0.0000
     88 H49       -2.7905    1.3615    1.8357 Du        2 SUP2    0.0000
     89 H50       -1.6594    1.0980    0.7808 Du        2 SUP2    0.0000
     90 C31       -1.2382    2.2099    3.8785 Du        2 SUP2    0.0000
     91 H51       -0.5601    2.0943    4.5486 Du        2 SUP2    0.0000
     92 H52       -2.0882    1.9406    4.2338 Du        2 SUP2    0.0000
     93 H53       -1.2785    3.1333    3.6196 Du        2 SUP2    0.0000
@<TRIPOS>BOND
     1    1   26 2
     2    2   26 1
     3    3   43 2
     4    4   43 1
     5    5    9 2
     6    6    9 2
     7    7   10 1
     8    8   13 1
     9    9   19 1
    10   10   11 1
    11   12   10 1
    12   13   10 1
    13   14   13 1
    14   15   13 1
    15   16    8 1
    16   17   16 1
    17   18   16 1
    18   19   16 1
    19   20    7 1
    20   21   20 1
    21   22   20 1
    22   23    7 1
    23   24   23 1
    24   25   23 1
    25   26   23 1
    26   27    2 1
    27   28   27 1
    28   29   28 1
    29   30   28 1
    30   31   28 1
    31   32   27 1
    32   33   32 1
    33   34   32 1
    34   35   32 1
    35   36   27 1
    36   37   36 1
    37   38   36 1
    38   39   36 1
    39   40    8 1
    40   41   40 1
    41   42   40 1
    42   43   40 1
    43   44    4 1
    44   45   44 1
    45   46   45 1
    46   47   45 1
    47   48   45 1
    48   49   44 1
    49   50   49 1
    50   51   49 1
    51   52   49 1
    52   53   44 1
    53   54   53 1
    54   55   53 1
    55   56   53 1
    56   57   19 1
    57   58   57 ar
    58   59   58 1
    59   60   58 ar
    60   61   60 1
    61   62   60 ar
    62   63   62 1
    63   64   62 ar
    64   65   64 1
    65   66   57 ar
    66   67   66 1
    67   19   20 1
    68   64   66 ar
@<TRIPOS>SUBSTRUCTURE
     1 RES1 1
     2 SUP2 68

@<TRIPOS>CRYSIN
  21.3378   11.5579   10.3203  90.0000 100.3290  90.0000  14 1

