# MOL2 file generated by ConQuest
# Please check atom types

@<TRIPOS>MOLECULE
REVRER
    23    24     1
SMALL
NO_CHARGES
****
Generated from CSD

@<TRIPOS>ATOM
      1 C1         2.4816    8.6497    1.4532 C.2       1 RES1    0.0000
      2 C2         3.8545    8.9488    1.3632 C.2       1 RES1    0.0000
      3 C3         1.5648    9.6748    1.1143 C.2       1 RES1    0.0000
      4 C4         2.0080   10.9465    0.6970 C.2       1 RES1    0.0000
      5 C5         4.2721   10.1837    0.9752 C.2       1 RES1    0.0000
      6 C6         3.3421   11.1736    0.6406 C.2       1 RES1    0.0000
      7 C7         1.6851    7.5679    1.7922 C.2       1 RES1    0.0000
      8 N1         0.4178    7.9864    1.6634 N.pl3     1 RES1    0.0000
      9 N2         0.2897    9.2606    1.2497 N.2       1 RES1    0.0000
     10 C8        -0.7946    7.1980    1.9533 C.3       1 RES1    0.0000
     11 H1        -0.5474    6.2642    2.0360 H         1 RES1    0.0000
     12 H2        -1.1580    7.4847    2.8054 H         1 RES1    0.0000
     13 C9        -1.8183    7.3205    0.9488 C.3       1 RES1    0.0000
     14 H3        -2.0610    8.2436    0.8492 H         1 RES1    0.0000
     15 H4        -2.5892    6.8123    1.2138 H         1 RES1    0.0000
     16 H5        -1.4876    6.9854    0.1120 H         1 RES1    0.0000
     17 N3         4.8444    7.9338    1.6758 N.pl3     1 RES1    0.0000
     18 O1         6.0340    8.1852    1.5279 O.2       1 RES1    0.0000
     19 O2         4.4414    6.8567    2.0711 O.2       1 RES1    0.0000
     20 H6         1.8962    6.6614    2.0938 H         1 RES1    0.0000
     21 H7         3.6796   12.0270    0.3294 H         1 RES1    0.0000
     22 H8         5.2146   10.3450    0.9444 H         1 RES1    0.0000
     23 H9         1.3544   11.6120    0.4027 H         1 RES1    0.0000
@<TRIPOS>BOND
     1    1    2 1
     2    2    5 2
     3    3    1 1
     4    4    3 1
     5    5    6 1
     6    6    4 2
     7    7    1 2
     8    8    7 1
     9    9    3 2
    10   10    8 1
    11   11   10 1
    12   12   10 1
    13   13   10 1
    14   14   13 1
    15   15   13 1
    16   16   13 1
    17   17    2 1
    18   18   17 2
    19   19   17 2
    20   20    7 1
    21   21    6 1
    22   22    5 1
    23   23    4 1
    24    8    9 1
@<TRIPOS>SUBSTRUCTURE
     1 RES1 1

@<TRIPOS>CRYSIN
  11.2870   22.1900    7.3211  90.0000  90.0000  90.0000  56 1

