# MOL2 file generated by ConQuest
# Please check atom types

@<TRIPOS>MOLECULE
REVRIV
    23    24     1
SMALL
NO_CHARGES
****
Generated from CSD

@<TRIPOS>ATOM
      1 N1        10.2265    4.8207    2.5747 N.pl3     1 RES1    0.0000
      2 N2         6.8012    1.8765    1.3527 N.3       1 RES1    0.0000
      3 N3         7.8813    1.1411    1.6989 N.2       1 RES1    0.0000
      4 C1         8.8593    4.6297    2.1112 C.ar      1 RES1    0.0000
      5 C2         8.3690    3.3298    1.9294 C.ar      1 RES1    0.0000
      6 C3         6.7622    5.5507    1.4369 C.ar      1 RES1    0.0000
      7 C4         8.0800    5.7206    1.8648 C.ar      1 RES1    0.0000
      8 C5         6.2212    4.3098    1.2361 C.ar      1 RES1    0.0000
      9 C6         7.0417    3.2084    1.4796 C.ar      1 RES1    0.0000
     10 C7         8.8164    1.9970    2.0421 C.2       1 RES1    0.0000
     11 C8         5.5717    1.2094    0.9513 C.3       1 RES1    0.0000
     12 C9         4.7491    0.7754    2.1339 C.3       1 RES1    0.0000
     13 O1        10.8571    3.8439    2.9250 O.2       1 RES1    0.0000
     14 O2        10.6857    5.9424    2.6117 O.2       1 RES1    0.0000
     15 H1         5.3348    4.2317    0.9612 H         1 RES1    0.0000
     16 H2         9.6846    1.6563    2.3212 H         1 RES1    0.0000
     17 H3         5.1062    1.8236    0.3916 H         1 RES1    0.0000
     18 H4         3.9437    0.3231    1.8584 H         1 RES1    0.0000
     19 H5         6.2301    6.3118    1.2888 H         1 RES1    0.0000
     20 H6         4.4714    1.5556    2.7128 H         1 RES1    0.0000
     21 H7         5.8214    0.4271    0.3916 H         1 RES1    0.0000
     22 H8         5.2974    0.1478    2.6843 H         1 RES1    0.0000
     23 H9         8.4114    6.5927    2.0221 H         1 RES1    0.0000
@<TRIPOS>BOND
     1    1    4 1
     2    2    3 1
     3    3   10 2
     4    4    5 ar
     5    5    9 ar
     6    6    7 ar
     7    7    4 ar
     8    8    6 ar
     9    9    2 1
    10   10    5 1
    11   11    2 1
    12   12   11 1
    13   13    1 2
    14   14    1 2
    15   15    8 1
    16   16   10 1
    17   17   11 1
    18   18   12 1
    19   19    6 1
    20   20   12 1
    21   21   11 1
    22   22   12 1
    23   23    7 1
    24    8    9 ar
@<TRIPOS>SUBSTRUCTURE
     1 RES1 1

@<TRIPOS>CRYSIN
   7.8594   16.2383    7.1227  90.0000  91.5060  90.0000  14 1

