# MOL2 file generated by ConQuest
# Please check atom types

@<TRIPOS>MOLECULE
REVTIW
    32    31     2
SMALL
NO_CHARGES
****
Generated from CSD

@<TRIPOS>ATOM
      1 O1        -0.7146    1.5336    5.2620 O.3       1 RES1    0.0000
      2 N1         0.3590    1.0889    4.3808 N.2       1 RES1    0.0000
      3 C1         0.8040    2.0162    3.6246 C.2       1 RES1    0.0000
      4 C2         1.8634    1.7022    2.6141 C.3       1 RES1    0.0000
      5 C3         3.0098    2.7125    2.6970 C.3       1 RES1    0.0000
      6 C4         2.5132    4.1582    2.6061 C.3       1 RES1    0.0000
      7 C5         1.5140    4.3969    3.7390 C.3       1 RES1    0.0000
      8 C6         0.3389    3.4238    3.6740 C.3       1 RES1    0.0000
      9 C7         3.6498    5.2138    2.5324 C.3       1 RES1    0.0000
     10 C8         4.5042    4.9574    1.2827 C.3       1 RES1    0.0000
     11 C9         4.5478    5.1721    3.7639 C.3       1 RES1    0.0000
     12 C10        3.0507    6.6188    2.3981 C.3       1 RES1    0.0000
     13 O2         1.0545   -0.2555    4.2800 Du        2 SUP2    0.0000
     14 H1        -0.9528    0.6830    5.6811 H         1 RES1    0.0000
     15 H2         1.4680    1.7226    1.7002 H         1 RES1    0.0000
     16 H3         2.2161    0.7850    2.7772 H         1 RES1    0.0000
     17 H4         2.0005    4.2310    1.7531 H         1 RES1    0.0000
     18 H5         3.4825    2.5900    3.5354 H         1 RES1    0.0000
     19 H6         1.9821    4.2922    4.6207 H         1 RES1    0.0000
     20 H7         1.1682    5.3371    3.6827 H         1 RES1    0.0000
     21 H8        -0.2296    3.5498    4.4597 H         1 RES1    0.0000
     22 H9        -0.1978    3.6163    2.8790 H         1 RES1    0.0000
     23 H10        5.1716    5.7087    1.1715 H         1 RES1    0.0000
     24 H11        3.9070    4.9158    0.4684 H         1 RES1    0.0000
     25 H12        4.9968    4.0811    1.3855 H         1 RES1    0.0000
     26 H13        5.2600    5.9048    3.6922 H         1 RES1    0.0000
     27 H14        5.0045    4.2567    3.8231 H         1 RES1    0.0000
     28 H15        3.9821    5.3264    4.6051 H         1 RES1    0.0000
     29 H16        2.5412    6.8512    3.2425 H         1 RES1    0.0000
     30 H17        2.4198    6.6427    1.6057 H         1 RES1    0.0000
     31 H18        3.7956    7.2920    2.2569 H         1 RES1    0.0000
     32 H19        3.6356    2.5448    1.9744 H         1 RES1    0.0000
@<TRIPOS>BOND
     1    1    2 1
     2    2    3 2
     3    3    4 1
     4    4    5 1
     5    5    6 1
     6    6    7 1
     7    7    8 1
     8    8    3 1
     9    9    6 1
    10   10    9 1
    11   11    9 1
    12   12    9 1
    13   14    1 1
    14   15    4 1
    15   16    4 1
    16   17    6 1
    17   18    5 1
    18   19    7 1
    19   20    7 1
    20   21    8 1
    21   22    8 1
    22   23   10 1
    23   24   10 1
    24   25   10 1
    25   26   11 1
    26   27   11 1
    27   28   11 1
    28   29   12 1
    29   30   12 1
    30   31   12 1
    31   32    5 1
@<TRIPOS>SUBSTRUCTURE
     1 RES1 1
     2 SUP2 13

@<TRIPOS>CRYSIN
  11.3140    8.8700   10.3990  90.0000  92.8750  90.0000  14 1

