# MOL2 file generated by ConQuest
# Please check atom types

@<TRIPOS>MOLECULE
REWCEB
    47    48     1
SMALL
NO_CHARGES
****
Generated from CSD

@<TRIPOS>ATOM
      1 N1        -1.0123    7.1157   13.3701 N.pl3     1 RES1    0.0000
      2 C1        -0.7315    7.2240   14.6327 C.3       1 RES1    0.0000
      3 N2        -0.6501    6.1043   15.4947 N.am      1 RES1    0.0000
      4 C2        -0.2945    4.8146   14.8384 C.3       1 RES1    0.0000
      5 C3        -1.0058    4.7266   13.5096 C.2       1 RES1    0.0000
      6 C4        -1.3171    5.8734   12.8514 C.2       1 RES1    0.0000
      7 C5         1.2063    4.6615   14.7650 C.ar      1 RES1    0.0000
      8 C6         1.8629    3.9359   15.7236 C.ar      1 RES1    0.0000
      9 C7         3.2339    3.8369   15.6807 C.ar      1 RES1    0.0000
     10 N3         3.9500    3.0479   16.7054 N.pl3     1 RES1    0.0000
     11 O1         5.1137    2.7629   16.5159 O.2       1 RES1    0.0000
     12 O2         3.3420    2.7341   17.7159 O.2       1 RES1    0.0000
     13 C8         3.9923    4.4442   14.6971 C.ar      1 RES1    0.0000
     14 C9         3.3327    5.1622   13.7510 C.ar      1 RES1    0.0000
     15 C10        1.9567    5.2780   13.7743 C.ar      1 RES1    0.0000
     16 N4        -0.5030    8.4316   15.1585 N.3       1 RES1    0.0000
     17 C11       -0.7159    6.2041   16.8718 C.2       1 RES1    0.0000
     18 O3        -0.8397    7.2274   17.4941 O.2       1 RES1    0.0000
     19 O4        -0.6748    4.9947   17.4369 O.3       1 RES1    0.0000
     20 C12       -0.6636    4.9516   18.8980 C.3       1 RES1    0.0000
     21 C13        0.7425    4.9727   19.3523 C.3       1 RES1    0.0000
     22 C14       -1.1983    3.3498   13.0786 C.2       1 RES1    0.0000
     23 O5        -0.7808    2.4052   13.7152 O.2       1 RES1    0.0000
     24 O6        -1.8595    3.1858   11.9304 O.3       1 RES1    0.0000
     25 C15       -2.0768    1.8157   11.4815 C.3       1 RES1    0.0000
     26 C16       -2.6913    1.8521   10.1617 C.3       1 RES1    0.0000
     27 C17       -1.9899    5.9859   11.5227 C.3       1 RES1    0.0000
     28 H1        -0.6036    4.0095   15.3552 H         1 RES1    0.0000
     29 H2         1.3527    3.5206   16.4658 H         1 RES1    0.0000
     30 H3         4.9626    4.3046   14.6363 H         1 RES1    0.0000
     31 H4         3.8074    5.6112   13.0482 H         1 RES1    0.0000
     32 H5         1.4985    5.8015   13.0947 H         1 RES1    0.0000
     33 H6        -0.9844    4.1727   19.2879 H         1 RES1    0.0000
     34 H7        -1.0268    5.7229   19.3255 H         1 RES1    0.0000
     35 H8         0.8308    4.9719   20.3413 H         1 RES1    0.0000
     36 H9         1.2081    5.7880   19.0769 H         1 RES1    0.0000
     37 H10        1.2480    4.2378   19.0393 H         1 RES1    0.0000
     38 H11       -2.6470    1.3218   12.1075 H         1 RES1    0.0000
     39 H12       -1.2506    1.3244   11.4297 H         1 RES1    0.0000
     40 H13       -2.8808    0.9835    9.8434 H         1 RES1    0.0000
     41 H14       -2.1538    2.3257    9.5733 H         1 RES1    0.0000
     42 H15       -3.5478    2.3240   10.2511 H         1 RES1    0.0000
     43 H16       -2.2237    5.1368   11.1668 H         1 RES1    0.0000
     44 H17       -1.4542    6.4569   10.9003 H         1 RES1    0.0000
     45 H18       -2.8243    6.4907   11.6210 H         1 RES1    0.0000
     46 H19       -0.0554    8.6354   16.0938 H         1 RES1    0.0000
     47 H20       -0.7376    9.2215   14.6488 H         1 RES1    0.0000
@<TRIPOS>BOND
     1    1    2 1
     2    2    3 1
     3    3    4 1
     4    4    5 1
     5    5    6 2
     6    6    1 1
     7    7    4 1
     8    8    7 ar
     9    9    8 ar
    10   10    9 1
    11   11   10 2
    12   12   10 2
    13   13    9 ar
    14   14   13 ar
    15   15    7 ar
    16   16    2 1
    17   17    3 1
    18   18   17 2
    19   19   17 1
    20   20   19 1
    21   21   20 1
    22   22    5 1
    23   23   22 2
    24   24   22 1
    25   25   24 1
    26   26   25 1
    27   27    6 1
    28   28    4 1
    29   29    8 1
    30   30   13 1
    31   31   14 1
    32   32   15 1
    33   33   20 1
    34   34   20 1
    35   35   21 1
    36   36   21 1
    37   37   21 1
    38   38   25 1
    39   39   25 1
    40   40   26 1
    41   41   26 1
    42   42   26 1
    43   43   27 1
    44   44   27 1
    45   45   27 1
    46   46   16 1
    47   47   16 1
    48   14   15 ar
@<TRIPOS>SUBSTRUCTURE
     1 RES1 1

@<TRIPOS>CRYSIN
  24.0900    8.4570   18.3500  90.0000 102.9400  90.0000  15 1

