# MOL2 file generated by ConQuest
# Please check atom types

@<TRIPOS>MOLECULE
REWHEH
    74    47     2
SMALL
NO_CHARGES
****
Generated from CSD

@<TRIPOS>ATOM
      1 C1         3.1627    5.8424    4.6055 C.2       1 RES1    0.0000
      2 C2         2.8822    5.8102    3.1123 C.3       1 RES1    0.0000
      3 H1         3.7269    5.9512    2.6155 H         1 RES1    0.0000
      4 H2         2.5259    4.9211    2.8646 H         1 RES1    0.0000
      5 C3         1.9027    6.8593    2.7285 C.3       1 RES1    0.0000
      6 H3         1.7971    6.8645    1.7451 H         1 RES1    0.0000
      7 H4         1.0222    6.6480    3.1297 H         1 RES1    0.0000
      8 C4         2.4863    8.2555    4.6170 C.3       1 RES1    0.0000
      9 H5         1.6111    8.1078    5.0559 H         1 RES1    0.0000
     10 H6         2.8041    9.1610    4.8603 H         1 RES1    0.0000
     11 C5         3.4913    7.2097    5.1094 C.3       1 RES1    0.0000
     12 H7         4.3991    7.4607    4.8039 H         1 RES1    0.0000
     13 H8         3.4949    7.2005    6.0986 H         1 RES1    0.0000
     14 C6         2.8364    2.5775    5.8553 C.ar      1 RES1    0.0000
     15 C7         2.7243    1.2151    5.4469 C.ar      1 RES1    0.0000
     16 C8         2.5996    0.1834    6.3767 C.ar      1 RES1    0.0000
     17 H9         2.5263   -0.7197    6.0914 H         1 RES1    0.0000
     18 C9         2.5846    0.4981    7.7178 C.ar      1 RES1    0.0000
     19 C10        2.7022    1.8212    8.1609 C.ar      1 RES1    0.0000
     20 H10        2.6926    2.0154    9.0907 H         1 RES1    0.0000
     21 C11        2.8288    2.8237    7.2572 C.ar      1 RES1    0.0000
     22 H11        2.9160    3.7174    7.5686 H         1 RES1    0.0000
     23 N1         3.1657    4.8833    5.4657 N.2       1 RES1    0.0000
     24 N2         2.9687    3.5914    4.9965 N.pl3     1 RES1    0.0000
     25 H12        2.9300    3.4405    4.1304 H         1 RES1    0.0000
     26 N3         2.3285    8.1655    3.1717 N.am      1 RES1    0.0000
     27 N4         2.4403   -0.5790    8.6910 N.pl3     1 RES1    0.0000
     28 N5         2.7170    0.8246    4.0609 N.pl3     1 RES1    0.0000
     29 O1         2.4902   -0.2875    9.8829 O.2       1 RES1    0.0000
     30 O2         2.2549   -1.7186    8.2797 O.2       1 RES1    0.0000
     31 O3         2.6343   -0.3739    3.7742 O.2       1 RES1    0.0000
     32 O4         2.8019    1.6905    3.1847 O.2       1 RES1    0.0000
     33 C12        2.2159    9.0999    2.1608 Du        2 SUP2    0.0000
     34 C13        2.6593   10.4856    2.6358 Du        2 SUP2    0.0000
     35 C14        3.5299   12.6396    1.7958 Du        2 SUP2    0.0000
     36 H13        4.3079   12.8622    1.2267 Du        2 SUP2    0.0000
     37 H14        3.7861   12.7850    2.7430 Du        2 SUP2    0.0000
     38 C15        2.3193   13.5503    1.4280 Du        2 SUP2    0.0000
     39 H15        1.5555   13.3343    2.0174 Du        2 SUP2    0.0000
     40 H16        2.5643   14.4968    1.5743 Du        2 SUP2    0.0000
     41 N6         3.1326   11.2273    1.5887 Du        2 SUP2    0.0000
     42 H17        3.2057   10.8617    0.7907 Du        2 SUP2    0.0000
     43 O5         2.3793    8.8436    0.9153 Du        2 SUP2    0.0000
     44 O6         2.3383   10.9004    3.7220 Du        2 SUP2    0.0000
     45 O7         1.9297   13.3551    0.0246 Du        2 SUP2    0.0000
     46 H18        1.2595   13.8354   -0.1463 Du        2 SUP2    0.0000
     47 C16        2.4314    9.2255    2.3143 C.2       1 RES1    0.0000
     48 C17        2.7231   10.6633    2.7575 C.2       1 RES1    0.0000
     49 C18        3.4399   12.8499    1.8465 C.3       1 RES1    0.0000
     50 H19        4.3600   13.0854    1.5728 H         1 RES1    0.0000
     51 H20        3.3112   13.1305    2.7864 H         1 RES1    0.0000
     52 C19        2.4134   13.5780    0.9327 C.3       1 RES1    0.0000
     53 H21        2.5942   14.5512    0.9558 H         1 RES1    0.0000
     54 H22        2.5332   13.2700    0.0000 H         1 RES1    0.0000
     55 N7         3.2368   11.3878    1.7278 N.am      1 RES1    0.0000
     56 H23        3.4559   10.9812    0.9776 H         1 RES1    0.0000
     57 O8         2.0023    9.0479    1.1195 O.2       1 RES1    0.0000
     58 O9         2.7202   10.9567    3.9248 O.2       1 RES1    0.0000
     59 O10        1.0254   13.3403    1.3411 O.3       1 RES1    0.0000
     60 H24        0.5068   13.7810    0.8472 H         1 RES1    0.0000
     61 C20        2.8087    9.0906    2.2796 Du        2 SUP2    0.0000
     62 C21        2.8525   10.5498    2.7430 Du        2 SUP2    0.0000
     63 C22        2.5896   12.8742    1.9407 Du        2 SUP2    0.0000
     64 H25        2.7348   13.0725    2.8922 Du        2 SUP2    0.0000
     65 H26        1.7253   13.2702    1.6583 Du        2 SUP2    0.0000
     66 C23        3.7530   13.4574    1.0775 Du        2 SUP2    0.0000
     67 H27        4.5932   13.4486    1.5945 Du        2 SUP2    0.0000
     68 H28        3.8788   12.9151    0.2592 Du        2 SUP2    0.0000
     69 N8         2.5621   11.4003    1.7205 Du        2 SUP2    0.0000
     70 H29        2.3535   11.0771    0.9283 Du        2 SUP2    0.0000
     71 O11        3.0501    8.8559    1.0456 Du        2 SUP2    0.0000
     72 O12        2.6888   11.0609    3.8089 Du        2 SUP2    0.0000
     73 O13        3.4023   14.7737    0.7372 Du        2 SUP2    0.0000
     74 H30        2.6161   14.7894    0.4446 Du        2 SUP2    0.0000
@<TRIPOS>BOND
     1    1    2 1
     2    2    3 1
     3    4    2 1
     4    5    2 1
     5    6    5 1
     6    7    5 1
     7    8    9 1
     8   10    8 1
     9   11    1 1
    10   12   11 1
    11   13   11 1
    12   14   15 ar
    13   15   16 ar
    14   16   17 1
    15   18   16 ar
    16   19   18 ar
    17   20   19 1
    18   21   14 ar
    19   22   21 1
    20   23    1 2
    21   24   14 1
    22   25   24 1
    23   26    5 1
    24   27   18 1
    25   28   15 1
    26   29   27 2
    27   30   27 2
    28   31   28 2
    29   32   28 2
    30   47   26 1
    31   48   47 1
    32   49   50 1
    33   51   49 1
    34   52   49 1
    35   53   52 1
    36   54   52 1
    37   55   48 1
    38   56   55 1
    39   57   47 2
    40   58   48 2
    41   59   52 1
    42   60   59 1
    43    8   11 1
    44    8   26 1
    45   19   21 ar
    46   23   24 1
    47   49   55 1
@<TRIPOS>SUBSTRUCTURE
     1 RES1 1
     2 SUP2 33

@<TRIPOS>CRYSIN
   6.3978   10.3825   15.3945  70.4430  81.2090  72.3700   2 1

