# MOL2 file generated by ConQuest
# Please check atom types

@<TRIPOS>MOLECULE
REWKOW
    40    42     2
SMALL
NO_CHARGES
****
Generated from CSD

@<TRIPOS>ATOM
      1 C1         0.7150    4.5501    4.3446 C.ar      1 RES1    0.0000
      2 C2         0.1312    3.9695    3.1716 C.2       1 RES1    0.0000
      3 C3         0.4553    4.3503    1.8140 C.2       1 RES1    0.0000
      4 H1         1.2016    4.9001    1.7308 H         1 RES1    0.0000
      5 C4         0.2207    3.8418    5.4466 C.ar      1 RES1    0.0000
      6 C5         1.5934    5.6084    4.5727 C.ar      1 RES1    0.0000
      7 H2         1.9114    6.1204    3.8638 H         1 RES1    0.0000
      8 C6        -0.6786    2.9538    3.6064 C.2       1 RES1    0.0000
      9 H3        -1.1833    2.3992    3.0562 H         1 RES1    0.0000
     10 C7         0.5830    4.1280    6.7458 C.ar      1 RES1    0.0000
     11 H4         0.2372    3.6491    7.4640 H         1 RES1    0.0000
     12 C8         1.9792    5.8804    5.8596 C.ar      1 RES1    0.0000
     13 H5         2.5882    6.5650    6.0184 H         1 RES1    0.0000
     14 C9         1.4831    5.1555    6.9292 C.ar      1 RES1    0.0000
     15 H6         1.7629    5.3672    7.7908 H         1 RES1    0.0000
     16 N1        -0.1164    4.0547    0.7120 N.2       1 RES1    0.0000
     17 N2        -0.6342    2.8805    4.9497 N.pl3     1 RES1    0.0000
     18 O1        -1.2867    3.3227    0.9172 O.3       1 RES1    0.0000
     19 H7        -1.5630    3.0425    0.1973 H         1 RES1    0.0000
     20 H8        -1.0600    2.2467    5.4096 H         1 RES1    0.0000
     21 C10        4.2251    4.5383   10.7286 C.ar      2 RES2    0.0000
     22 C11        3.2642    4.6542   11.8116 C.2       2 RES2    0.0000
     23 C12        3.9853    5.5989    9.8424 C.ar      2 RES2    0.0000
     24 C13        3.2008    3.7614   12.9291 C.2       2 RES2    0.0000
     25 H9         3.8837    3.1312   12.9584 H         2 RES2    0.0000
     26 C14        4.7343    5.7881    8.6970 C.ar      2 RES2    0.0000
     27 H10        4.5588    6.4893    8.1113 H         2 RES2    0.0000
     28 C15        5.2486    3.6420   10.4463 C.ar      2 RES2    0.0000
     29 H11        5.4145    2.9207   11.0088 H         2 RES2    0.0000
     30 C16        2.4988    5.7586   11.5158 C.2       2 RES2    0.0000
     31 H12        1.7967    6.0755   12.0368 H         2 RES2    0.0000
     32 C17        5.7525    4.8895    8.4596 C.ar      2 RES2    0.0000
     33 H13        6.2790    4.9912    7.6998 H         2 RES2    0.0000
     34 C18        6.0106    3.8394    9.3243 C.ar      2 RES2    0.0000
     35 H14        6.7126    3.2577    9.1409 H         2 RES2    0.0000
     36 N3         2.3684    3.6845   13.8924 N.2       2 RES2    0.0000
     37 N4         2.9227    6.3191   10.3464 N.pl3     2 RES2    0.0000
     38 O2         1.3701    4.6542   13.7985 O.3       2 RES2    0.0000
     39 H15        0.8749    4.6010   14.4503 H         2 RES2    0.0000
     40 H16        2.6152    7.0593    9.9870 H         2 RES2    0.0000
@<TRIPOS>BOND
     1    1    2 1
     2    2    3 1
     3    3    4 1
     4    5    1 ar
     5    6    1 ar
     6    7    6 1
     7    8    2 2
     8    9    8 1
     9   10    5 ar
    10   11   10 1
    11   12    6 ar
    12   13   12 1
    13   14   10 ar
    14   15   14 1
    15   16    3 2
    16   17    5 1
    17   18   16 1
    18   19   18 1
    19   20   17 1
    20   21   22 1
    21   22   24 1
    22   23   21 ar
    23   24   25 1
    24   26   23 ar
    25   27   26 1
    26   28   21 ar
    27   29   28 1
    28   30   22 2
    29   31   30 1
    30   32   26 ar
    31   33   32 1
    32   34   28 ar
    33   35   34 1
    34   36   24 2
    35   37   23 1
    36   38   36 1
    37   39   38 1
    38   40   37 1
    39    8   17 1
    40   12   14 ar
    41   30   37 1
    42   32   34 ar
@<TRIPOS>SUBSTRUCTURE
     1 RES1 1
     2 RES2 21

@<TRIPOS>CRYSIN
   8.6883   11.8246   15.4120  90.0000  90.0000  90.0000  33 1

