# MOL2 file generated by ConQuest
# Please check atom types

@<TRIPOS>MOLECULE
REXDAC
    40    43     1
SMALL
NO_CHARGES
****
Generated from CSD

@<TRIPOS>ATOM
      1 O1         6.7758    8.5909    4.8592 O.3       1 RES1    0.0000
      2 N1        10.5269    8.5985    3.2594 N.pl3     1 RES1    0.0000
      3 N2         9.3348    8.4962    3.9425 N.2       1 RES1    0.0000
      4 N3         5.3855    8.6238    5.0663 N.2       1 RES1    0.0000
      5 C1        10.3136    9.2384    1.9580 C.3       1 RES1    0.0000
      6 H1        10.8885    8.8365    1.2592 H         1 RES1    0.0000
      7 H2        10.4881   10.2131    2.0020 H         1 RES1    0.0000
      8 C2         8.8486    8.9500    1.7022 C.3       1 RES1    0.0000
      9 H3         8.3876    9.7244    1.2905 H         1 RES1    0.0000
     10 H4         8.7255    8.1503    1.1322 H         1 RES1    0.0000
     11 C3         8.3835    8.7087    3.1071 C.2       1 RES1    0.0000
     12 C4         7.0050    8.6872    3.5218 C.2       1 RES1    0.0000
     13 C5         5.8375    8.7725    2.8615 C.2       1 RES1    0.0000
     14 H5         5.7062    8.8491    1.9237 H         1 RES1    0.0000
     15 C6         4.8466    8.7225    3.8739 C.2       1 RES1    0.0000
     16 C7        11.7072    8.6463    3.9859 C.ar      1 RES1    0.0000
     17 C8        12.8520    9.2279    3.4490 C.ar      1 RES1    0.0000
     18 H6        12.8281    9.6207    2.5840 H         1 RES1    0.0000
     19 C9        14.0227    9.2316    4.1797 C.ar      1 RES1    0.0000
     20 H7        14.8003    9.6221    3.7975 H         1 RES1    0.0000
     21 C10       14.1037    8.6879    5.4467 C.ar      1 RES1    0.0000
     22 C11       12.9536    8.1134    5.9692 C.ar      1 RES1    0.0000
     23 H8        12.9800    7.7386    6.8413 H         1 RES1    0.0000
     24 C12       11.7760    8.0716    5.2589 C.ar      1 RES1    0.0000
     25 H9        11.0106    7.6532    5.6333 H         1 RES1    0.0000
     26 C13       15.3872    8.6769    6.2358 C.3       1 RES1    0.0000
     27 H10       15.2328    8.2484    7.1038 H         1 RES1    0.0000
     28 H11       16.0702    8.1769    5.7417 H         1 RES1    0.0000
     29 H12       15.6932    9.5969    6.3755 H         1 RES1    0.0000
     30 C14        3.3835    8.7419    3.7632 C.ar      1 RES1    0.0000
     31 C15        2.6012    9.2174    4.8087 C.ar      1 RES1    0.0000
     32 H13        3.0176    9.5703    5.5864 H         1 RES1    0.0000
     33 C16        1.2375    9.1810    4.7274 C.ar      1 RES1    0.0000
     34 H14        0.7125    9.5073    5.4485 H         1 RES1    0.0000
     35 C17        0.6187    8.6713    3.6006 C.ar      1 RES1    0.0000
     36 H15       -0.3294    8.6461    3.5459 H         1 RES1    0.0000
     37 C18        1.3917    8.1993    2.5539 C.ar      1 RES1    0.0000
     38 H16        0.9715    7.8436    1.7793 H         1 RES1    0.0000
     39 C19        2.7630    8.2442    2.6304 C.ar      1 RES1    0.0000
     40 H17        3.2877    7.9305    1.9026 H         1 RES1    0.0000
@<TRIPOS>BOND
     1    1    4 1
     2    2    3 1
     3    3   11 2
     4    4   15 2
     5    5    2 1
     6    6    5 1
     7    7    5 1
     8    8    5 1
     9    9    8 1
    10   10    8 1
    11   11    8 1
    12   12    1 1
    13   13   12 2
    14   14   13 1
    15   15   13 1
    16   16    2 1
    17   17   16 ar
    18   18   17 1
    19   19   17 ar
    20   20   19 1
    21   21   19 ar
    22   22   21 ar
    23   23   22 1
    24   24   16 ar
    25   25   24 1
    26   26   21 1
    27   27   26 1
    28   28   26 1
    29   29   26 1
    30   30   15 1
    31   31   30 ar
    32   32   31 1
    33   33   31 ar
    34   34   33 1
    35   35   33 ar
    36   36   35 1
    37   37   35 ar
    38   38   37 1
    39   39   30 ar
    40   40   39 1
    41   11   12 1
    42   22   24 ar
    43   37   39 ar
@<TRIPOS>SUBSTRUCTURE
     1 RES1 1

@<TRIPOS>CRYSIN
  17.7540   14.0040    6.0860  90.0000  98.5010  90.0000  14 1

