# MOL2 file generated by ConQuest
# Please check atom types

@<TRIPOS>MOLECULE
REXHOS
    39    41     1
SMALL
NO_CHARGES
****
Generated from CSD

@<TRIPOS>ATOM
      1 N1         1.6366    7.1643    4.7203 N.3       1 RES1    0.0000
      2 C1         1.7298    5.8582    5.3988 C.3       1 RES1    0.0000
      3 C2         1.1441    4.9011    4.3499 C.3       1 RES1    0.0000
      4 C3         0.2989    5.7867    3.4011 C.3       1 RES1    0.0000
      5 C4         0.3646    7.1820    3.9916 C.3       1 RES1    0.0000
      6 O1         1.6390    8.2359    5.6936 O.3       1 RES1    0.0000
      7 C5         0.9444    5.7265    6.7065 C.3       1 RES1    0.0000
      8 O2         1.2337    4.4628    7.3216 O.3       1 RES1    0.0000
      9 C6         3.1913    5.6073    5.7107 C.3       1 RES1    0.0000
     10 O3         3.3646    4.3493    6.3625 O.3       1 RES1    0.0000
     11 C7         2.6193    4.2245    7.5715 C.3       1 RES1    0.0000
     12 C8         2.7107    2.7668    7.9672 C.3       1 RES1    0.0000
     13 C9         3.1680    5.1373    8.6554 C.3       1 RES1    0.0000
     14 O4         2.1590    4.3423    3.5037 O.3       1 RES1    0.0000
     15 O5         1.0066    5.7369    2.1584 O.3       1 RES1    0.0000
     16 C10        1.7454    4.5253    2.1383 C.3       1 RES1    0.0000
     17 C11        0.8799    3.3605    1.6902 C.3       1 RES1    0.0000
     18 C12        2.9749    4.7149    1.2872 C.3       1 RES1    0.0000
     19 H1         2.4387    8.7532    5.4367 H         1 RES1    0.0000
     20 H2         0.6515    4.1700    4.8214 H         1 RES1    0.0000
     21 H3        -0.6551    5.5108    3.2833 H         1 RES1    0.0000
     22 H4        -0.4029    7.3489    4.6106 H         1 RES1    0.0000
     23 H5         0.3700    7.8779    3.2736 H         1 RES1    0.0000
     24 H6         1.2068    6.4656    7.3270 H         1 RES1    0.0000
     25 H7        -0.0347    5.7855    6.5124 H         1 RES1    0.0000
     26 H8         3.5284    6.3350    6.3074 H         1 RES1    0.0000
     27 H9         3.7131    5.6084    4.8582 H         1 RES1    0.0000
     28 H10        3.6641    2.5317    8.1570 H         1 RES1    0.0000
     29 H11        2.1584    2.6078    8.7858 H         1 RES1    0.0000
     30 H12        2.3700    2.1957    7.2186 H         1 RES1    0.0000
     31 H13        4.1375    4.9386    8.7993 H         1 RES1    0.0000
     32 H14        2.6659    4.9829    9.5055 H         1 RES1    0.0000
     33 H15        3.0610    6.0909    8.3737 H         1 RES1    0.0000
     34 H16        0.5995    3.5002    0.7410 H         1 RES1    0.0000
     35 H17        0.0687    3.3049    2.2734 H         1 RES1    0.0000
     36 H18        1.4011    2.5102    1.7626 H         1 RES1    0.0000
     37 H19        2.7029    4.8432    0.3328 H         1 RES1    0.0000
     38 H20        3.4770    5.5199    1.6020 H         1 RES1    0.0000
     39 H21        3.5595    3.9066    1.3621 H         1 RES1    0.0000
@<TRIPOS>BOND
     1    1    2 1
     2    2    3 1
     3    3    4 1
     4    4    5 1
     5    5    1 1
     6    6    1 1
     7    7    2 1
     8    8    7 1
     9    9    2 1
    10   10    9 1
    11   11    8 1
    12   12   11 1
    13   13   11 1
    14   14    3 1
    15   15    4 1
    16   16   14 1
    17   17   16 1
    18   18   16 1
    19   19    6 1
    20   20    3 1
    21   21    4 1
    22   22    5 1
    23   23    5 1
    24   24    7 1
    25   25    7 1
    26   26    9 1
    27   27    9 1
    28   28   12 1
    29   29   12 1
    30   30   12 1
    31   31   13 1
    32   32   13 1
    33   33   13 1
    34   34   17 1
    35   35   17 1
    36   36   17 1
    37   37   18 1
    38   38   18 1
    39   39   18 1
    40   10   11 1
    41   15   16 1
@<TRIPOS>SUBSTRUCTURE
     1 RES1 1

@<TRIPOS>CRYSIN
   5.9773   11.3531   19.3477  90.0000  90.0000  90.0000  19 1

