# MOL2 file generated by ConQuest
# Please check atom types

@<TRIPOS>MOLECULE
REXKAI
    44    47     1
SMALL
NO_CHARGES
****
Generated from CSD

@<TRIPOS>ATOM
      1 N1         0.5057    2.0910    3.0363 N.ar      1 RES1    0.0000
      2 N2         3.4704    3.4261    4.5424 N.ar      1 RES1    0.0000
      3 C1        -0.7103    1.6720    3.3982 C.ar      1 RES1    0.0000
      4 H1        -1.2628    1.2691    2.7395 H         1 RES1    0.0000
      5 C2        -1.2012    1.7948    4.6838 C.ar      1 RES1    0.0000
      6 H2        -2.0654    1.4649    4.9043 H         1 RES1    0.0000
      7 C3        -0.4195    2.4034    5.6407 C.ar      1 RES1    0.0000
      8 H3        -0.7469    2.5255    6.5250 H         1 RES1    0.0000
      9 C4         0.8383    2.8316    5.3005 C.ar      1 RES1    0.0000
     10 H4         1.4077    3.2282    5.9503 H         1 RES1    0.0000
     11 C5         1.2706    2.6729    3.9818 C.ar      1 RES1    0.0000
     12 C6         2.6058    3.1053    3.5728 C.ar      1 RES1    0.0000
     13 C7         2.9480    3.1657    2.2311 C.ar      1 RES1    0.0000
     14 H5         2.3093    2.9460    1.5634 H         1 RES1    0.0000
     15 C8         4.2362    3.5504    1.8705 C.ar      1 RES1    0.0000
     16 C9         5.1346    3.8585    2.8822 C.ar      1 RES1    0.0000
     17 H6         6.0285    4.1028    2.6706 H         1 RES1    0.0000
     18 C10        4.7133    3.8080    4.2251 C.ar      1 RES1    0.0000
     19 C11        5.6089    4.1435    5.3464 C.ar      1 RES1    0.0000
     20 C12        5.2305    3.7673    6.6409 C.ar      1 RES1    0.0000
     21 H7         4.4100    3.3061    6.7696 H         1 RES1    0.0000
     22 C13        6.0206    4.0508    7.7304 C.ar      1 RES1    0.0000
     23 H8         5.7742    3.7623    8.6006 H         1 RES1    0.0000
     24 C14        7.1843    4.7682    7.5214 C.ar      1 RES1    0.0000
     25 C15        7.5861    5.1711    6.2702 C.ar      1 RES1    0.0000
     26 H9         8.3983    5.6519    6.1555 H         1 RES1    0.0000
     27 C16        6.7923    4.8686    5.1795 C.ar      1 RES1    0.0000
     28 H10        7.0541    5.1550    4.3118 H         1 RES1    0.0000
     29 N3         8.0454    5.0300    8.6771 N.pl3     1 RES1    0.0000
     30 O1         7.7651    4.5324    9.7665 O.2       1 RES1    0.0000
     31 O2         9.0144    5.7621    8.5178 O.2       1 RES1    0.0000
     32 C17        4.6045    3.6177    0.4358 C.ar      1 RES1    0.0000
     33 C18        3.6734    4.0677   -0.4944 C.ar      1 RES1    0.0000
     34 H11        2.8175    4.3618   -0.2013 H         1 RES1    0.0000
     35 C19        3.9875    4.0894   -1.8501 C.ar      1 RES1    0.0000
     36 H12        3.3504    4.3871   -2.4897 H         1 RES1    0.0000
     37 C20        5.2224    3.6753   -2.2413 C.ar      1 RES1    0.0000
     38 C21        6.1783    3.2401   -1.3532 C.ar      1 RES1    0.0000
     39 H13        7.0336    2.9537   -1.6577 H         1 RES1    0.0000
     40 C22        5.8611    3.2303    0.0127 C.ar      1 RES1    0.0000
     41 H14        6.5114    2.9558    0.6485 H         1 RES1    0.0000
     42 N4         5.5461    3.6690   -3.6823 N.pl3     1 RES1    0.0000
     43 O3         6.6513    3.3173   -4.0187 O.2       1 RES1    0.0000
     44 O4         4.6714    4.0466   -4.4379 O.2       1 RES1    0.0000
@<TRIPOS>BOND
     1    1    3 ar
     2    2   12 ar
     3    3    4 1
     4    5    3 ar
     5    6    5 1
     6    7    5 ar
     7    8    7 1
     8    9    7 ar
     9   10    9 1
    10   11    1 ar
    11   12   11 1
    12   13   12 ar
    13   14   13 1
    14   15   13 ar
    15   16   15 ar
    16   17   16 1
    17   18    2 ar
    18   19   18 1
    19   20   19 ar
    20   21   20 1
    21   22   20 ar
    22   23   22 1
    23   24   22 ar
    24   25   24 ar
    25   26   25 1
    26   27   19 ar
    27   28   27 1
    28   29   24 1
    29   30   29 2
    30   31   29 2
    31   32   15 1
    32   33   32 ar
    33   34   33 1
    34   35   33 ar
    35   36   35 1
    36   37   35 ar
    37   38   37 ar
    38   39   38 1
    39   40   32 ar
    40   41   40 1
    41   42   37 1
    42   43   42 2
    43   44   42 2
    44    9   11 ar
    45   16   18 ar
    46   25   27 ar
    47   38   40 ar
@<TRIPOS>SUBSTRUCTURE
     1 RES1 1

@<TRIPOS>CRYSIN
  20.1960    7.0193   13.3090  90.0000 106.7900  90.0000  14 1

