# MOL2 file generated by ConQuest
# Please check atom types

@<TRIPOS>MOLECULE
REXQIX
    32    32     1
SMALL
NO_CHARGES
****
Generated from CSD

@<TRIPOS>ATOM
      1 N1         3.7140    1.5716    7.5496 N.am      1 RES1    0.0000
      2 H1         3.5355    1.6101    6.7080 H         1 RES1    0.0000
      3 O1         2.2779   -0.1187    7.8329 O.2       1 RES1    0.0000
      4 O2         7.6355    5.8601    7.9182 O.3       1 RES1    0.0000
      5 H2         8.0337    6.3411    7.3863 H         1 RES1    0.0000
      6 N2         4.6019    2.4606    8.1027 N.2       1 RES1    0.0000
      7 N3         6.7650    5.0115    7.2205 N.2       1 RES1    0.0000
      8 C1         6.1114    4.2355    7.9993 C.2       1 RES1    0.0000
      9 C2         5.1889    3.3054    7.3210 C.2       1 RES1    0.0000
     10 C3         3.1183    0.6332    8.3234 C.2       1 RES1    0.0000
     11 C4         3.5705    0.5342    9.7517 C.3       1 RES1    0.0000
     12 H3         4.5248    0.3604    9.7642 H         1 RES1    0.0000
     13 H4         3.4226    1.3911   10.1838 H         1 RES1    0.0000
     14 C5         2.8788   -0.5297   10.5481 C.ar      1 RES1    0.0000
     15 C6         1.6375   -2.4671   12.0693 C.ar      1 RES1    0.0000
     16 H5         1.2141   -3.1183   12.5806 H         1 RES1    0.0000
     17 C7         5.0127    3.3922    5.8387 C.3       1 RES1    0.0000
     18 H6         5.5586    4.1020    5.4932 H         1 RES1    0.0000
     19 H7         5.2746    2.5615    5.4355 H         1 RES1    0.0000
     20 H8         4.0909    3.5701    5.6364 H         1 RES1    0.0000
     21 C8         3.0792   -1.8607   10.2906 C.ar      1 RES1    0.0000
     22 H9         3.6420   -2.1088    9.5934 H         1 RES1    0.0000
     23 C9         2.0366   -0.2091   11.5832 C.ar      1 RES1    0.0000
     24 H10        1.8728    0.6863   11.7728 H         1 RES1    0.0000
     25 C10        6.2509    4.2394    9.4803 C.3       1 RES1    0.0000
     26 H11        5.6667    3.5777    9.8584 H         1 RES1    0.0000
     27 H12        7.1591    4.0374    9.7177 H         1 RES1    0.0000
     28 H13        6.0167    5.1058    9.8220 H         1 RES1    0.0000
     29 C11        2.4628   -2.8417   11.0455 C.ar      1 RES1    0.0000
     30 H14        2.6073   -3.7411   10.8596 H         1 RES1    0.0000
     31 C12        1.4328   -1.1735   12.3431 C.ar      1 RES1    0.0000
     32 H15        0.8793   -0.9300   13.0491 H         1 RES1    0.0000
@<TRIPOS>BOND
     1    1    2 1
     2    3   10 2
     3    4    5 1
     4    6    1 1
     5    7    4 1
     6    8    7 2
     7    9    6 2
     8   10    1 1
     9   11   10 1
    10   12   11 1
    11   13   11 1
    12   14   11 1
    13   15   16 1
    14   17    9 1
    15   18   17 1
    16   19   17 1
    17   20   17 1
    18   21   14 ar
    19   22   21 1
    20   23   14 ar
    21   24   23 1
    22   25    8 1
    23   26   25 1
    24   27   25 1
    25   28   25 1
    26   29   15 ar
    27   30   29 1
    28   31   15 ar
    29   32   31 1
    30    8    9 1
    31   21   29 ar
    32   23   31 ar
@<TRIPOS>SUBSTRUCTURE
     1 RES1 1

@<TRIPOS>CRYSIN
   4.5754   10.8170   12.6240  84.9060  87.1670  86.6180   2 1

