# MOL2 file generated by ConQuest
# Please check atom types

@<TRIPOS>MOLECULE
REXSOE
   176   184     4
SMALL
NO_CHARGES
****
Generated from CSD

@<TRIPOS>ATOM
      1 O1        -1.1617    7.7007    5.0465 O.3       1 RES1    0.0000
      2 N1         0.6090   13.6649    4.1855 N.3       1 RES1    0.0000
      3 C1        -0.0421    9.5408    4.8515 C.2       1 RES1    0.0000
      4 N2        -1.2752    9.1508    5.0432 N.2       1 RES1    0.0000
      5 N3         0.2579   10.9206    4.8178 N.3       1 RES1    0.0000
      6 C2         0.1267    7.3934    4.8515 C.2       1 RES1    0.0000
      7 C3         0.4177    5.8775    4.7640 C.3       1 RES1    0.0000
      8 C4        -0.8424   11.7714    4.7405 C.3       1 RES1    0.0000
      9 H1        -1.4970   11.5035    5.4047 H         1 RES1    0.0000
     10 H2        -1.2524   11.6804    3.8660 H         1 RES1    0.0000
     11 C5         1.3682   17.7820    3.8358 C.ar      1 RES1    0.0000
     12 H3         1.5268   18.6952    3.7517 H         1 RES1    0.0000
     13 C6         1.8958    5.7052    4.6984 C.3       1 RES1    0.0000
     14 H4         2.2407    6.1938    3.9468 H         1 RES1    0.0000
     15 H5         2.1057    4.7748    4.5992 H         1 RES1    0.0000
     16 H6         2.2926    6.0386    5.5056 H         1 RES1    0.0000
     17 C7        -0.0653   15.9818    4.4798 C.ar      1 RES1    0.0000
     18 H7        -0.8853   15.7010    4.8162 H         1 RES1    0.0000
     19 C8         1.3620   11.3274    3.9804 C.3       1 RES1    0.0000
     20 H8         1.1084   11.2335    3.0488 H         1 RES1    0.0000
     21 H9         2.1197   10.7431    4.1435 H         1 RES1    0.0000
     22 C9         0.9027    8.4280    4.7119 C.2       1 RES1    0.0000
     23 H10        1.8204    8.4553    4.5605 H         1 RES1    0.0000
     24 C10       -0.2299    5.1979    5.9092 C.3       1 RES1    0.0000
     25 H11       -1.1729    5.3784    5.8941 H         1 RES1    0.0000
     26 H12        0.1454    5.5252    6.7298 H         1 RES1    0.0000
     27 H13       -0.0835    4.2514    5.8436 H         1 RES1    0.0000
     28 C11       -0.4759   13.2125    4.9658 C.3       1 RES1    0.0000
     29 H14       -1.2493   13.7633    4.7708 H         1 RES1    0.0000
     30 H15       -0.2572   13.3347    5.9025 H         1 RES1    0.0000
     31 C12        2.0369   15.5320    3.5633 C.ar      1 RES1    0.0000
     32 H16        2.6948   14.9420    3.2741 H         1 RES1    0.0000
     33 C13        0.8844   15.0166    4.0897 C.ar      1 RES1    0.0000
     34 C14        1.7667   12.7449    4.2427 C.3       1 RES1    0.0000
     35 H17        2.1794   12.8044    5.1172 H         1 RES1    0.0000
     36 H18        2.4241   13.0175    3.5835 H         1 RES1    0.0000
     37 C15        2.2677   16.8764    3.4423 C.ar      1 RES1    0.0000
     38 H19        3.0716   17.1673    3.0757 H         1 RES1    0.0000
     39 C16       -0.2635    5.2948    3.4540 C.3       1 RES1    0.0000
     40 H20        0.1343    5.7006    2.6805 H         1 RES1    0.0000
     41 H21       -1.2029    5.4856    3.4692 H         1 RES1    0.0000
     42 H22       -0.1289    4.3444    3.4187 H         1 RES1    0.0000
     43 C17        0.1817   17.2947    4.3773 C.ar      1 RES1    0.0000
     44 H23       -0.4556   17.8986    4.6766 H         1 RES1    0.0000
     45 O2         2.5721   10.7888    0.2590 O.3       2 RES2    0.0000
     46 N4         4.3878   16.7415    0.2674 N.3       2 RES2    0.0000
     47 N5         4.0460   13.9464   -0.0521 N.3       2 RES2    0.0000
     48 N6         2.4632   12.1622    0.1362 N.2       2 RES2    0.0000
     49 C18        2.9076   14.8587   -0.1429 C.3       2 RES2    0.0000
     50 H24        2.2706   14.5115   -0.7870 H         2 RES2    0.0000
     51 H25        2.4650   14.9038    0.7181 H         2 RES2    0.0000
     52 C19        5.1062   14.4808    0.7635 C.3       2 RES2    0.0000
     53 H26        5.8592   13.8691    0.7500 H         2 RES2    0.0000
     54 H27        4.7975   14.5545    1.6799 H         2 RES2    0.0000
     55 C20        4.1391    8.9693    0.5381 C.3       2 RES2    0.0000
     56 C21        3.7255   12.6221    0.1547 C.2       2 RES2    0.0000
     57 C22        5.8427   18.6635    0.6693 C.ar      2 RES2    0.0000
     58 H28        6.4867   18.0993    1.0308 H         2 RES2    0.0000
     59 C23        3.8718   10.4105    0.4204 C.2       2 RES2    0.0000
     60 C24        4.6566   18.1377    0.1614 C.ar      2 RES2    0.0000
     61 C25        6.0653   20.0770    0.6340 C.ar      2 RES2    0.0000
     62 H29        6.8516   20.4452    0.9669 H         2 RES2    0.0000
     63 C26        5.6474    8.7458    0.7466 C.3       2 RES2    0.0000
     64 H30        5.9373    9.2263    1.5252 H         2 RES2    0.0000
     65 H31        6.1280    9.0599   -0.0219 H         2 RES2    0.0000
     66 H32        5.8169    7.8086    0.8694 H         2 RES2    0.0000
     67 C27        3.6516    8.2454   -0.6811 C.3       2 RES2    0.0000
     68 H33        3.8154    7.3050   -0.5818 H         2 RES2    0.0000
     69 H34        4.1175    8.5707   -1.4546 H         2 RES2    0.0000
     70 H35        2.7096    8.3970   -0.7887 H         2 RES2    0.0000
     71 C28        3.3117   16.2013   -0.5448 C.3       2 RES2    0.0000
     72 H36        2.5446   16.7930   -0.4860 H         2 RES2    0.0000
     73 H37        3.5970   16.1799   -1.4714 H         2 RES2    0.0000
     74 C29        3.3668    8.4139    1.7792 C.3       2 RES2    0.0000
     75 H38        3.6575    8.8762    2.5695 H         2 RES2    0.0000
     76 H39        3.5449    7.4752    1.8733 H         2 RES2    0.0000
     77 H40        2.4240    8.5511    1.6581 H         2 RES2    0.0000
     78 C30        4.6152   11.5189    0.3481 C.2       2 RES2    0.0000
     79 H41        5.5414   11.5647    0.4137 H         2 RES2    0.0000
     80 C31        3.7291   19.0135   -0.3935 C.ar      2 RES2    0.0000
     81 H42        2.9315   18.6873   -0.7433 H         2 RES2    0.0000
     82 C32        5.0991   20.8702    0.0992 C.ar      2 RES2    0.0000
     83 H43        5.2097   21.7940    0.1009 H         2 RES2    0.0000
     84 C33        3.9936   20.3505   -0.4221 C.ar      2 RES2    0.0000
     85 H44        3.3776   20.9204   -0.8240 H         2 RES2    0.0000
     86 C34        5.5641   15.8522    0.2758 C.3       2 RES2    0.0000
     87 H45        6.2462   16.2075    0.8677 H         2 RES2    0.0000
     88 H46        5.9367   15.7832   -0.6172 H         2 RES2    0.0000
     89 N7        -1.1979    8.1551   13.1654 N.3       3 RES3    0.0000
     90 C35       -2.6470    6.2367   12.7904 C.3       3 RES3    0.0000
     91 H47       -3.1288    6.2169   13.6329 H         3 RES3    0.0000
     92 H48       -3.2524    5.9030   12.1110 H         3 RES3    0.0000
     93 C36       -1.8337   10.5226   12.7887 C.2       3 RES3    0.0000
     94 H49       -2.7584   10.4569   12.7164 H         3 RES3    0.0000
     95 N8        -1.5821    5.3204   12.8930 N.3       3 RES3    0.0000
     96 N9         0.3277    9.8581   13.0023 N.2       3 RES3    0.0000
     97 C37       -1.3517   13.0966   12.5684 C.3       3 RES3    0.0000
     98 C38       -1.8389    3.9501   12.9552 C.ar      3 RES3    0.0000
     99 C39       -1.0788   11.6225   12.7366 C.2       3 RES3    0.0000
    100 O3         0.2478   11.3063   12.8358 O.3       3 RES3    0.0000
    101 C40       -0.5077    5.8380   13.7069 C.3       3 RES3    0.0000
    102 H50        0.2611    5.2524   13.6346 H         3 RES3    0.0000
    103 H51       -0.7872    5.8540   14.6351 H         3 RES3    0.0000
    104 C41       -1.1845    1.6763   13.5135 C.ar      3 RES3    0.0000
    105 H52       -0.5382    1.1025   13.8565 H         3 RES3    0.0000
    106 C42       -0.9085    9.4969   12.9770 C.2       3 RES3    0.0000
    107 C43       -3.2556    2.0821   12.4961 C.ar      3 RES3    0.0000
    108 H53       -4.0593    1.7707   12.1446 H         3 RES3    0.0000
    109 C44       -2.4022    1.1553   13.0477 C.ar      3 RES3    0.0000
    110 H54       -2.6158    0.2516   13.1082 H         3 RES3    0.0000
    111 C45       -0.9452    3.0400   13.4664 C.ar      3 RES3    0.0000
    112 H55       -0.1357    3.3566   13.7977 H         3 RES3    0.0000
    113 C46       -0.8805   13.8258   13.8515 C.3       3 RES3    0.0000
    114 H56       -1.0762   14.7631   13.7758 H         3 RES3    0.0000
    115 H57        0.0656   13.7043   13.9591 H         3 RES3    0.0000
    116 H58       -1.3384   13.4624   14.6116 H         3 RES3    0.0000
    117 C47       -0.1127    7.2386   13.2781 C.3       3 RES3    0.0000
    118 H59        0.5239    7.5917   13.9188 H         3 RES3    0.0000
    119 H60        0.3361    7.1846   12.4204 H         3 RES3    0.0000
    120 C48       -3.0203    3.3864   12.4238 C.ar      3 RES3    0.0000
    121 H61       -3.6464    3.9390   12.0168 H         3 RES3    0.0000
    122 C49       -2.8450   13.3025   12.3885 C.3       3 RES3    0.0000
    123 H62       -3.0292   14.2382   12.2893 H         3 RES3    0.0000
    124 H63       -3.3090   12.9647   13.1570 H         3 RES3    0.0000
    125 H64       -3.1399   12.8333   11.6048 H         3 RES3    0.0000
    126 C50       -0.6158   13.6572   11.3728 C.3       3 RES3    0.0000
    127 H65       -0.8274   14.5892   11.2752 H         3 RES3    0.0000
    128 H66       -0.8833   13.1839   10.5824 H         3 RES3    0.0000
    129 H67        0.3295   13.5546   11.5039 H         3 RES3    0.0000
    130 C51       -2.3662    7.6457   12.4776 C.3       3 RES3    0.0000
    131 H68       -2.2330    7.7356   11.5208 H         3 RES3    0.0000
    132 H69       -3.1362    8.1830   12.7214 H         3 RES3    0.0000
    133 C52        1.9481    7.0467    9.0152 C.ar      4 RES4    0.0000
    134 N10        2.5491   11.2217    8.3341 N.3       4 RES4    0.0000
    135 C53        2.4253   16.1604    8.4115 C.3       4 RES4    0.0000
    136 N11        4.0613   12.9549    8.1189 N.2       4 RES4    0.0000
    137 O4         3.9945   14.3469    8.1004 O.3       4 RES4    0.0000
    138 C54        1.9754   13.5849    8.4300 C.2       4 RES4    0.0000
    139 H70        1.0588   13.5162    8.5729 H         4 RES4    0.0000
    140 C55        0.7406    6.5697    9.5869 C.ar      4 RES4    0.0000
    141 H71        0.0894    7.1760    9.8560 H         4 RES4    0.0000
    142 N12        2.1956    8.4468    8.9916 N.3       4 RES4    0.0000
    143 C56        2.6816   14.7523    8.3089 C.2       4 RES4    0.0000
    144 C57        0.5204    5.2154    9.7517 C.ar      4 RES4    0.0000
    145 H72       -0.2696    4.9191   10.1435 H         4 RES4    0.0000
    146 C58        1.1165    9.3381    8.9395 C.3       4 RES4    0.0000
    147 H73        0.4780    9.0813    9.6222 H         4 RES4    0.0000
    148 H74        0.6784    9.2341    8.0802 H         4 RES4    0.0000
    149 C59        3.6843   10.2560    8.3677 C.3       4 RES4    0.0000
    150 H75        4.3448   10.5264    7.7102 H         4 RES4    0.0000
    151 H76        4.1041   10.2949    9.2422 H         4 RES4    0.0000
    152 C60        2.6381    4.7332    8.7579 C.ar      4 RES4    0.0000
    153 H77        3.2791    4.1205    8.4703 H         4 RES4    0.0000
    154 C61        1.4372   10.7601    9.1228 C.3       4 RES4    0.0000
    155 H78        0.6552   11.2875    8.8941 H         4 RES4    0.0000
    156 H79        1.6341   10.9172   10.0594 H         4 RES4    0.0000
    157 C62        3.2839    8.8834    8.0987 C.3       4 RES4    0.0000
    158 H80        4.0482    8.2976    8.2147 H         4 RES4    0.0000
    159 H81        2.9898    8.8097    7.1771 H         4 RES4    0.0000
    160 C63        3.0442   16.6769    9.6743 C.3       4 RES4    0.0000
    161 H82        2.8608   17.6161    9.7567 H         4 RES4    0.0000
    162 H83        3.9915   16.5358    9.6474 H         4 RES4    0.0000
    163 H84        2.6701   16.2120   10.4260 H         4 RES4    0.0000
    164 C64        1.4778    4.2930    9.3330 C.ar      4 RES4    0.0000
    165 H85        1.3264    3.3818    9.4440 H         4 RES4    0.0000
    166 C65        2.9808   16.9553    7.1771 C.3       4 RES4    0.0000
    167 H86        2.7750   17.8884    7.2780 H         4 RES4    0.0000
    168 H87        2.5747   16.6240    6.3733 H         4 RES4    0.0000
    169 H88        3.9327   16.8417    7.1250 H         4 RES4    0.0000
    170 C66        2.8667    6.1162    8.6065 C.ar      4 RES4    0.0000
    171 H89        3.6605    6.4060    8.2197 H         4 RES4    0.0000
    172 C67        0.8898   16.4703    8.4484 C.3       4 RES4    0.0000
    173 H90        0.7566   17.4194    8.5157 H         4 RES4    0.0000
    174 H91        0.4940   16.0363    9.2069 H         4 RES4    0.0000
    175 H92        0.4786   16.1474    7.6430 H         4 RES4    0.0000
    176 C68        2.8308   12.5502    8.3072 C.2       4 RES4    0.0000
@<TRIPOS>BOND
     1    1    4 1
     2    2   28 1
     3    3    4 2
     4    5    3 1
     5    6    1 1
     6    7    6 1
     7    8    5 1
     8    9    8 1
     9   10    8 1
    10   11   12 1
    11   13    7 1
    12   14   13 1
    13   15   13 1
    14   16   13 1
    15   17   18 1
    16   19    5 1
    17   20   19 1
    18   21   19 1
    19   22    3 1
    20   23   22 1
    21   24    7 1
    22   25   24 1
    23   26   24 1
    24   27   24 1
    25   28    8 1
    26   29   28 1
    27   30   28 1
    28   31   32 1
    29   33    2 1
    30   34    2 1
    31   35   34 1
    32   36   34 1
    33   37   11 ar
    34   38   37 1
    35   39    7 1
    36   40   39 1
    37   41   39 1
    38   42   39 1
    39   43   11 ar
    40   44   43 1
    41   45   48 1
    42   46   60 1
    43   47   49 1
    44   48   56 2
    45   49   50 1
    46   51   49 1
    47   52   47 1
    48   53   52 1
    49   54   52 1
    50   55   59 1
    51   56   47 1
    52   57   58 1
    53   59   45 1
    54   60   57 ar
    55   61   57 ar
    56   62   61 1
    57   63   55 1
    58   64   63 1
    59   65   63 1
    60   66   63 1
    61   67   55 1
    62   68   67 1
    63   69   67 1
    64   70   67 1
    65   71   46 1
    66   72   71 1
    67   73   71 1
    68   74   55 1
    69   75   74 1
    70   76   74 1
    71   77   74 1
    72   78   56 1
    73   79   78 1
    74   80   60 ar
    75   81   80 1
    76   82   61 ar
    77   83   82 1
    78   84   80 ar
    79   85   84 1
    80   86   46 1
    81   87   86 1
    82   88   86 1
    83   89  106 1
    84   90   91 1
    85   92   90 1
    86   93   94 1
    87   95   90 1
    88   96  100 1
    89   97   99 1
    90   98   95 1
    91   99   93 2
    92  100   99 1
    93  101   95 1
    94  102  101 1
    95  103  101 1
    96  104  105 1
    97  106   93 1
    98  107  108 1
    99  109  104 ar
   100  110  109 1
   101  111   98 ar
   102  112  111 1
   103  113   97 1
   104  114  113 1
   105  115  113 1
   106  116  113 1
   107  117   89 1
   108  118  117 1
   109  119  117 1
   110  120   98 ar
   111  121  120 1
   112  122   97 1
   113  123  122 1
   114  124  122 1
   115  125  122 1
   116  126   97 1
   117  127  126 1
   118  128  126 1
   119  129  126 1
   120  130   89 1
   121  131  130 1
   122  132  130 1
   123  133  140 ar
   124  134  149 1
   125  135  143 1
   126  136  137 1
   127  137  143 1
   128  138  139 1
   129  140  141 1
   130  142  133 1
   131  143  138 2
   132  144  140 ar
   133  145  144 1
   134  146  142 1
   135  147  146 1
   136  148  146 1
   137  149  150 1
   138  151  149 1
   139  152  153 1
   140  154  134 1
   141  155  154 1
   142  156  154 1
   143  157  142 1
   144  158  157 1
   145  159  157 1
   146  160  135 1
   147  161  160 1
   148  162  160 1
   149  163  160 1
   150  164  144 ar
   151  165  164 1
   152  166  135 1
   153  167  166 1
   154  168  166 1
   155  169  166 1
   156  170  133 ar
   157  171  170 1
   158  172  135 1
   159  173  172 1
   160  174  172 1
   161  175  172 1
   162  176  134 1
   163    6   22 2
   164   17   33 ar
   165   17   43 ar
   166   19   34 1
   167   31   33 ar
   168   31   37 ar
   169   49   71 1
   170   52   86 1
   171   59   78 2
   172   82   84 ar
   173   90  130 1
   174   96  106 2
   175  101  117 1
   176  104  111 ar
   177  107  109 ar
   178  107  120 ar
   179  136  176 2
   180  138  176 1
   181  146  154 1
   182  149  157 1
   183  152  164 ar
   184  152  170 ar
@<TRIPOS>SUBSTRUCTURE
     1 RES1 1
     2 RES2 45
     3 RES3 89
     4 RES4 133

@<TRIPOS>CRYSIN
   6.0180   15.9610   17.8250 107.5250  95.4570  98.1110   1 1

