# MOL2 file generated by ConQuest
# Please check atom types

@<TRIPOS>MOLECULE
REYJOU
    55    55     2
SMALL
NO_CHARGES
****
Generated from CSD

@<TRIPOS>ATOM
      1 O1        -2.2577   12.6618    4.7853 O.2       1 RES1    0.0000
      2 O2        -3.5013   10.9294    4.4567 O.2       1 RES1    0.0000
      3 O3         2.0779   11.9894    2.4121 O.3       1 RES1    0.0000
      4 O4         3.5426   11.7528   -0.0424 O.3       1 RES1    0.0000
      5 O5         2.0621   12.1648   -1.6742 O.2       1 RES1    0.0000
      6 O6         4.2041   14.9814    2.5484 O.3       1 RES1    0.0000
      7 O7         2.7448   16.4779    1.6924 O.2       1 RES1    0.0000
      8 O8         2.8450   15.0194    5.0439 O.3       1 RES1    0.0000
      9 O9         4.2598   14.5200    6.7087 O.2       1 RES1    0.0000
     10 O10        2.2959   12.2246    6.0331 O.3       1 RES1    0.0000
     11 O11        0.6097   13.4765    6.8631 O.2       1 RES1    0.0000
     12 N1         2.3619    8.8071    3.1927 N.3       1 RES1    0.0000
     13 N2         2.0576    7.6103    2.7213 N.2       1 RES1    0.0000
     14 N3         0.1639    8.5713    3.1680 N.2       1 RES1    0.0000
     15 N4         1.0216   10.6361    3.9492 N.pl3     1 RES1    0.0000
     16 N5        -0.1535   11.2563    4.1739 N.2       1 RES1    0.0000
     17 N6        -2.4304   11.5020    4.5161 N.pl3     1 RES1    0.0000
     18 C1         1.1433    9.3529    3.4546 C.2       1 RES1    0.0000
     19 C2         0.7820    7.4451    2.7262 C.2       1 RES1    0.0000
     20 C3        -1.2548   10.6519    4.1989 C.2       1 RES1    0.0000
     21 C4         2.1405   11.5459    3.7611 C.3       1 RES1    0.0000
     22 C5         2.0685   12.7584    4.7026 C.3       1 RES1    0.0000
     23 C6         3.1590   13.7700    4.3453 C.3       1 RES1    0.0000
     24 C7         3.0915   14.0904    2.8640 C.3       1 RES1    0.0000
     25 C8         3.2182   12.7721    2.0733 C.3       1 RES1    0.0000
     26 C9         3.1731   13.0177    0.5658 C.3       1 RES1    0.0000
     27 C10        2.8781   11.4308   -1.1672 C.2       1 RES1    0.0000
     28 C11        3.3751   10.1542   -1.7189 C.3       1 RES1    0.0000
     29 C12        3.8851   16.1510    1.9368 C.2       1 RES1    0.0000
     30 C13        5.1185   16.9437    1.6366 C.3       1 RES1    0.0000
     31 C14        3.5078   15.2934    6.1892 C.2       1 RES1    0.0000
     32 C15        3.1545   16.6515    6.7046 C.3       1 RES1    0.0000
     33 C16        1.5040   12.6796    7.0367 C.2       1 RES1    0.0000
     34 C17        1.8741   12.1222    8.3487 C.3       1 RES1    0.0000
     35 H1         2.3067    9.4005    2.8195 H         1 RES1    0.0000
     36 H2         0.5034    6.9427    2.4524 H         1 RES1    0.0000
     37 H3        -1.4139    9.7606    4.2233 H         1 RES1    0.0000
     38 H4         2.8742   11.0307    4.0112 H         1 RES1    0.0000
     39 H5         1.1671   13.0429    4.6608 H         1 RES1    0.0000
     40 H6         4.2053   13.4326    4.6192 H         1 RES1    0.0000
     41 H7         2.0543   14.5295    2.7568 H         1 RES1    0.0000
     42 H8         4.1959   12.2724    2.3020 H         1 RES1    0.0000
     43 H9         2.1593   13.3254    0.2983 H         1 RES1    0.0000
     44 H10        3.9818   13.8634    0.3822 H         1 RES1    0.0000
     45 H11        3.6806    9.4513   -1.2593 H         1 RES1    0.0000
     46 H12        2.9650    9.8367   -2.5459 H         1 RES1    0.0000
     47 H13        4.7313   10.2371   -1.9463 Du        2 SUP2    0.0000
     48 H14        5.0659   17.6343    1.2704 H         1 RES1    0.0000
     49 H15        5.2659   17.1871    2.5086 H         1 RES1    0.0000
     50 H16        5.9754   16.3779    1.0324 H         1 RES1    0.0000
     51 H17        2.1429   16.6301    6.6602 H         1 RES1    0.0000
     52 H18        3.3108   16.7143    7.7253 H         1 RES1    0.0000
     53 H19        3.5060   17.4125    6.0732 H         1 RES1    0.0000
     54 H20        1.2478   12.4228    9.1481 H         1 RES1    0.0000
     55 H21        2.4504   12.0347    8.4168 H         1 RES1    0.0000
@<TRIPOS>BOND
     1    1   17 2
     2    2   17 2
     3    3   21 1
     4    4   26 1
     5    5   27 2
     6    6   24 1
     7    7   29 2
     8    8   23 1
     9    9   31 2
    10   10   22 1
    11   11   33 2
    12   12   13 1
    13   13   19 2
    14   14   18 2
    15   15   16 1
    16   16   20 2
    17   17   20 1
    18   18   12 1
    19   19   14 1
    20   20   37 1
    21   21   15 1
    22   22   21 1
    23   23   22 1
    24   24   23 1
    25   25    3 1
    26   26   25 1
    27   27    4 1
    28   28   27 1
    29   29    6 1
    30   30   29 1
    31   31    8 1
    32   32   31 1
    33   33   10 1
    34   34   33 1
    35   35   12 1
    36   36   19 1
    37   38   21 1
    38   39   22 1
    39   40   23 1
    40   41   24 1
    41   42   25 1
    42   43   26 1
    43   44   26 1
    44   45   28 1
    45   46   28 1
    46   48   30 1
    47   49   30 1
    48   50   30 1
    49   51   32 1
    50   52   32 1
    51   53   32 1
    52   54   34 1
    53   55   34 1
    54   15   18 1
    55   24   25 1
@<TRIPOS>SUBSTRUCTURE
     1 RES1 1
     2 SUP2 47

@<TRIPOS>CRYSIN
   8.9900   16.1260   16.3610  90.0000  90.0000  90.0000  19 1

