# MOL2 file generated by ConQuest
# Please check atom types

@<TRIPOS>MOLECULE
REYKEO
    31    30     1
SMALL
USER_CHARGES
****
Generated from CSD

@<TRIPOS>ATOM
      1 O1         1.9655    1.1419    6.0533 O.2       1 RES1   -1.0000
      2 O2         1.2123    1.2925    3.6717 O.3       1 RES1    0.0000
      3 O3        -1.2099    1.5354    6.7931 O.2       1 RES1   -1.0000
      4 O4        -1.3178    1.4397    9.2664 O.3       1 RES1    0.0000
      5 O5         1.3498   -2.3212    4.7867 O.2       1 RES1    0.0000
      6 O6         2.4335   -3.9792    5.6358 O.2       1 RES1    0.0000
      7 O7        -1.1602   -2.7544    7.7845 O.2       1 RES1    0.0000
      8 O8        -0.6629   -4.0399    6.0980 O.2       1 RES1    0.0000
      9 O9         2.6139   -3.0836    8.7031 O.2       1 RES1    0.0000
     10 O10        1.2951   -4.7171    8.2079 O.2       1 RES1    0.0000
     11 N1         0.9544    0.5056    5.6370 N.pl3     1 RES1    1.0000
     12 N2         0.4456    0.4846    4.4621 N.2       1 RES1    0.0000
     13 N3        -0.5683    0.6574    7.4270 N.pl3     1 RES1    1.0000
     14 N4        -0.5266    0.4834    8.6878 N.2       1 RES1    0.0000
     15 N5         1.6642   -3.0439    5.6852 N.pl3     1 RES1    0.0000
     16 N6        -0.4093   -3.2202    6.9577 N.pl3     1 RES1    0.0000
     17 N7         1.7132   -3.5880    8.0985 N.pl3     1 RES1    0.0000
     18 C1         0.1963   -0.3351    6.5896 C.3       1 RES1    0.0000
     19 H1        -0.4410   -0.7940    6.1039 H         1 RES1    0.0000
     20 C2         1.1171   -1.2435    7.3917 C.3       1 RES1    0.0000
     21 H2         2.0810   -0.9574    7.3153 H         1 RES1    0.0000
     22 H3         1.0250   -1.1559    8.3032 H         1 RES1    0.0000
     23 C3         1.0307   -2.7053    7.0401 C.3       1 RES1    0.0000
     24 C4         0.6234    1.2925    2.3475 C.3       1 RES1    0.0000
     25 H4        -0.3290    1.6463    2.4110 H         1 RES1    0.0000
     26 H5         0.5861    0.5021    2.0229 H         1 RES1    0.0000
     27 H6         1.2728    1.7514    1.8582 H         1 RES1    0.0000
     28 C5        -1.2160    1.3171   10.6989 C.3       1 RES1    0.0000
     29 H7        -0.4209    1.3077   10.9494 H         1 RES1    0.0000
     30 H8        -1.7772    0.6305   10.9023 H         1 RES1    0.0000
     31 H9        -1.7672    2.0199   10.9964 H         1 RES1    0.0000
@<TRIPOS>BOND
     1    1   11 1
     2    2   12 1
     3    3   13 1
     4    4   14 1
     5    5   15 2
     6    6   15 2
     7    7   16 2
     8    8   16 2
     9    9   17 2
    10   10   17 2
    11   11   12 2
    12   13   14 2
    13   15   23 1
    14   16   23 1
    15   17   23 1
    16   18   11 1
    17   19   18 1
    18   20   18 1
    19   21   20 1
    20   22   20 1
    21   23   20 1
    22   24    2 1
    23   25   24 1
    24   26   24 1
    25   27   24 1
    26   28    4 1
    27   29   28 1
    28   30   28 1
    29   31   28 1
    30   13   18 1
@<TRIPOS>SUBSTRUCTURE
     1 RES1 1

@<TRIPOS>CRYSIN
   9.5160   11.6760   12.2730  90.0000 106.6100  90.0000  14 1

