# MOL2 file generated by ConQuest
# Please check atom types

@<TRIPOS>MOLECULE
REZBOO
    94    92     3
SMALL
NO_CHARGES
****
Generated from CSD

@<TRIPOS>ATOM
      1 C1        11.1235   13.9992    5.5389 C.ar      1 RES1    0.0000
      2 C2        10.9149   14.7108    4.3726 C.ar      1 RES1    0.0000
      3 C3        10.3146   14.0535    3.3153 C.ar      1 RES1    0.0000
      4 C4         9.9461   12.7216    3.4094 C.ar      1 RES1    0.0000
      5 C5        10.1812   12.0422    4.6085 C.ar      1 RES1    0.0000
      6 C6        10.7694   12.6817    5.6733 C.ar      1 RES1    0.0000
      7 C7         9.2951   12.0789    2.2251 C.3       1 RES1    0.0000
      8 O1         9.1667   10.6667    2.4717 O.3       1 RES1    0.0000
      9 C8         8.5382    9.9952    1.5158 C.2       1 RES1    0.0000
     10 O2         8.1314   10.4619    0.4838 O.2       1 RES1    0.0000
     11 C9         8.6112    8.4743    1.7592 C.3       1 RES1    0.0000
     12 N1         8.3149    8.1095    3.1211 N.am      1 RES1    0.0000
     13 C10        7.2076    8.7206    3.6752 C.2       1 RES1    0.0000
     14 C11        6.7898    8.3082    5.0640 C.3       1 RES1    0.0000
     15 C12        7.1760    6.8752    5.4314 C.3       1 RES1    0.0000
     16 C13        8.6246    6.7061    5.1581 C.3       1 RES1    0.0000
     17 C14        8.9287    6.8904    3.6826 C.3       1 RES1    0.0000
     18 O3         6.6192    9.6078    3.0659 O.2       1 RES1    0.0000
     19 C15        9.9708    8.0198    1.1917 C.3       1 RES1    0.0000
     20 C16        9.6590    7.8708   -0.2972 C.3       1 RES1    0.0000
     21 C17        8.1991    7.6413   -0.3494 C.2       1 RES1    0.0000
     22 O4         7.6308    7.8712    0.8751 O.3       1 RES1    0.0000
     23 O5         7.5240    7.2963   -1.2798 O.2       1 RES1    0.0000
     24 N2        11.7876   14.6503    6.6783 N.pl3     1 RES1    0.0000
     25 O6        11.8355   14.0662    7.7416 O.2       1 RES1    0.0000
     26 O7        12.2982   15.7329    6.5141 O.2       1 RES1    0.0000
     27 H1        11.1733   15.6080    4.3128 H         1 RES1    0.0000
     28 H2        10.1631   14.5205    2.5178 H         1 RES1    0.0000
     29 H3         9.9369   11.1430    4.6847 H         1 RES1    0.0000
     30 H4        10.9304   12.2257    6.4797 H         1 RES1    0.0000
     31 H5         9.8278   12.2452    1.4172 H         1 RES1    0.0000
     32 H6         8.4101   12.4671    2.0788 H         1 RES1    0.0000
     33 H7         7.2088    8.9007    5.6897 H         1 RES1    0.0000
     34 H8         5.8201    8.3962    5.1058 H         1 RES1    0.0000
     35 H9         6.9844    6.7158    6.3602 H         1 RES1    0.0000
     36 H10        6.6814    6.2516    4.8609 H         1 RES1    0.0000
     37 H11        9.1225    7.3750    5.6643 H         1 RES1    0.0000
     38 H12        8.9147    5.8062    5.4329 H         1 RES1    0.0000
     39 H13        9.8939    6.9420    3.5826 H         1 RES1    0.0000
     40 H14        8.5727    6.1436    3.1480 H         1 RES1    0.0000
     41 H15       10.6693    8.6740    1.3784 H         1 RES1    0.0000
     42 H16       10.2515    7.1550    1.5606 H         1 RES1    0.0000
     43 H17        9.8531    8.7030   -0.7527 H         1 RES1    0.0000
     44 H18       10.1287    7.1615   -0.7362 H         1 RES1    0.0000
     45 N3         2.3994    8.7979    6.6574 N.pl3     2 RES2    0.0000
     46 O8         1.8889    8.1795    7.5684 O.2       2 RES2    0.0000
     47 O9         2.5943   10.0220    6.6813 O.2       2 RES2    0.0000
     48 C18        2.8935    8.0662    5.4836 C.ar      2 RES2    0.0000
     49 C19        3.1101    6.7143    5.5956 C.ar      2 RES2    0.0000
     50 C20        3.6510    6.0264    4.5219 C.ar      2 RES2    0.0000
     51 C21        3.9524    6.6978    3.3436 C.ar      2 RES2    0.0000
     52 C22        4.5921    6.0167    2.1654 C.3       2 RES2    0.0000
     53 O10        4.7310    4.6156    2.4660 O.3       2 RES2    0.0000
     54 C23        5.3885    3.9304    1.5352 C.2       2 RES2    0.0000
     55 C24        5.3350    2.4200    1.8085 C.3       2 RES2    0.0000
     56 N4         5.6492    2.0662    3.1764 N.am      2 RES2    0.0000
     57 C25        6.6691    2.7759    3.7633 C.2       2 RES2    0.0000
     58 O11        7.2576    3.6520    3.1480 O.2       2 RES2    0.0000
     59 C26        7.0253    2.4589    5.1999 C.3       2 RES2    0.0000
     60 C27        5.0975    0.8152    3.7185 C.3       2 RES2    0.0000
     61 O12        6.3047    1.8056    0.9115 O.3       2 RES2    0.0000
     62 C28        5.7263    1.5748   -0.3017 C.2       2 RES2    0.0000
     63 C29        4.2571    1.7906   -0.2195 C.3       2 RES2    0.0000
     64 C30        3.9752    1.9435    1.2783 C.3       2 RES2    0.0000
     65 O13        6.3892    1.2344   -1.2425 O.2       2 RES2    0.0000
     66 O14        5.8101    4.3778    0.5025 O.2       2 RES2    0.0000
     67 C31        3.6786    8.0584    3.2391 C.ar      2 RES2    0.0000
     68 C32        3.1610    8.7584    4.3143 C.ar      2 RES2    0.0000
     69 H19        2.8961    6.2735    6.3797 H         2 RES2    0.0000
     70 H20        3.8283    5.1064    4.5876 H         2 RES2    0.0000
     71 H21        5.4593    6.3971    1.9966 H         2 RES2    0.0000
     72 H22        4.0378    6.1343    1.3829 H         2 RES2    0.0000
     73 H23        6.7512    3.1991    5.7554 H         2 RES2    0.0000
     74 H24        7.9908    2.3768    5.2880 H         2 RES2    0.0000
     75 H25        4.1271    0.8665    3.7409 H         2 RES2    0.0000
     76 H26        5.3494    0.0896    3.1241 H         2 RES2    0.0000
     77 H27        4.0357    2.6088   -0.7034 H         2 RES2    0.0000
     78 H28        3.7929    1.0451   -0.6138 H         2 RES2    0.0000
     79 H29        3.7210    1.0839    1.6606 H         2 RES2    0.0000
     80 H30        3.2717    2.5880    1.4665 H         2 RES2    0.0000
     81 H31        3.8535    8.5020    2.4222 H         2 RES2    0.0000
     82 H32        3.0076    9.6813    4.2621 H         2 RES2    0.0000
     83 C33        6.0943    1.5135    5.9316 C.3       2 RES2    0.0000
     84 C34        5.9266    0.3470    4.9610 C.3       2 RES2    0.0000
     85 H33        6.4763    1.2276    6.7769 H         2 RES2    0.0000
     86 H34        5.2420    1.9554    6.0765 H         2 RES2    0.0000
     87 H35        5.4514   -0.3710    5.4015 H         2 RES2    0.0000
     88 H36        6.7943    0.0329    4.6802 H         2 RES2    0.0000
     89 C35        6.7116    0.9463    5.5284 Du        3 SUP3    0.0000
     90 C36        5.2582    0.6128    5.2417 Du        3 SUP3    0.0000
     91 H37        6.9049    0.7738    6.4633 Du        3 SUP3    0.0000
     92 H38        7.2692    0.3762    4.9714 Du        3 SUP3    0.0000
     93 H39        4.6753    1.2196    5.7271 Du        3 SUP3    0.0000
     94 H40        5.0523   -0.2998    5.4941 Du        3 SUP3    0.0000
@<TRIPOS>BOND
     1    1    2 ar
     2    2    3 ar
     3    3    4 ar
     4    4    5 ar
     5    5    6 ar
     6    6    1 ar
     7    7    4 1
     8    8    7 1
     9    9    8 1
    10   10    9 2
    11   11    9 1
    12   12   11 1
    13   13   12 1
    14   14   13 1
    15   15   14 1
    16   16   15 1
    17   17   12 1
    18   18   13 2
    19   19   11 1
    20   20   19 1
    21   21   20 1
    22   22   11 1
    23   23   21 2
    24   24    1 1
    25   25   24 2
    26   26   24 2
    27   27    2 1
    28   28    3 1
    29   29    5 1
    30   30    6 1
    31   31    7 1
    32   32    7 1
    33   33   14 1
    34   34   14 1
    35   35   15 1
    36   36   15 1
    37   37   16 1
    38   38   16 1
    39   39   17 1
    40   40   17 1
    41   41   19 1
    42   42   19 1
    43   43   20 1
    44   44   20 1
    45   45   46 2
    46   47   45 2
    47   48   45 1
    48   49   48 ar
    49   50   49 ar
    50   51   50 ar
    51   52   51 1
    52   53   52 1
    53   54   53 1
    54   55   54 1
    55   56   55 1
    56   57   56 1
    57   58   57 2
    58   59   57 1
    59   60   56 1
    60   61   55 1
    61   62   61 1
    62   63   62 1
    63   64   55 1
    64   65   62 2
    65   66   54 2
    66   67   51 ar
    67   68   48 ar
    68   69   49 1
    69   70   50 1
    70   71   52 1
    71   72   52 1
    72   73   59 1
    73   74   59 1
    74   75   60 1
    75   76   60 1
    76   77   63 1
    77   78   63 1
    78   79   64 1
    79   80   64 1
    80   81   67 1
    81   82   68 1
    82   83   59 1
    83   84   60 1
    84   85   83 1
    85   86   83 1
    86   87   84 1
    87   88   84 1
    88   16   17 1
    89   21   22 1
    90   63   64 1
    91   67   68 ar
    92   83   84 1
@<TRIPOS>SUBSTRUCTURE
     1 RES1 1
     2 RES2 45
     3 SUP3 89

@<TRIPOS>CRYSIN
   9.2366   12.0658   15.0535  88.4160  82.9330  89.6630   2 1

