# MOL2 file generated by ConQuest
# Please check atom types

@<TRIPOS>MOLECULE
REZFUA
    31    32     1
SMALL
NO_CHARGES
****
Generated from CSD

@<TRIPOS>ATOM
      1 C1         4.4044    7.7967    3.8312 C.ar      1 RES1    0.0000
      2 C2         4.0878    8.8692    4.6474 C.ar      1 RES1    0.0000
      3 H1         3.5294    9.5436    4.3325 H         1 RES1    0.0000
      4 C3         4.5957    8.9414    5.9233 C.ar      1 RES1    0.0000
      5 H2         4.3690    9.6565    6.4725 H         1 RES1    0.0000
      6 C4         5.4359    7.9600    6.3870 C.ar      1 RES1    0.0000
      7 H3         5.7897    8.0205    7.2444 H         1 RES1    0.0000
      8 C5         5.7531    6.8939    5.5917 C.ar      1 RES1    0.0000
      9 H4         6.3240    6.2323    5.9093 H         1 RES1    0.0000
     10 C6         5.2309    6.7981    4.3247 C.ar      1 RES1    0.0000
     11 H5         5.4334    6.0608    3.7949 H         1 RES1    0.0000
     12 C7         3.7735    7.6403    2.4911 C.2       1 RES1    0.0000
     13 C8         4.4996    9.8736    1.7883 C.ar      1 RES1    0.0000
     14 C9         5.8563    9.7433    2.0291 C.ar      1 RES1    0.0000
     15 H6         6.2303    8.8960    2.1159 H         1 RES1    0.0000
     16 C10        6.6520   10.8521    2.1403 C.ar      1 RES1    0.0000
     17 H7         7.5585   10.7660    2.3247 H         1 RES1    0.0000
     18 C11        6.0877   12.0934    1.9758 C.ar      1 RES1    0.0000
     19 C12        4.7576   12.2477    1.7025 C.ar      1 RES1    0.0000
     20 H8         4.3971   13.0969    1.5813 H         1 RES1    0.0000
     21 C13        3.9624   11.1362    1.6084 C.ar      1 RES1    0.0000
     22 H9         3.0554   11.2300    1.4221 H         1 RES1    0.0000
     23 C14        2.7424    8.6630    0.5459 C.3       1 RES1    0.0000
     24 H10        2.5716    7.7432    0.3289 H         1 RES1    0.0000
     25 H11        3.1302    9.1048   -0.2132 H         1 RES1    0.0000
     26 H12        1.9168    9.0937    0.7809 H         1 RES1    0.0000
     27 N1         3.6700    8.7333    1.6785 N.am      1 RES1    0.0000
     28 N2         6.9312   13.2789    2.0876 N.pl3     1 RES1    0.0000
     29 O1         6.4168   14.3664    1.8805 O.2       1 RES1    0.0000
     30 O2         8.1052   13.1351    2.3789 O.2       1 RES1    0.0000
     31 O3         3.2948    6.5697    2.1610 O.2       1 RES1    0.0000
@<TRIPOS>BOND
     1    1    2 ar
     2    2    3 1
     3    4    2 ar
     4    5    4 1
     5    6    4 ar
     6    7    6 1
     7    8    6 ar
     8    9    8 1
     9   10    1 ar
    10   11   10 1
    11   12    1 1
    12   13   14 ar
    13   14   15 1
    14   16   14 ar
    15   17   16 1
    16   18   16 ar
    17   19   18 ar
    18   20   19 1
    19   21   13 ar
    20   22   21 1
    21   23   24 1
    22   25   23 1
    23   26   23 1
    24   27   12 1
    25   28   18 1
    26   29   28 2
    27   30   28 2
    28   31   12 2
    29    8   10 ar
    30   13   27 1
    31   19   21 ar
    32   23   27 1
@<TRIPOS>SUBSTRUCTURE
     1 RES1 1

@<TRIPOS>CRYSIN
  16.9207   10.0862   15.8646  90.0000 108.8100  90.0000  15 1

