# MOL2 file generated by ConQuest
# Please check atom types

@<TRIPOS>MOLECULE
REZHAI
    74    81     1
SMALL
NO_CHARGES
****
Generated from CSD

@<TRIPOS>ATOM
      1 O1         6.6882    1.8955    7.4055 O.3       1 RES1    0.0000
      2 O2         7.5577    3.5973    4.9912 O.3       1 RES1    0.0000
      3 O3        11.0885    2.7752    3.1016 O.2       1 RES1    0.0000
      4 O4        11.4810    4.8741    3.4222 O.2       1 RES1    0.0000
      5 N1         7.0150    0.2856    2.8374 N.3       1 RES1    0.0000
      6 N2        10.0656   -0.4828    2.4040 N.ar      1 RES1    0.0000
      7 N3        10.7759    0.9589    0.0286 N.ar      1 RES1    0.0000
      8 N4         7.8274    4.9708    5.2511 N.2       1 RES1    0.0000
      9 N5        10.7749    3.8802    3.5150 N.pl3     1 RES1    0.0000
     10 C1         8.1670    1.1619    2.6204 C.3       1 RES1    0.0000
     11 C2         7.1675   -0.3829    4.1277 C.3       1 RES1    0.0000
     12 C3         7.5791    0.8047    5.0153 C.3       1 RES1    0.0000
     13 C4         8.5536    1.5872    4.0991 C.3       1 RES1    0.0000
     14 C5         8.6004    3.0470    4.3613 C.2       1 RES1    0.0000
     15 C6         9.0109    5.2076    4.7564 C.2       1 RES1    0.0000
     16 C7         9.5207    4.0247    4.1654 C.2       1 RES1    0.0000
     17 C8         9.6269    6.5570    4.9280 C.3       1 RES1    0.0000
     18 C9         9.3913    0.5292    1.9531 C.ar      1 RES1    0.0000
     19 C10       11.1745   -0.8186    1.6529 C.ar      1 RES1    0.0000
     20 C11       11.9670   -1.9109    2.0473 C.ar      1 RES1    0.0000
     21 C12       13.0873   -2.2429    1.3392 C.ar      1 RES1    0.0000
     22 C13       13.4612   -1.4894    0.2246 C.ar      1 RES1    0.0000
     23 C14       12.7086   -0.4496   -0.2062 C.ar      1 RES1    0.0000
     24 C15       11.5338   -0.0853    0.4954 C.ar      1 RES1    0.0000
     25 C16        9.7250    1.2396    0.7603 C.ar      1 RES1    0.0000
     26 C17        8.7316    2.2956    0.5639 C.ar      1 RES1    0.0000
     27 C18        8.5763    3.1931   -0.4907 C.ar      1 RES1    0.0000
     28 C19        7.5234    4.0716   -0.4461 C.ar      1 RES1    0.0000
     29 C20        6.6367    4.0591    0.6108 C.ar      1 RES1    0.0000
     30 C21        6.7832    3.1557    1.6601 C.ar      1 RES1    0.0000
     31 C22        7.8398    2.2711    1.6317 C.ar      1 RES1    0.0000
     32 C23        5.8919   -1.0875    4.5399 C.ar      1 RES1    0.0000
     33 C24        5.9100   -2.4105    4.9417 C.ar      1 RES1    0.0000
     34 C25        4.7442   -3.0620    5.3229 C.ar      1 RES1    0.0000
     35 C26        3.5469   -2.3917    5.3026 C.ar      1 RES1    0.0000
     36 C27        3.5150   -1.0710    4.9123 C.ar      1 RES1    0.0000
     37 C28        4.6845   -0.4236    4.5509 C.ar      1 RES1    0.0000
     38 C29        8.1927    0.4409    6.3462 C.ar      1 RES1    0.0000
     39 C30        9.2745   -0.4270    6.4258 C.ar      1 RES1    0.0000
     40 C31        9.8651   -0.7546    7.6331 C.ar      1 RES1    0.0000
     41 C32        9.3647   -0.2019    8.7964 C.ar      1 RES1    0.0000
     42 C33        8.3009    0.6786    8.7589 C.ar      1 RES1    0.0000
     43 C34        7.7202    1.0123    7.5430 C.ar      1 RES1    0.0000
     44 C35        6.3110    2.6811    8.5396 C.3       1 RES1    0.0000
     45 C36        5.2948    3.6802    8.0542 C.3       1 RES1    0.0000
     46 H1         6.8707   -0.3226    2.1290 H         1 RES1    0.0000
     47 H2         7.9103   -1.0408    4.1287 H         1 RES1    0.0000
     48 H3         6.7561    1.3561    5.1467 H         1 RES1    0.0000
     49 H4         9.4523    1.2583    4.2476 H         1 RES1    0.0000
     50 H5         9.0350    7.0774    5.5980 H         1 RES1    0.0000
     51 H6        10.5249    6.4945    5.1674 H         1 RES1    0.0000
     52 H7         9.5271    6.9213    3.9961 H         1 RES1    0.0000
     53 H8        11.6955   -2.4563    2.8162 H         1 RES1    0.0000
     54 H9        13.6297   -3.0391    1.6312 H         1 RES1    0.0000
     55 H10       14.3193   -1.7902   -0.2928 H         1 RES1    0.0000
     56 H11       12.9413    0.0729   -0.9456 H         1 RES1    0.0000
     57 H12        9.1735    3.2473   -1.2350 H         1 RES1    0.0000
     58 H13        7.4207    4.7356   -1.1489 H         1 RES1    0.0000
     59 H14        5.8838    4.6627    0.6270 H         1 RES1    0.0000
     60 H15        6.1806    3.1224    2.3753 H         1 RES1    0.0000
     61 H16        6.7938   -2.8205    4.8194 H         1 RES1    0.0000
     62 H17        4.7794   -3.9862    5.6497 H         1 RES1    0.0000
     63 H18        2.6862   -2.8830    5.6755 H         1 RES1    0.0000
     64 H19        2.6463   -0.5828    4.9607 H         1 RES1    0.0000
     65 H20        4.6879    0.5308    4.2545 H         1 RES1    0.0000
     66 H21        9.6317   -0.7806    5.6014 H         1 RES1    0.0000
     67 H22       10.5453   -1.4051    7.7063 H         1 RES1    0.0000
     68 H23        9.7876   -0.4892    9.6613 H         1 RES1    0.0000
     69 H24        7.9484    1.0408    9.6182 H         1 RES1    0.0000
     70 H25        5.8964    1.9983    9.2668 H         1 RES1    0.0000
     71 H26        7.1883    3.1640    8.8810 H         1 RES1    0.0000
     72 H27        4.4457    3.0807    7.5272 H         1 RES1    0.0000
     73 H28        5.0817    4.2152    8.9051 H         1 RES1    0.0000
     74 H29        5.6530    4.2152    7.2619 H         1 RES1    0.0000
@<TRIPOS>BOND
     1    1   43 1
     2    2    8 1
     3    3    9 2
     4    4    9 2
     5    5   10 1
     6    6   18 ar
     7    7   24 ar
     8    8   15 2
     9    9   16 1
    10   10   13 1
    11   11    5 1
    12   12   11 1
    13   13   12 1
    14   14    2 1
    15   15   16 1
    16   16   14 2
    17   17   15 1
    18   18   10 1
    19   19    6 ar
    20   20   19 ar
    21   21   20 ar
    22   22   21 ar
    23   23   22 ar
    24   24   19 ar
    25   25    7 ar
    26   26   25 1
    27   27   26 ar
    28   28   27 ar
    29   29   28 ar
    30   30   29 ar
    31   31   10 1
    32   32   11 1
    33   33   32 ar
    34   34   33 ar
    35   35   34 ar
    36   36   35 ar
    37   37   32 ar
    38   38   12 1
    39   39   38 ar
    40   40   39 ar
    41   41   40 ar
    42   42   41 ar
    43   43   38 ar
    44   44    1 1
    45   45   44 1
    46   46    5 1
    47   47   11 1
    48   48   12 1
    49   49   13 1
    50   50   17 1
    51   51   17 1
    52   52   17 1
    53   53   20 1
    54   54   21 1
    55   55   22 1
    56   56   23 1
    57   57   27 1
    58   58   28 1
    59   59   29 1
    60   60   30 1
    61   61   33 1
    62   62   34 1
    63   63   35 1
    64   64   36 1
    65   65   37 1
    66   66   39 1
    67   67   40 1
    68   68   41 1
    69   69   42 1
    70   70   44 1
    71   71   44 1
    72   72   45 1
    73   73   45 1
    74   74   45 1
    75   13   14 1
    76   18   25 ar
    77   23   24 ar
    78   26   31 ar
    79   30   31 ar
    80   36   37 ar
    81   42   43 ar
@<TRIPOS>SUBSTRUCTURE
     1 RES1 1

@<TRIPOS>CRYSIN
  17.3190   10.4079   17.7230  90.0000 103.6200  90.0000 231 1

