# MOL2 file generated by ConQuest
# Please check atom types

@<TRIPOS>MOLECULE
REZNER
    32    33     1
SMALL
NO_CHARGES
****
Generated from CSD

@<TRIPOS>ATOM
      1 O1         7.9154    5.0505    6.4323 O.2       1 RES1    0.0000
      2 O2        11.7752   -3.6739   10.1985 O.2       1 RES1    0.0000
      3 O3        13.0212   -2.7658   11.7160 O.2       1 RES1    0.0000
      4 N1         9.5166    2.5973    8.3132 N.2       1 RES1    0.0000
      5 N2         9.2457    3.8614    7.8331 N.am      1 RES1    0.0000
      6 N3        12.2046   -2.6926   10.8054 N.pl3     1 RES1    0.0000
      7 N4         8.2341    1.7482    5.8420 N.ar      1 RES1    0.0000
      8 N5         5.4374    1.6299    6.1415 N.ar      1 RES1    0.0000
      9 C1        10.4569    2.4701    9.1688 C.2       1 RES1    0.0000
     10 H1        10.9025    3.2375    9.5084 H         1 RES1    0.0000
     11 C2         8.2493    3.9698    6.9011 C.2       1 RES1    0.0000
     12 C3        10.8451    1.1278    9.6239 C.ar      1 RES1    0.0000
     13 C4        10.2584   -0.0287    9.0901 C.ar      1 RES1    0.0000
     14 H2         9.5537    0.0495    8.4574 H         1 RES1    0.0000
     15 C5        10.6964   -1.2800    9.4769 C.ar      1 RES1    0.0000
     16 H3        10.3076   -2.0663    9.1111 H         1 RES1    0.0000
     17 C6        11.7190   -1.3619   10.4117 C.ar      1 RES1    0.0000
     18 C7        12.3056   -0.2444   10.9898 C.ar      1 RES1    0.0000
     19 H4        12.9862   -0.3310   11.6459 H         1 RES1    0.0000
     20 C8        11.8610    1.0045   10.5744 C.ar      1 RES1    0.0000
     21 H5        12.2537    1.7869   10.9424 H         1 RES1    0.0000
     22 C9         7.5392    2.7116    6.4564 C.ar      1 RES1    0.0000
     23 C10        6.1562    2.6601    6.5976 C.ar      1 RES1    0.0000
     24 H6         5.7103    3.3777    7.0305 H         1 RES1    0.0000
     25 C11        6.1341    0.6631    5.5373 C.ar      1 RES1    0.0000
     26 H7         5.6674   -0.0928    5.1992 H         1 RES1    0.0000
     27 C12        7.5097    0.7193    5.3846 C.ar      1 RES1    0.0000
     28 H8         7.9534    0.0053    4.9415 H         1 RES1    0.0000
     29 C13        9.9912    5.0352    8.2712 C.3       1 RES1    0.0000
     30 H9         9.6699    5.8256    7.7881 H         1 RES1    0.0000
     31 H10       10.9449    4.9042    8.0858 H         1 RES1    0.0000
     32 H11        9.8600    5.1656    9.2335 H         1 RES1    0.0000
@<TRIPOS>BOND
     1    1   11 2
     2    2    6 2
     3    3    6 2
     4    4    5 1
     5    5   11 1
     6    6   17 1
     7    7   22 ar
     8    8   23 ar
     9    9    4 2
    10   10    9 1
    11   11   22 1
    12   12    9 1
    13   13   12 ar
    14   14   13 1
    15   15   13 ar
    16   16   15 1
    17   17   15 ar
    18   18   17 ar
    19   19   18 1
    20   20   12 ar
    21   21   20 1
    22   22   23 ar
    23   23   24 1
    24   25    8 ar
    25   26   25 1
    26   27    7 ar
    27   28   27 1
    28   29    5 1
    29   30   29 1
    30   31   29 1
    31   32   29 1
    32   18   20 ar
    33   25   27 ar
@<TRIPOS>SUBSTRUCTURE
     1 RES1 1

@<TRIPOS>CRYSIN
  17.5100   10.5421   14.9638  90.0000 107.8870  90.0000  15 1

