# MOL2 file generated by ConQuest
# Please check atom types

@<TRIPOS>MOLECULE
REZROG
    38    40     2
SMALL
NO_CHARGES
****
Generated from CSD

@<TRIPOS>ATOM
      1 C1         6.7574    5.4895    4.1891 C.ar      1 RES1    0.0000
      2 C2         5.5460    5.2571    3.5157 C.ar      1 RES1    0.0000
      3 C3         4.8501    4.0806    3.7963 C.ar      1 RES1    0.0000
      4 H1         4.0339    3.8945    3.3472 H         1 RES1    0.0000
      5 C4         5.3409    3.1945    4.7180 C.ar      1 RES1    0.0000
      6 H2         4.8427    2.4105    4.9171 H         1 RES1    0.0000
      7 C5         6.5633    3.4137    5.3774 C.ar      1 RES1    0.0000
      8 C6         7.3094    4.5585    5.1065 C.ar      1 RES1    0.0000
      9 C7         8.6932    4.7052    5.7414 C.3       1 RES1    0.0000
     10 H3         9.3438    4.9880    5.0500 H         1 RES1    0.0000
     11 H4         8.6618    5.4078    6.4380 H         1 RES1    0.0000
     12 C8         8.0550    2.9397    7.1783 C.3       1 RES1    0.0000
     13 H5         8.3912    2.2118    7.7590 H         1 RES1    0.0000
     14 N1         7.4495    6.7409    3.9507 N.pl3     1 RES1    0.0000
     15 N2         6.9692    2.4383    6.3442 N.3       1 RES1    0.0000
     16 O1         8.3171    7.1112    4.7262 O.2       1 RES1    0.0000
     17 O2         7.1303    7.4179    2.9479 O.2       1 RES1    0.0000
     18 O3         4.9738    6.1105    2.6347 O.3       1 RES1    0.0000
     19 H6         5.5741    6.7671    2.5080 H         1 RES1    0.0000
     20 H7         8.3912    2.2118    7.7590 Du        2 SUP2    0.0000
     21 H5A        7.7188    3.6675    7.7590 H         1 RES1    0.0000
     22 C1A        9.3526    0.3898    4.1891 C.ar      1 RES1    0.0000
     23 C2A       10.5640    0.6223    3.5157 C.ar      1 RES1    0.0000
     24 C3A       11.2599    1.7987    3.7963 C.ar      1 RES1    0.0000
     25 H1A       12.0761    1.9849    3.3472 H         1 RES1    0.0000
     26 C4A       10.7691    2.6849    4.7180 C.ar      1 RES1    0.0000
     27 H2A       11.2673    3.4688    4.9171 H         1 RES1    0.0000
     28 C5A        9.5467    2.4657    5.3774 C.ar      1 RES1    0.0000
     29 C6A        8.8006    1.3209    5.1065 C.ar      1 RES1    0.0000
     30 C7A        7.4168    1.1741    5.7414 C.3       1 RES1    0.0000
     31 H3A        6.7662    0.8913    5.0500 H         1 RES1    0.0000
     32 H4A        7.4482    0.4715    6.4380 H         1 RES1    0.0000
     33 N1A        8.6605   -0.8616    3.9507 N.pl3     1 RES1    0.0000
     34 N2A        9.1408    3.4411    6.3442 N.3       1 RES1    0.0000
     35 O1A        7.7929   -1.2318    4.7262 O.2       1 RES1    0.0000
     36 O2A        8.9797   -1.5385    2.9479 O.2       1 RES1    0.0000
     37 O3A       11.1362   -0.2312    2.6347 O.3       1 RES1    0.0000
     38 H6A       10.5359   -0.8878    2.5080 H         1 RES1    0.0000
@<TRIPOS>BOND
     1    1    2 ar
     2    2    3 ar
     3    3    4 1
     4    5    3 ar
     5    6    5 1
     6    7    5 ar
     7    8    1 ar
     8    9    8 1
     9   10    9 1
    10   11    9 1
    11   12   13 1
    12   14    1 1
    13   15    7 1
    14   16   14 2
    15   17   14 2
    16   18    2 1
    17   19   18 1
    18   21   12 1
    19   22   23 ar
    20   23   24 ar
    21   24   25 1
    22   26   24 ar
    23   27   26 1
    24   28   26 ar
    25   29   22 ar
    26   30   15 1
    27   31   30 1
    28   32   30 1
    29   33   22 1
    30   34    9 1
    31   35   33 2
    32   36   33 2
    33   37   23 1
    34   38   37 1
    35    7    8 ar
    36   12   15 1
    37   12   34 1
    38   28   29 ar
    39   28   34 1
    40   29   30 1
@<TRIPOS>SUBSTRUCTURE
     1 RES1 1
     2 SUP2 20

@<TRIPOS>CRYSIN
  10.7400   11.7587   10.6361  90.0000  90.0000  90.0000  56 1

