# MOL2 file generated by ConQuest
# Please check atom types

@<TRIPOS>MOLECULE
REZROD
    21    23     1
SMALL
NO_CHARGES
****
Generated from CSD

@<TRIPOS>ATOM
      1 O1         5.3536    0.2610   16.4529 O.3       1 RES1    0.0000
      2 O2         1.9885    1.8921   18.0885 O.2       1 RES1    0.0000
      3 O3        10.5081    0.0729   16.9071 O.2       1 RES1    0.0000
      4 O4        11.1218    1.0900   18.6861 O.2       1 RES1    0.0000
      5 N1        10.2915    0.5143   18.0128 N.pl3     1 RES1    0.0000
      6 C1         6.6033    0.3838   18.4411 C.ar      1 RES1    0.0000
      7 C2         7.8302    0.6448   17.8315 C.ar      1 RES1    0.0000
      8 C3         5.3025    0.6601   17.7677 C.2       1 RES1    0.0000
      9 C4         8.9573    0.3186   18.6044 C.ar      1 RES1    0.0000
     10 C5         4.2158    1.1706   18.3176 C.2       1 RES1    0.0000
     11 C6         8.9012   -0.1919   19.8734 C.ar      1 RES1    0.0000
     12 C7         2.9929    1.4047   17.5805 C.2       1 RES1    0.0000
     13 C8         7.6883   -0.4145   20.4471 C.ar      1 RES1    0.0000
     14 C9         2.0181    1.2627   15.2776 C.ar      1 RES1    0.0000
     15 C10        2.1569    0.9441   13.9389 C.ar      1 RES1    0.0000
     16 C11        6.5365   -0.1382   19.7260 C.ar      1 RES1    0.0000
     17 C12        3.3509    0.4299   13.4727 C.ar      1 RES1    0.0000
     18 C13        4.4229    0.1804   14.3114 C.ar      1 RES1    0.0000
     19 C14        4.2270    0.5220   15.6581 C.ar      1 RES1    0.0000
     20 C15        3.0719    1.0401   16.1621 C.ar      1 RES1    0.0000
     21 C16        7.9514    1.2934   16.4968 C.3       1 RES1    0.0000
@<TRIPOS>BOND
     1    1    8 1
     2    2   12 2
     3    3    5 2
     4    4    5 2
     5    5    9 1
     6    6    7 ar
     7    7    9 ar
     8    8    6 1
     9    9   11 ar
    10   10    8 2
    11   11   13 ar
    12   12   10 1
    13   13   16 ar
    14   14   15 ar
    15   15   17 ar
    16   16    6 ar
    17   17   18 ar
    18   18   19 ar
    19   19    1 1
    20   20   12 1
    21   21    7 1
    22   14   20 ar
    23   19   20 ar
@<TRIPOS>SUBSTRUCTURE
     1 RES1 1

@<TRIPOS>CRYSIN
  16.6810    3.8380   20.5500  90.0000 104.2100  90.0000 231 1

