# MOL2 file generated by ConQuest
# Please check atom types

@<TRIPOS>MOLECULE
REZYED
    59    62     1
SMALL
NO_CHARGES
****
Generated from CSD

@<TRIPOS>ATOM
      1 N1        11.5296    0.1120    5.6248 N.2       1 RES1    0.0000
      2 O1        11.1626   -0.1780    6.9547 O.3       1 RES1    0.0000
      3 O2        10.6225    0.0530    2.5835 O.3       1 RES1    0.0000
      4 O3        11.4717    2.0103    3.2371 O.2       1 RES1    0.0000
      5 O4        14.7646    0.4312    2.3448 O.2       1 RES1    0.0000
      6 O5        14.3044    1.6348    4.2017 O.3       1 RES1    0.0000
      7 O6        19.0056   -1.0615    4.3741 O.3       1 RES1    0.0000
      8 C1        12.5680   -0.4379    5.1091 C.2       1 RES1    0.0000
      9 C2        13.4674   -1.4893    5.7624 C.3       1 RES1    0.0000
     10 H1        13.1839   -2.3772    5.4017 H         1 RES1    0.0000
     11 C3        13.1782   -1.5094    7.2801 C.3       1 RES1    0.0000
     12 H2        13.5319   -2.3479    7.6702 H         1 RES1    0.0000
     13 H3        13.6432   -0.7503    7.7135 H         1 RES1    0.0000
     14 C4        11.6797   -1.4132    7.5613 C.3       1 RES1    0.0000
     15 C5        10.8710   -2.5880    7.0067 C.3       1 RES1    0.0000
     16 H4         9.9226   -2.4576    7.2117 H         1 RES1    0.0000
     17 H5        11.1831   -3.4210    7.4178 H         1 RES1    0.0000
     18 H6        10.9918   -2.6376    6.0349 H         1 RES1    0.0000
     19 C6        11.4128   -1.2027    9.0551 C.3       1 RES1    0.0000
     20 H7        11.8684   -0.3892    9.3578 H         1 RES1    0.0000
     21 H8        11.7500   -1.9727    9.5594 H         1 RES1    0.0000
     22 H9        10.4488   -1.1114    9.2054 H         1 RES1    0.0000
     23 C7        12.7621   -0.0722    3.6224 C.3       1 RES1    0.0000
     24 C8        11.5687    0.8221    3.1681 C.2       1 RES1    0.0000
     25 C9        11.0305   -1.3567    2.5865 C.3       1 RES1    0.0000
     26 H10       10.6510   -1.8056    3.3960 H         1 RES1    0.0000
     27 C10       12.5562   -1.2975    2.7158 C.3       1 RES1    0.0000
     28 H11       12.9866   -1.1688    1.8339 H         1 RES1    0.0000
     29 H12       12.9137   -2.1195    3.1362 H         1 RES1    0.0000
     30 C11       10.5080   -2.0489    1.3460 C.ar      1 RES1    0.0000
     31 C12       11.1584   -3.2025    0.9001 C.ar      1 RES1    0.0000
     32 H13       11.9354   -3.5091    1.3515 H         1 RES1    0.0000
     33 C13       10.6761   -3.9059   -0.2025 C.ar      1 RES1    0.0000
     34 H14       11.1305   -4.6830   -0.5048 H         1 RES1    0.0000
     35 C14        9.5285   -3.4717   -0.8619 C.ar      1 RES1    0.0000
     36 H15        9.1919   -3.9595   -1.6039 H         1 RES1    0.0000
     37 C15        8.8822   -2.3275   -0.4303 C.ar      1 RES1    0.0000
     38 H16        8.1072   -2.0225   -0.8871 H         1 RES1    0.0000
     39 C16        9.3647   -1.6130    0.6801 C.ar      1 RES1    0.0000
     40 H17        8.9109   -0.8320    0.9767 H         1 RES1    0.0000
     41 C17       14.0739    0.6674    3.3096 C.2       1 RES1    0.0000
     42 C18       15.4933    2.4336    3.9441 C.3       1 RES1    0.0000
     43 H18       15.6236    3.0714    4.6759 H         1 RES1    0.0000
     44 H19       15.3821    2.9221    3.1018 H         1 RES1    0.0000
     45 H20       16.2742    1.8451    3.8799 H         1 RES1    0.0000
     46 C19       14.9547   -1.3349    5.4410 C.ar      1 RES1    0.0000
     47 C20       15.7615   -0.3730    6.0512 C.ar      1 RES1    0.0000
     48 H21       15.3785    0.2118    6.6950 H         1 RES1    0.0000
     49 C21       17.1217   -0.2482    5.7377 C.ar      1 RES1    0.0000
     50 H22       17.6555    0.4058    6.1738 H         1 RES1    0.0000
     51 C22       17.6865   -1.0962    4.7767 C.ar      1 RES1    0.0000
     52 C23       16.8980   -2.0627    4.1644 C.ar      1 RES1    0.0000
     53 H23       17.2776   -2.6388    3.5110 H         1 RES1    0.0000
     54 C24       15.5530   -2.1901    4.5058 C.ar      1 RES1    0.0000
     55 H24       15.0316   -2.8698    4.0965 H         1 RES1    0.0000
     56 C25       19.8536   -0.0906    5.0000 C.3       1 RES1    0.0000
     57 H25       20.7566   -0.1557    4.6251 H         1 RES1    0.0000
     58 H26       19.8859   -0.2578    5.9647 H         1 RES1    0.0000
     59 H27       19.4961    0.8077    4.8372 H         1 RES1    0.0000
@<TRIPOS>BOND
     1    1    2 1
     2    2   14 1
     3    3   24 1
     4    4   24 2
     5    5   41 2
     6    6   41 1
     7    7   51 1
     8    8    1 2
     9    9    8 1
    10   10    9 1
    11   11    9 1
    12   12   11 1
    13   13   11 1
    14   14   11 1
    15   15   14 1
    16   16   15 1
    17   17   15 1
    18   18   15 1
    19   19   14 1
    20   20   19 1
    21   21   19 1
    22   22   19 1
    23   23    8 1
    24   24   23 1
    25   25    3 1
    26   26   25 1
    27   27   23 1
    28   28   27 1
    29   29   27 1
    30   30   25 1
    31   31   30 ar
    32   32   31 1
    33   33   31 ar
    34   34   33 1
    35   35   33 ar
    36   36   35 1
    37   37   35 ar
    38   38   37 1
    39   39   30 ar
    40   40   39 1
    41   41   23 1
    42   42    6 1
    43   43   42 1
    44   44   42 1
    45   45   42 1
    46   46    9 1
    47   47   46 ar
    48   48   47 1
    49   49   47 ar
    50   50   49 1
    51   51   49 ar
    52   52   51 ar
    53   53   52 1
    54   54   46 ar
    55   55   54 1
    56   56    7 1
    57   57   56 1
    58   58   56 1
    59   59   56 1
    60   25   27 1
    61   37   39 ar
    62   52   54 ar
@<TRIPOS>SUBSTRUCTURE
     1 RES1 1

@<TRIPOS>CRYSIN
  11.9593   12.7603   14.9342  90.0000  90.0000  90.0000  19 1

