# MOL2 file generated by ConQuest
# Please check atom types

@<TRIPOS>MOLECULE
REZZAA
    48    49     1
SMALL
NO_CHARGES
****
Generated from CSD

@<TRIPOS>ATOM
      1 O1         1.8374    1.6837    2.5445 O.2       1 RES1    0.0000
      2 C1         1.6357    1.6154    6.9483 C.ar      1 RES1    0.0000
      3 N1         1.6480    2.6763    3.3070 N.pl3     1 RES1    0.0000
      4 C2         1.7108    4.0827    2.8131 C.3       1 RES1    0.0000
      5 C3         0.9471    4.2010    1.5335 C.3       1 RES1    0.0000
      6 H1         0.9891    5.1068    1.2187 H         1 RES1    0.0000
      7 H2         1.3314    3.6154    0.8764 H         1 RES1    0.0000
      8 H3         0.0312    3.9560    1.6828 H         1 RES1    0.0000
      9 C4         3.2119    4.3393    2.5179 C.3       1 RES1    0.0000
     10 H4         3.3253    5.2359    2.1940 H         1 RES1    0.0000
     11 H5         3.7203    4.2247    3.3242 H         1 RES1    0.0000
     12 H6         3.5178    3.7169    1.8540 H         1 RES1    0.0000
     13 C5         1.2327    4.8371    4.0537 C.3       1 RES1    0.0000
     14 C6        -0.2882    5.1639    3.9629 C.3       1 RES1    0.0000
     15 H7        -0.4370    5.8007    3.2599 H         1 RES1    0.0000
     16 H8        -0.7778    4.3600    3.7745 H         1 RES1    0.0000
     17 H9        -0.5870    5.5320    4.7980 H         1 RES1    0.0000
     18 C7         1.9717    6.0899    4.4465 C.3       1 RES1    0.0000
     19 H10        1.8999    6.7379    3.7424 H         1 RES1    0.0000
     20 H11        1.5889    6.4480    5.2506 H         1 RES1    0.0000
     21 H12        2.8963    5.8811    4.5970 H         1 RES1    0.0000
     22 N2         1.3590    3.8445    5.1679 N.2       1 RES1    0.0000
     23 C8         1.5457    2.6624    4.6958 C.2       1 RES1    0.0000
     24 C9         1.6390    1.4591    5.5389 C.ar      1 RES1    0.0000
     25 O2         1.5349    2.8348    7.4990 O.3       1 RES1    0.0000
     26 H13        1.4959    3.5117    6.7886 H         1 RES1    0.0000
     27 C10        1.7352    0.4919    7.8213 C.ar      1 RES1    0.0000
     28 C11        1.7164    0.6427    9.3536 C.3       1 RES1    0.0000
     29 C12        1.7854   -0.7131   10.0428 C.3       1 RES1    0.0000
     30 H14        1.0331   -1.2460    9.7752 H         1 RES1    0.0000
     31 H15        2.5985   -1.1572    9.7924 H         1 RES1    0.0000
     32 H16        1.7677   -0.5902   10.9939 H         1 RES1    0.0000
     33 C13        0.4135    1.3194    9.7970 C.3       1 RES1    0.0000
     34 H17        0.3405    2.1790    9.3777 H         1 RES1    0.0000
     35 H18       -0.3339    0.7743    9.5397 H         1 RES1    0.0000
     36 H19        0.4179    1.4280   10.7504 H         1 RES1    0.0000
     37 C14        2.9342    1.4438    9.8165 C.3       1 RES1    0.0000
     38 H20        2.9253    2.3101    9.4007 H         1 RES1    0.0000
     39 H21        2.9058    1.5464   10.7711 H         1 RES1    0.0000
     40 H22        3.7365    0.9774    9.5696 H         1 RES1    0.0000
     41 C15        1.8676   -0.7389    7.2274 C.ar      1 RES1    0.0000
     42 H23        1.9572   -1.4935    7.7639 H         1 RES1    0.0000
     43 C16        1.8700   -0.8868    5.8467 C.ar      1 RES1    0.0000
     44 N3         2.0294   -2.2079    5.2770 N.pl3     1 RES1    0.0000
     45 O3         2.3198   -3.1388    6.0167 O.2       1 RES1    0.0000
     46 O4         1.8927   -2.3645    4.0835 O.2       1 RES1    0.0000
     47 C17        1.7611    0.1912    4.9956 C.ar      1 RES1    0.0000
     48 H24        1.7687    0.0698    4.0732 H         1 RES1    0.0000
@<TRIPOS>BOND
     1    1    3 1
     2    2   24 ar
     3    3    4 1
     4    4    5 1
     5    5    6 1
     6    7    5 1
     7    8    5 1
     8    9    4 1
     9   10    9 1
    10   11    9 1
    11   12    9 1
    12   13    4 1
    13   14   13 1
    14   15   14 1
    15   16   14 1
    16   17   14 1
    17   18   13 1
    18   19   18 1
    19   20   18 1
    20   21   18 1
    21   22   13 1
    22   23    3 1
    23   24   23 1
    24   25    2 1
    25   26   25 1
    26   27    2 ar
    27   28   27 1
    28   29   28 1
    29   30   29 1
    30   31   29 1
    31   32   29 1
    32   33   28 1
    33   34   33 1
    34   35   33 1
    35   36   33 1
    36   37   28 1
    37   38   37 1
    38   39   37 1
    39   40   37 1
    40   41   27 ar
    41   42   41 1
    42   43   41 ar
    43   44   43 1
    44   45   44 2
    45   46   44 2
    46   47   24 ar
    47   48   47 1
    48   22   23 2
    49   43   47 ar
@<TRIPOS>SUBSTRUCTURE
     1 RES1 1

@<TRIPOS>CRYSIN
   7.1288   21.1550   11.4868  90.0000  90.2500  90.0000 231 1

