# MOL2 file generated by ConQuest
# Please check atom types

@<TRIPOS>MOLECULE
RIBNAU
    28    60     1
SMALL
NO_CHARGES
****
Generated from CSD

@<TRIPOS>ATOM
      1 O1         4.5116    6.7355    5.2108 O.3       1 RES1    0.0000
      2 N1         4.8617    7.8102    4.7009 N.2       1 RES1    0.0000
      3 O2         4.5178    9.0470    5.3986 O.3       1 RES1    0.0000
      4 N2         4.9954   10.1287    4.6482 N.2       1 RES1    0.0000
      5 C1         5.5839    9.6208    3.5878 C.3       1 RES1    0.0000
      6 C2         6.2111   10.2837    2.4819 C.3       1 RES1    0.0000
      7 H1         6.2419   11.2335    2.4449 H         1 RES1    0.0000
      8 N3         6.7283    9.5838    1.5462 N.2       1 RES1    0.0000
      9 O3         7.3423    9.9725    0.6226 O.3       1 RES1    0.0000
     10 N4         6.6597    7.9167    1.5547 N.2       1 RES1    0.0000
     11 O4         7.2086    7.4840    0.4542 O.3       1 RES1    0.0000
     12 C3         6.0466    7.3220    2.6097 C.3       1 RES1    0.0000
     13 H2         5.9736    6.3780    2.6896 H         1 RES1    0.0000
     14 C4         5.5162    8.2209    3.5962 C.3       1 RES1    0.0000
     15 O1F        4.5116   10.6180    5.2108 O.3       1 RES1    0.0000
     16 N1F        4.8617    9.5433    4.7009 N.2       1 RES1    0.0000
     17 O2F        4.5178    8.3065    5.3986 O.3       1 RES1    0.0000
     18 N2F        4.9954    7.2248    4.6482 N.2       1 RES1    0.0000
     19 C1F        5.5839    7.7327    3.5878 C.3       1 RES1    0.0000
     20 C2F        6.2111    7.0698    2.4819 C.3       1 RES1    0.0000
     21 H1F        6.2419    6.1200    2.4449 H         1 RES1    0.0000
     22 N3F        6.7283    7.7697    1.5462 N.2       1 RES1    0.0000
     23 O3F        7.3423    7.3810    0.6226 O.3       1 RES1    0.0000
     24 N4F        6.6597    9.4368    1.5547 N.2       1 RES1    0.0000
     25 O4F        7.2086    9.8695    0.4542 O.3       1 RES1    0.0000
     26 C3F        6.0466   10.0315    2.6097 C.3       1 RES1    0.0000
     27 H2F        5.9736   10.9755    2.6896 H         1 RES1    0.0000
     28 C4F        5.5162    9.1326    3.5962 C.3       1 RES1    0.0000
@<TRIPOS>BOND
     1    1    2 1
     2    2    3 1
     3    3   15 1
     4    4    5 1
     5    5    6 1
     6    6    7 1
     7    7   26 1
     8    8    6 1
     9    9    8 1
    10   10    8 1
    11   11   10 1
    12   12   10 1
    13   13   12 1
    14   14    2 1
    15   15    4 1
    16   16    2 1
    17   17    1 1
    18   18    1 1
    19   19    2 1
    20   20   10 1
    21   21   12 1
    22   22   11 1
    23   23   10 1
    24   24    6 1
    25   25    8 1
    26   26    5 1
    27   27    6 1
    28   28    4 1
    29    2   17 1
    30    2   18 1
    31    3   16 1
    32    3   17 1
    33    4   16 1
    34    5   14 1
    35    5   16 1
    36    6   28 1
    37    8   26 1
    38    9   24 1
    39   10   24 1
    40   12   14 1
    41   12   19 1
    42   12   22 1
    43   13   20 1
    44   14   18 1
    45   14   20 1
    46   14   28 1
    47   15   16 1
    48   16   17 1
    49   16   28 1
    50   18   19 1
    51   19   20 1
    52   19   28 1
    53   20   21 1
    54   20   22 1
    55   22   23 1
    56   22   24 1
    57   24   25 1
    58   24   26 1
    59   26   27 1
    60   26   28 1
@<TRIPOS>SUBSTRUCTURE
     1 RES1 1

@<TRIPOS>CRYSIN
   8.7963   11.5690    6.0563  90.0000  90.0000  90.0000  62 1

