# MOL2 file generated by ConQuest
# Please check atom types

@<TRIPOS>MOLECULE
RICXAE
    33    33     1
SMALL
NO_CHARGES
****
Generated from CSD

@<TRIPOS>ATOM
      1 O1         5.5017   16.7741    6.0976 O.3       1 RES1    0.0000
      2 H1         5.6719   16.7412    6.9205 H         1 RES1    0.0000
      3 O2         3.7508   15.4880    6.6625 O.2       1 RES1    0.0000
      4 O3         2.0451   16.0784    2.1823 O.2       1 RES1    0.0000
      5 O4         3.8079   19.1400    5.0026 O.2       1 RES1    0.0000
      6 O5         7.0671   22.8556    5.3595 O.2       1 RES1    0.0000
      7 O6         8.3874   23.3209    3.7074 O.2       1 RES1    0.0000
      8 O7         8.1347   20.7355   -0.3492 O.2       1 RES1    0.0000
      9 O8         6.4149   19.4297   -0.6290 O.2       1 RES1    0.0000
     10 N1         3.4485   14.4740    1.4108 N.am      1 RES1    0.0000
     11 H2         3.0918   14.5026    0.6072 H         1 RES1    0.0000
     12 H3         4.1101   13.9166    1.5777 H         1 RES1    0.0000
     13 N2         4.5739   17.4413    3.7163 N.am      1 RES1    0.0000
     14 H4         5.0644   17.1999    3.0283 H         1 RES1    0.0000
     15 N3         7.5085   22.6427    4.2465 N.pl3     1 RES1    0.0000
     16 N4         7.1525   20.1452    0.0706 N.pl3     1 RES1    0.0000
     17 C1         4.3426   16.1705    5.8614 C.2       1 RES1    0.0000
     18 C2         3.7955   16.4493    4.4429 C.3       1 RES1    0.0000
     19 H5         2.8685   16.8114    4.5443 H         1 RES1    0.0000
     20 C3         3.6941   15.1434    3.7035 C.3       1 RES1    0.0000
     21 H6         3.2014   14.4938    4.2658 H         1 RES1    0.0000
     22 H7         4.6062   14.7857    3.5597 H         1 RES1    0.0000
     23 C4         2.9950   15.2554    2.3582 C.2       1 RES1    0.0000
     24 C5         4.5392   18.7230    4.1027 C.2       1 RES1    0.0000
     25 C6         5.4785   19.6096    3.3851 C.ar      1 RES1    0.0000
     26 C7         5.9974   20.6982    4.0950 C.ar      1 RES1    0.0000
     27 H8         5.7175   20.8694    4.9872 H         1 RES1    0.0000
     28 C8         6.9210   21.5234    3.4840 C.ar      1 RES1    0.0000
     29 C9         7.3496   21.3610    2.1797 C.ar      1 RES1    0.0000
     30 H9         7.9947   21.9360    1.7856 H         1 RES1    0.0000
     31 C10        6.7790   20.3076    1.4865 C.ar      1 RES1    0.0000
     32 C11        5.8753   19.4385    2.0552 C.ar      1 RES1    0.0000
     33 H10        5.5219   18.7208    1.5443 H         1 RES1    0.0000
@<TRIPOS>BOND
     1    1    2 1
     2    3   17 2
     3    4   23 2
     4    5   24 2
     5    6   15 2
     6    7   15 2
     7    8   16 2
     8    9   16 2
     9   10   11 1
    10   12   10 1
    11   13   14 1
    12   15   28 1
    13   16   31 1
    14   17    1 1
    15   18   13 1
    16   19   18 1
    17   20   18 1
    18   21   20 1
    19   22   20 1
    20   23   10 1
    21   24   13 1
    22   25   24 1
    23   26   25 ar
    24   27   26 1
    25   28   26 ar
    26   29   28 ar
    27   30   29 1
    28   31   29 ar
    29   32   25 ar
    30   33   32 1
    31   17   18 1
    32   20   23 1
    33   31   32 ar
@<TRIPOS>SUBSTRUCTURE
     1 RES1 1

@<TRIPOS>CRYSIN
   4.5830   21.9470   12.8520  90.0000  92.7600  90.0000  14 1

