# MOL2 file generated by ConQuest
# Please check atom types

@<TRIPOS>MOLECULE
RICXIM
    33    33     1
SMALL
NO_CHARGES
****
Generated from CSD

@<TRIPOS>ATOM
      1 O1         2.3815   10.6323    5.8442 O.3       1 RES1    0.0000
      2 H1         1.8036   11.1731    6.1234 H         1 RES1    0.0000
      3 O2         3.7238   11.7148    7.2727 O.2       1 RES1    0.0000
      4 O3         5.8537    7.6293    4.6876 O.2       1 RES1    0.0000
      5 O4         5.5931    7.5997    7.7950 O.2       1 RES1    0.0000
      6 O5         8.3696   12.7649    9.9077 O.2       1 RES1    0.0000
      7 O6        10.3624   12.0778   10.4446 O.2       1 RES1    0.0000
      8 O7        11.1365    7.3108   10.7669 O.2       1 RES1    0.0000
      9 O8         9.9713    6.0125    9.4739 O.2       1 RES1    0.0000
     10 N1         6.9629    9.2498    3.6066 N.am      1 RES1    0.0000
     11 H2         7.5726    8.6831    3.3219 H         1 RES1    0.0000
     12 H3         7.0177   10.1008    3.3898 H         1 RES1    0.0000
     13 N2         5.6078    9.7619    7.1324 N.am      1 RES1    0.0000
     14 H4         6.0034   10.5416    7.2254 H         1 RES1    0.0000
     15 N3         9.2099   11.8834   10.0652 N.pl3     1 RES1    0.0000
     16 N4        10.1974    7.0839   10.0061 N.pl3     1 RES1    0.0000
     17 C1         3.4990   10.7851    6.5332 C.2       1 RES1    0.0000
     18 C2         4.4903    9.6730    6.2280 C.3       1 RES1    0.0000
     19 H5         4.0411    8.7868    6.3406 H         1 RES1    0.0000
     20 C3         4.9324    9.8397    4.7673 C.3       1 RES1    0.0000
     21 H6         4.1424    9.7508    4.1773 H         1 RES1    0.0000
     22 H7         5.3026   10.7490    4.6435 H         1 RES1    0.0000
     23 C4         5.9690    8.8257    4.3572 C.2       1 RES1    0.0000
     24 C5         6.0811    8.7257    7.8432 C.2       1 RES1    0.0000
     25 C6         7.2999    9.0174    8.6714 C.ar      1 RES1    0.0000
     26 C7         7.6439   10.3082    9.0650 C.ar      1 RES1    0.0000
     27 H8         7.0686   11.0416    8.8774 H         1 RES1    0.0000
     28 C8         8.8296   10.5018    9.7289 C.ar      1 RES1    0.0000
     29 C9         9.6865    9.4721   10.0622 C.ar      1 RES1    0.0000
     30 H9        10.5020    9.6285   10.5247 H         1 RES1    0.0000
     31 C10        9.2978    8.2173    9.6920 C.ar      1 RES1    0.0000
     32 C11        8.1173    7.9599    9.0204 C.ar      1 RES1    0.0000
     33 H10        7.8720    7.0682    8.8027 H         1 RES1    0.0000
@<TRIPOS>BOND
     1    1    2 1
     2    3   17 2
     3    4   23 2
     4    5   24 2
     5    6   15 2
     6    7   15 2
     7    8   16 2
     8    9   16 2
     9   10   11 1
    10   12   10 1
    11   13   14 1
    12   15   28 1
    13   16   31 1
    14   17    1 1
    15   18   13 1
    16   19   18 1
    17   20   18 1
    18   21   20 1
    19   22   20 1
    20   23   10 1
    21   24   13 1
    22   25   24 1
    23   26   25 ar
    24   27   26 1
    25   28   26 ar
    26   29   28 ar
    27   30   29 1
    28   31   29 ar
    29   32   25 ar
    30   33   32 1
    31   17   18 1
    32   20   23 1
    33   31   32 ar
@<TRIPOS>SUBSTRUCTURE
     1 RES1 1

@<TRIPOS>CRYSIN
   6.3710    9.2600   22.6290  90.0000  90.0000  90.0000  19 1

