# MOL2 file generated by ConQuest
# Please check atom types

@<TRIPOS>MOLECULE
RIDBUC
    70    76     1
SMALL
NO_CHARGES
****
Generated from CSD

@<TRIPOS>ATOM
      1 O1         2.4998    4.7263   12.2222 O.3       1 RES1    0.0000
      2 O2         4.6475   -4.5203   12.2055 O.3       1 RES1    0.0000
      3 O3         3.6988   -1.1217   12.8226 O.3       1 RES1    0.0000
      4 O4         3.7664    0.3530   15.1036 O.3       1 RES1    0.0000
      5 H1         4.0957    0.2844   15.8730 H         1 RES1    0.0000
      6 O5         6.1367    3.9850   14.2050 O.3       1 RES1    0.0000
      7 O6         5.6146   -2.0199   12.0032 O.2       1 RES1    0.0000
      8 O7         4.6039   -6.7128   12.6183 O.2       1 RES1    0.0000
      9 C1         2.2779    3.4064   11.9866 C.ar      1 RES1    0.0000
     10 C2         1.9613    7.0384   12.2326 C.ar      1 RES1    0.0000
     11 N1         4.9851    4.1791   13.3522 N.2       1 RES1    0.0000
     12 C3         4.4876   -2.1258   12.4077 C.2       1 RES1    0.0000
     13 C4         7.2421    2.0533   15.3705 C.3       1 RES1    0.0000
     14 H2         7.3995    2.5730   16.1982 H         1 RES1    0.0000
     15 H3         8.0847    2.0297   14.8513 H         1 RES1    0.0000
     16 C5         3.7216   -3.4182   12.4974 C.3       1 RES1    0.0000
     17 C6         4.4301    2.9946   13.2751 C.2       1 RES1    0.0000
     18 C7         1.5075    5.6793   11.8093 C.3       1 RES1    0.0000
     19 H4         0.6371    5.4656   12.2305 H         1 RES1    0.0000
     20 H5         1.3950    5.6480   10.8273 H         1 RES1    0.0000
     21 C8         3.2008    7.2639   12.8122 C.ar      1 RES1    0.0000
     22 H6         3.7683    6.5305   13.0144 H         1 RES1    0.0000
     23 C9         1.1807    2.9181   11.3048 C.ar      1 RES1    0.0000
     24 H7         0.5088    3.5045   10.9774 H         1 RES1    0.0000
     25 C10        3.2665    2.5671   12.4890 C.ar      1 RES1    0.0000
     26 C11        2.0308    0.6530   11.6154 C.ar      1 RES1    0.0000
     27 H8         1.9234   -0.2804   11.4841 H         1 RES1    0.0000
     28 C12        1.9101   -3.0730   14.3530 C.3       1 RES1    0.0000
     29 H9         1.4822   -3.5555   15.0911 H         1 RES1    0.0000
     30 H10        1.2660   -2.9515   13.6233 H         1 RES1    0.0000
     31 H11        2.2141   -2.1964   14.6678 H         1 RES1    0.0000
     32 C13        3.1394    1.1512   12.3160 C.ar      1 RES1    0.0000
     33 C14        4.0597   -5.6558   12.7059 C.2       1 RES1    0.0000
     34 C15        1.9151   -4.8596   12.0011 C.3       1 RES1    0.0000
     35 H12        1.9575   -5.5597   11.3027 H         1 RES1    0.0000
     36 H13        0.9671   -4.7047   12.2409 H         1 RES1    0.0000
     37 C16        5.1178    2.0435   14.0382 C.2       1 RES1    0.0000
     38 C17        6.1765    2.6887   14.5719 C.2       1 RES1    0.0000
     39 C18        4.1476   -3.9320   14.9889 C.3       1 RES1    0.0000
     40 H14        4.4093   -3.0221   15.2349 H         1 RES1    0.0000
     41 H15        4.9383   -4.4301   14.6908 H         1 RES1    0.0000
     42 H16        3.7525   -4.3811   15.7645 H         1 RES1    0.0000
     43 C19        3.1135   -3.8791   13.8443 C.3       1 RES1    0.0000
     44 C20        1.0878    1.5512   11.1150 C.ar      1 RES1    0.0000
     45 H17        0.3514    1.2100   10.6209 H         1 RES1    0.0000
     46 C21        4.8112    0.5903   14.1570 C.3       1 RES1    0.0000
     47 C22        6.8123    0.6334   15.7249 C.3       1 RES1    0.0000
     48 H18        6.2081    0.6668   16.5068 H         1 RES1    0.0000
     49 H19        7.6132    0.1118   15.9855 H         1 RES1    0.0000
     50 C23        2.7444   -5.2812   13.2626 C.3       1 RES1    0.0000
     51 C24        1.1541    8.1543   11.9469 C.ar      1 RES1    0.0000
     52 H20        0.3021    8.0150   11.5508 H         1 RES1    0.0000
     53 C25        2.5586   -3.5731   11.5070 C.3       1 RES1    0.0000
     54 H21        1.9316   -2.8103   11.5612 H         1 RES1    0.0000
     55 H22        2.8841   -3.6653   10.5771 H         1 RES1    0.0000
     56 C26        1.5561    9.4329   12.2242 C.ar      1 RES1    0.0000
     57 H23        0.9835   10.1663   12.0345 H         1 RES1    0.0000
     58 C27        3.6185    8.5680   13.0978 C.ar      1 RES1    0.0000
     59 H24        4.4623    8.7112   13.5107 H         1 RES1    0.0000
     60 C28        4.2443    0.2196   12.7914 C.3       1 RES1    0.0000
     61 H25        4.9876    0.2432   12.1242 H         1 RES1    0.0000
     62 C29        2.0845   -6.2716   14.1466 C.3       1 RES1    0.0000
     63 H26        1.9044   -7.0933   13.6420 H         1 RES1    0.0000
     64 H27        1.2401   -5.9009   14.4802 H         1 RES1    0.0000
     65 H28        2.6717   -6.4775   14.9055 H         1 RES1    0.0000
     66 C30        2.8139    9.6486   12.7872 C.ar      1 RES1    0.0000
     67 H29        3.1161   10.5331   12.9540 H         1 RES1    0.0000
     68 C31        6.1019   -0.0941   14.5865 C.3       1 RES1    0.0000
     69 H30        6.7118   -0.1471   13.8067 H         1 RES1    0.0000
     70 H31        5.8965   -1.0198   14.8722 H         1 RES1    0.0000
@<TRIPOS>BOND
     1    1    9 1
     2    2   16 1
     3    3   12 1
     4    4    5 1
     5    6   11 1
     6    7   12 2
     7    8   33 2
     8    9   23 ar
     9   10   18 1
    10   11   17 2
    11   12   16 1
    12   13   14 1
    13   15   13 1
    14   16   43 1
    15   17   25 1
    16   18    1 1
    17   19   18 1
    18   20   18 1
    19   21   10 ar
    20   22   21 1
    21   23   24 1
    22   25    9 ar
    23   26   27 1
    24   28   29 1
    25   30   28 1
    26   31   28 1
    27   32   25 ar
    28   33    2 1
    29   34   35 1
    30   36   34 1
    31   37   17 1
    32   38    6 1
    33   39   40 1
    34   41   39 1
    35   42   39 1
    36   43   28 1
    37   44   23 ar
    38   45   44 1
    39   46    4 1
    40   47   13 1
    41   48   47 1
    42   49   47 1
    43   50   33 1
    44   51   10 ar
    45   52   51 1
    46   53   16 1
    47   54   53 1
    48   55   53 1
    49   56   51 ar
    50   57   56 1
    51   58   21 ar
    52   59   58 1
    53   60    3 1
    54   61   60 1
    55   62   50 1
    56   63   62 1
    57   64   62 1
    58   65   62 1
    59   66   56 ar
    60   67   66 1
    61   68   46 1
    62   69   68 1
    63   70   68 1
    64   13   38 1
    65   26   32 ar
    66   26   44 ar
    67   32   60 1
    68   34   50 1
    69   34   53 1
    70   37   38 2
    71   37   46 1
    72   39   43 1
    73   43   50 1
    74   46   60 1
    75   47   68 1
    76   58   66 ar
@<TRIPOS>SUBSTRUCTURE
     1 RES1 1

@<TRIPOS>CRYSIN
   6.3206   19.6110   20.8498  90.0000  90.0000  90.0000  19 1

