# MOL2 file generated by ConQuest
# Please check atom types

@<TRIPOS>MOLECULE
RIDSIH
    43    47     1
SMALL
NO_CHARGES
****
Generated from CSD

@<TRIPOS>ATOM
      1 C1         2.2226   -0.0320    7.6980 C.3       1 RES1    0.0000
      2 H1         1.8572    0.3584    8.4958 H         1 RES1    0.0000
      3 C2         1.6457    0.4911    6.3917 C.3       1 RES1    0.0000
      4 H2         0.6726    0.2228    6.1993 H         1 RES1    0.0000
      5 O1         1.6861    1.9422    6.3081 O.3       1 RES1    0.0000
      6 N1         2.6293    2.3346    5.3218 N.2       1 RES1    0.0000
      7 C3         3.1522    1.2961    4.7908 C.2       1 RES1    0.0000
      8 C4         2.6637   -0.0010    5.3550 C.3       1 RES1    0.0000
      9 H3         2.2877   -0.5425    4.6461 H         1 RES1    0.0000
     10 C5         3.6988   -0.7507    6.2165 C.3       1 RES1    0.0000
     11 H4         4.5993   -0.8912    5.7081 H         1 RES1    0.0000
     12 C6         3.0208   -2.0130    6.7342 C.3       1 RES1    0.0000
     13 H5         3.6490   -2.6252    7.1816 H         1 RES1    0.0000
     14 H6         2.6346   -2.5283    6.0267 H         1 RES1    0.0000
     15 N2         1.9594   -1.4879    7.6449 N.3       1 RES1    0.0000
     16 C7         3.7274    0.0969    7.4803 C.3       1 RES1    0.0000
     17 H7         4.0025    1.0462    7.3010 H         1 RES1    0.0000
     18 H8         4.2664   -0.3003    8.1506 H         1 RES1    0.0000
     19 C8         4.1614    1.4405    3.7408 C.ar      1 RES1    0.0000
     20 C9         4.9325    2.5903    3.6465 C.ar      1 RES1    0.0000
     21 H9         4.8288    3.3226    4.3674 H         1 RES1    0.0000
     22 C10        5.8455    2.7269    2.6231 C.ar      1 RES1    0.0000
     23 H10        6.3568    3.5067    2.5620 H         1 RES1    0.0000
     24 C11        6.0122    1.7446    1.6872 C.ar      1 RES1    0.0000
     25 H11        6.6774    1.8696    0.9558 H         1 RES1    0.0000
     26 C12        5.2684    0.5987    1.7868 C.ar      1 RES1    0.0000
     27 H12        5.3830   -0.0387    1.1416 H         1 RES1    0.0000
     28 C13        4.3499    0.4369    2.8023 C.ar      1 RES1    0.0000
     29 H13        3.7891   -0.3875    2.8540 H         1 RES1    0.0000
     30 C14        1.9534   -2.1728    8.9006 C.3       1 RES1    0.0000
     31 H14        1.8797   -3.1580    8.7613 H         1 RES1    0.0000
     32 H15        2.8546   -1.9665    9.2126 H         1 RES1    0.0000
     33 C15        0.8475   -1.7485    9.8259 C.ar      1 RES1    0.0000
     34 C16       -0.4917   -1.9277    9.5259 C.ar      1 RES1    0.0000
     35 H16       -0.7303   -2.2571    8.6152 H         1 RES1    0.0000
     36 C17       -1.4736   -1.6013   10.4365 C.ar      1 RES1    0.0000
     37 H17       -2.3650   -1.7340   10.2347 H         1 RES1    0.0000
     38 C18       -1.1275   -1.0898   11.6445 C.ar      1 RES1    0.0000
     39 H18       -1.8032   -0.8137   12.3321 H         1 RES1    0.0000
     40 C19        0.1864   -0.8883   11.9445 C.ar      1 RES1    0.0000
     41 H19        0.4801   -0.5425   12.8233 H         1 RES1    0.0000
     42 C20        1.1494   -1.2109   11.0339 C.ar      1 RES1    0.0000
     43 H20        2.0587   -1.0268   11.2569 H         1 RES1    0.0000
@<TRIPOS>BOND
     1    1    2 1
     2    3    1 1
     3    4    3 1
     4    5    3 1
     5    6    5 1
     6    7    6 2
     7    8    3 1
     8    9    8 1
     9   10    8 1
    10   11   10 1
    11   12   10 1
    12   13   12 1
    13   14   12 1
    14   15    1 1
    15   16    1 1
    16   17   16 1
    17   18   16 1
    18   19    7 1
    19   20   19 ar
    20   21   20 1
    21   22   20 ar
    22   23   22 1
    23   24   22 ar
    24   25   24 1
    25   26   24 ar
    26   27   26 1
    27   28   19 ar
    28   29   28 1
    29   30   15 1
    30   31   30 1
    31   32   30 1
    32   33   30 1
    33   34   33 ar
    34   35   34 1
    35   36   34 ar
    36   37   36 1
    37   38   36 ar
    38   39   38 1
    39   40   38 ar
    40   41   40 1
    41   42   33 ar
    42   43   42 1
    43    7    8 1
    44   10   16 1
    45   12   15 1
    46   26   28 ar
    47   40   42 ar
@<TRIPOS>SUBSTRUCTURE
     1 RES1 1

@<TRIPOS>CRYSIN
  12.6220    9.6870   13.3480  90.0000  96.0100  90.0000 231 1

