# MOL2 file generated by ConQuest
# Please check atom types

@<TRIPOS>MOLECULE
RIFDAO
    43    47     1
SMALL
NO_CHARGES
****
Generated from CSD

@<TRIPOS>ATOM
      1 O1         1.7531    4.3340    3.2243 O.2       1 RES1    0.0000
      2 N1        -3.5181    0.8352   -2.1699 N.3       1 RES1    0.0000
      3 C1        -0.2986    3.9456    2.1860 C.ar      1 RES1    0.0000
      4 C2        -2.7789    1.8554   -0.5316 C.2       1 RES1    0.0000
      5 O2         0.0607    5.5418    3.8467 O.2       1 RES1    0.0000
      6 N2        -4.5374    0.9094   -1.3124 N.2       1 RES1    0.0000
      7 N3        -2.3977    1.4058   -1.7217 N.2       1 RES1    0.0000
      8 N4        -4.0753    1.5665   -0.2549 N.2       1 RES1    0.0000
      9 C3        -1.6504    4.2220    2.1779 C.ar      1 RES1    0.0000
     10 H1        -2.0206    4.8691    2.7674 H         1 RES1    0.0000
     11 N5         0.5649    4.6635    3.1528 N.pl3     1 RES1    0.0000
     12 C4        -2.5267   -1.5033   -4.9952 C.3       1 RES1    0.0000
     13 H2        -1.7835   -2.1674   -5.0742 H         1 RES1    0.0000
     14 C5         0.2757    3.0209    1.3297 C.ar      1 RES1    0.0000
     15 H3         1.2102    2.8521    1.3619 H         1 RES1    0.0000
     16 C6        -4.9647   -0.5158   -3.6485 C.3       1 RES1    0.0000
     17 H4        -5.6973    0.1465   -3.5721 H         1 RES1    0.0000
     18 H5        -5.0756   -1.1869   -2.9302 H         1 RES1    0.0000
     19 C7        -1.9049    2.5931    0.4041 C.ar      1 RES1    0.0000
     20 C8        -2.3799   -0.4443   -6.0907 C.3       1 RES1    0.0000
     21 H6        -2.4085   -0.8760   -6.9814 H         1 RES1    0.0000
     22 H7        -1.5090    0.0164   -5.9967 H         1 RES1    0.0000
     23 C9        -3.6023    0.1868   -3.5075 C.3       1 RES1    0.0000
     24 C10       -2.4659   -0.8349   -3.6164 C.3       1 RES1    0.0000
     25 H8        -2.5581   -1.5184   -2.9064 H         1 RES1    0.0000
     26 H9        -1.5933   -0.3815   -3.5006 H         1 RES1    0.0000
     27 C11       -2.4513    3.5307    1.2863 C.ar      1 RES1    0.0000
     28 H10       -3.3871    3.6954    1.2732 H         1 RES1    0.0000
     29 C12       -0.5250    2.3453    0.4264 C.ar      1 RES1    0.0000
     30 H11       -0.1429    1.7174   -0.1747 H         1 RES1    0.0000
     31 C13       -4.8707   -0.1466   -6.1318 C.3       1 RES1    0.0000
     32 H12       -5.6099    0.5091   -6.0695 H         1 RES1    0.0000
     33 H13       -4.9155   -0.5816   -7.0198 H         1 RES1    0.0000
     34 C14       -5.0170   -1.2041   -5.0258 C.3       1 RES1    0.0000
     35 H14       -5.8957   -1.6710   -5.1285 H         1 RES1    0.0000
     36 C15       -3.5198    0.5738   -5.9714 C.3       1 RES1    0.0000
     37 H15       -3.4256    1.2599   -6.6916 H         1 RES1    0.0000
     38 C16       -3.4555    1.2662   -4.5999 C.3       1 RES1    0.0000
     39 H16       -4.1845    1.9312   -4.5210 H         1 RES1    0.0000
     40 H17       -2.5904    1.7365   -4.4972 H         1 RES1    0.0000
     41 C17       -3.8800   -2.2275   -5.1541 C.3       1 RES1    0.0000
     42 H18       -3.9233   -2.6692   -6.0391 H         1 RES1    0.0000
     43 H19       -3.9733   -2.9235   -4.4549 H         1 RES1    0.0000
@<TRIPOS>BOND
     1    1   11 2
     2    2    6 1
     3    3    9 ar
     4    4    7 2
     5    5   11 2
     6    6    8 2
     7    7    2 1
     8    8    4 1
     9    9   10 1
    10   11    3 1
    11   12   13 1
    12   14    3 ar
    13   15   14 1
    14   16   17 1
    15   18   16 1
    16   19    4 1
    17   20   12 1
    18   21   20 1
    19   22   20 1
    20   23    2 1
    21   24   12 1
    22   25   24 1
    23   26   24 1
    24   27    9 ar
    25   28   27 1
    26   29   14 ar
    27   30   29 1
    28   31   32 1
    29   33   31 1
    30   34   16 1
    31   35   34 1
    32   36   20 1
    33   37   36 1
    34   38   23 1
    35   39   38 1
    36   40   38 1
    37   41   12 1
    38   42   41 1
    39   43   41 1
    40   16   23 1
    41   19   27 ar
    42   19   29 ar
    43   23   24 1
    44   31   34 1
    45   31   36 1
    46   34   41 1
    47   36   38 1
@<TRIPOS>SUBSTRUCTURE
     1 RES1 1

@<TRIPOS>CRYSIN
   6.7879    8.4931   13.9350 104.1650 101.2220  90.1210   2 1

