# MOL2 file generated by ConQuest
# Please check atom types

@<TRIPOS>MOLECULE
RIFTAC
    50    57     1
SMALL
NO_CHARGES
****
Generated from CSD

@<TRIPOS>ATOM
      1 O1         8.7407   14.7010    3.9200 O.3       1 RES1    0.0000
      2 C1         9.9835   12.8110    4.7419 C.2       1 RES1    0.0000
      3 C2         8.7407   11.1061    3.3883 C.2       1 RES1    0.0000
      4 C3         9.9191   14.1077    4.3182 C.2       1 RES1    0.0000
      5 C4        11.2540   12.3114    5.1813 C.2       1 RES1    0.0000
      6 C5         8.7407   11.9370    4.6876 C.3       1 RES1    0.0000
      7 C6         8.7407    9.7361    3.2596 C.3       1 RES1    0.0000
      8 C7         8.7407   11.7809    2.1837 C.2       1 RES1    0.0000
      9 H1         8.7407   12.7106    2.1980 H         1 RES1    0.0000
     10 C8         8.7407    9.7875    0.8868 C.2       1 RES1    0.0000
     11 H2         8.7407    9.3559    0.0628 H         1 RES1    0.0000
     12 C9         8.7407   11.1453    0.9615 C.2       1 RES1    0.0000
     13 H3         8.7407   11.6490    0.1804 H         1 RES1    0.0000
     14 C10       12.3961   13.1634    5.1167 C.2       1 RES1    0.0000
     15 C11       11.0484   14.9479    4.2458 C.2       1 RES1    0.0000
     16 H4        10.9643   15.8224    3.9390 H         1 RES1    0.0000
     17 C12        8.7407    9.0816    2.0335 C.2       1 RES1    0.0000
     18 H5         8.7407    8.1519    2.0049 H         1 RES1    0.0000
     19 C13       11.4265   11.0137    5.6992 C.2       1 RES1    0.0000
     20 H6        10.6969   10.4392    5.7508 H         1 RES1    0.0000
     21 C14       12.2466   14.4760    4.6224 C.2       1 RES1    0.0000
     22 H7        12.9939   15.0255    4.5573 H         1 RES1    0.0000
     23 C15       12.6646   10.5848    6.1314 C.2       1 RES1    0.0000
     24 H8        12.7579    9.7281    6.4803 H         1 RES1    0.0000
     25 C16       13.6390   12.6727    5.5593 C.2       1 RES1    0.0000
     26 H9        14.3872   13.2224    5.5132 H         1 RES1    0.0000
     27 C17       13.7685   11.4178    6.0520 C.2       1 RES1    0.0000
     28 H10       14.6005   11.1139    6.3373 H         1 RES1    0.0000
     29 N1         9.2480    8.8509    4.4126 N.2       1 RES1    0.0000
     30 O2         8.7407    8.9960    5.4536 O.3       1 RES1    0.0000
     31 O3        10.0817    7.9907    4.2569 O.2       1 RES1    0.0000
     32 H11        8.7407   11.3408    5.5227 H         1 RES1    0.0000
     33 C1C        7.4979   12.8110    4.7419 C.2       1 RES1    0.0000
     34 C3C        7.5623   14.1077    4.3182 C.2       1 RES1    0.0000
     35 C4C        6.2274   12.3114    5.1813 C.2       1 RES1    0.0000
     36 C10C       5.0853   13.1634    5.1167 C.2       1 RES1    0.0000
     37 C11C       6.4330   14.9479    4.2458 C.2       1 RES1    0.0000
     38 H4C        6.5171   15.8224    3.9390 H         1 RES1    0.0000
     39 C13C       6.0549   11.0137    5.6992 C.2       1 RES1    0.0000
     40 H6C        6.7845   10.4392    5.7508 H         1 RES1    0.0000
     41 C14C       5.2348   14.4760    4.6224 C.2       1 RES1    0.0000
     42 H7C        4.4875   15.0255    4.5573 H         1 RES1    0.0000
     43 C15C       4.8168   10.5848    6.1314 C.2       1 RES1    0.0000
     44 H8C        4.7235    9.7281    6.4803 H         1 RES1    0.0000
     45 C16C       3.8424   12.6727    5.5593 C.2       1 RES1    0.0000
     46 H9C        3.0942   13.2224    5.5132 H         1 RES1    0.0000
     47 C17C       3.7129   11.4178    6.0520 C.2       1 RES1    0.0000
     48 H10C       2.8809   11.1139    6.3373 H         1 RES1    0.0000
     49 N1C        8.2334    8.8509    4.4126 N.2       1 RES1    0.0000
     50 O3C        7.3997    7.9907    4.2569 O.2       1 RES1    0.0000
@<TRIPOS>BOND
     1    1    4 1
     2    2    4 1
     3    3    6 1
     4    4   15 1
     5    5    2 1
     6    6    2 1
     7    7    3 1
     8    8    3 1
     9    9    8 1
    10   10   11 1
    11   12    8 1
    12   13   12 1
    13   14    5 1
    14   15   16 1
    15   17    7 1
    16   18   17 1
    17   19    5 1
    18   20   19 1
    19   21   14 1
    20   22   21 1
    21   23   19 1
    22   24   23 1
    23   25   14 1
    24   26   25 1
    25   27   23 1
    26   28   27 1
    27   29    7 1
    28   30   29 1
    29   31   29 1
    30   32    6 1
    31   33    6 1
    32   34    1 1
    33   35   33 1
    34   36   35 1
    35   37   34 1
    36   38   37 1
    37   39   35 1
    38   40   39 1
    39   41   36 1
    40   42   41 1
    41   43   39 1
    42   44   43 1
    43   45   36 1
    44   46   45 1
    45   47   43 1
    46   48   47 1
    47   49    7 1
    48   50   49 1
    49   10   12 1
    50   10   17 1
    51   15   21 1
    52   25   27 1
    53   29   49 1
    54   30   49 1
    55   33   34 1
    56   37   41 1
    57   45   47 1
@<TRIPOS>SUBSTRUCTURE
     1 RES1 1

@<TRIPOS>CRYSIN
  17.4814   14.5413    7.9464  90.0000  90.0000  90.0000  36 1

