# MOL2 file generated by ConQuest
# Please check atom types

@<TRIPOS>MOLECULE
RIFWUY
    70    74     2
SMALL
NO_CHARGES
****
Generated from CSD

@<TRIPOS>ATOM
      1 O1        -9.7901    1.5323    6.7223 O.2       1 RES1    0.0000
      2 O2         2.2447    4.8654    7.2820 O.3       1 RES1    0.0000
      3 N1        -2.1417    2.7128    6.7014 N.ar      1 RES1    0.0000
      4 N2        -8.5482    1.9310    6.7402 N.pl3     1 RES1    0.0000
      5 N3        -2.3109    7.3281    7.9150 N.1       1 RES1    0.0000
      6 N4        -0.4718    4.1514    7.3269 N.3       1 RES1    0.0000
      7 C1        -1.8015    3.9038    7.1968 C.ar      1 RES1    0.0000
      8 C2        -2.8049    4.8576    7.4920 C.ar      1 RES1    0.0000
      9 C3        -4.1345    4.4797    7.4001 C.ar      1 RES1    0.0000
     10 C4        -4.4818    3.2210    6.9607 C.ar      1 RES1    0.0000
     11 C5        -3.4257    2.4053    6.5788 C.ar      1 RES1    0.0000
     12 C6        -5.8876    2.7780    6.8620 C.ar      1 RES1    0.0000
     13 C7        -6.9529    3.6249    7.1557 C.ar      1 RES1    0.0000
     14 C8        -8.2494    3.1897    7.0877 C.ar      1 RES1    0.0000
     15 C9        -7.5447    1.0841    6.4054 C.ar      1 RES1    0.0000
     16 C10       -6.2416    1.4828    6.4757 C.ar      1 RES1    0.0000
     17 C11       -2.5143    6.2153    7.7536 C.1       1 RES1    0.0000
     18 C12        0.1029    4.9644    8.3903 C.3       1 RES1    0.0000
     19 C13        1.2636    5.7176    7.8478 C.3       1 RES1    0.0000
     20 C14        1.6724    4.0445    6.2821 C.3       1 RES1    0.0000
     21 C15        0.5168    3.2367    6.7649 C.3       1 RES1    0.0000
     22 O3         0.8981   12.4150    5.6252 O.2       2 RES2    0.0000
     23 O4       -11.1263    9.2982    7.0167 O.3       2 RES2    0.0000
     24 N5        -6.7364   11.3986    6.4062 N.ar      2 RES2    0.0000
     25 N6        -0.3344   12.0997    5.8726 N.pl3     2 RES2    0.0000
     26 N7        -6.3673    7.0258    8.4068 N.1       2 RES2    0.0000
     27 N8        -8.3702    9.8533    6.8658 N.3       2 RES2    0.0000
     28 C16       -7.0390   10.1504    6.8090 C.ar      2 RES2    0.0000
     29 C17       -6.0127    9.2774    7.2073 C.ar      2 RES2    0.0000
     30 C18       -4.6920    9.6761    7.0623 C.ar      2 RES2    0.0000
     31 C19       -4.3833   10.9322    6.5706 C.ar      2 RES2    0.0000
     32 C20       -5.4618   11.7609    6.3023 C.ar      2 RES2    0.0000
     33 C21       -2.9820   11.3622    6.3606 C.ar      2 RES2    0.0000
     34 C22       -1.9131   10.6038    6.8067 C.ar      2 RES2    0.0000
     35 C23       -0.6235   10.9791    6.5646 C.ar      2 RES2    0.0000
     36 C24       -1.3486   12.8658    5.4451 C.ar      2 RES2    0.0000
     37 C25       -2.6529   12.5218    5.6693 C.ar      2 RES2    0.0000
     38 C26       -6.2367    8.0135    7.8523 C.1       2 RES2    0.0000
     39 C27       -8.8839    8.5164    6.5923 C.3       2 RES2    0.0000
     40 C28      -10.1663    8.3157    7.3605 C.3       2 RES2    0.0000
     41 C29      -10.6371   10.5934    7.2649 C.3       2 RES2    0.0000
     42 C30       -9.3650   10.8931    6.5392 C.3       2 RES2    0.0000
     43 H1        -4.9139    5.1964    7.6953 H         1 RES1    0.0000
     44 H2        -3.6707    1.4411    6.1229 H         1 RES1    0.0000
     45 H3        -6.7394    4.6621    7.4547 H         1 RES1    0.0000
     46 H4        -9.0666    3.8829    7.3388 H         1 RES1    0.0000
     47 H5        -7.7908    0.0469    6.0960 H         1 RES1    0.0000
     48 H6        -5.4504    0.7792    6.2074 H         1 RES1    0.0000
     49 H7         0.4475    4.3260    9.2176 H         1 RES1    0.0000
     50 H8        -0.6408    5.6498    8.8029 H         1 RES1    0.0000
     51 H9         1.7293    6.3196    8.6392 H         1 RES1    0.0000
     52 H10        0.9036    6.4134    7.0840 H         1 RES1    0.0000
     53 H11        2.4295    3.3956    5.8643 H         1 RES1    0.0000
     54 H12        1.3067    4.6986    5.4727 H         1 RES1    0.0000
     55 H13        0.8675    2.5382    7.5346 H         1 RES1    0.0000
     56 H14        0.0841    2.6529    5.9593 H         1 RES1    0.0000
     57 H15       -3.8833    8.9907    7.3321 H         2 RES2    0.0000
     58 H16       -5.2548   12.7824    5.9705 H         2 RES2    0.0000
     59 H17       -2.1164    9.6917    7.3897 H         2 RES2    0.0000
     60 H18        0.2057   10.3484    6.9442 H         2 RES2    0.0000
     61 H19       -1.1084   13.7805    4.8652 H         2 RES2    0.0000
     62 H20       -3.4688   13.1759    5.3076 H         2 RES2    0.0000
     63 H21       -8.1357    7.7607    6.9151 H         2 RES2    0.0000
     64 H22       -9.0474    8.3679    5.5318 H         2 RES2    0.0000
     65 H23       -9.9805    8.3470    8.4352 H         2 RES2    0.0000
     66 H24      -10.6062    7.3281    7.1378 H         2 RES2    0.0000
     67 H25      -11.4524   11.2996    6.9547 H         2 RES2    0.0000
     68 H26      -10.5207   10.7524    8.3492 H         2 RES2    0.0000
     69 H27       -8.9702   11.8938    6.8441 H         2 RES2    0.0000
     70 H28       -9.5356   10.9530    5.4645 H         2 RES2    0.0000
@<TRIPOS>BOND
     1    1    4 1
     2    2   19 1
     3    3    7 ar
     4    4   14 ar
     5    5   17 3
     6    6    7 1
     7    7    8 ar
     8    8    9 ar
     9    9   10 ar
    10   10   11 ar
    11   11    3 ar
    12   12   10 1
    13   13   12 ar
    14   14   13 ar
    15   15    4 ar
    16   16   12 ar
    17   17    8 1
    18   18    6 1
    19   19   18 1
    20   20    2 1
    21   21    6 1
    22   22   25 1
    23   23   40 1
    24   24   28 ar
    25   25   35 ar
    26   26   38 3
    27   27   28 1
    28   28   29 ar
    29   29   30 ar
    30   30   31 ar
    31   31   32 ar
    32   32   24 ar
    33   33   31 1
    34   34   33 ar
    35   35   34 ar
    36   36   25 ar
    37   37   33 ar
    38   38   29 1
    39   39   27 1
    40   40   39 1
    41   41   23 1
    42   42   27 1
    43   43    9 1
    44   44   11 1
    45   45   13 1
    46   46   14 1
    47   47   15 1
    48   48   16 1
    49   49   18 1
    50   50   18 1
    51   51   19 1
    52   52   19 1
    53   53   20 1
    54   54   20 1
    55   55   21 1
    56   56   21 1
    57   57   30 1
    58   58   32 1
    59   59   34 1
    60   60   35 1
    61   61   36 1
    62   62   37 1
    63   63   39 1
    64   64   39 1
    65   65   40 1
    66   66   40 1
    67   67   41 1
    68   68   41 1
    69   69   42 1
    70   70   42 1
    71   15   16 ar
    72   20   21 1
    73   36   37 ar
    74   41   42 1
@<TRIPOS>SUBSTRUCTURE
     1 RES1 1
     2 RES2 22

@<TRIPOS>CRYSIN
  13.8190   26.0600    7.5910  90.0000 100.1000  90.0000  14 1

