# MOL2 file generated by ConQuest
# Please check atom types

@<TRIPOS>MOLECULE
RIGHUK08
    31    32     1
SMALL
NO_CHARGES
****
Generated from CSD

@<TRIPOS>ATOM
      1 O1         5.1417   17.6599    6.3468 O.2       1 RES1    0.0000
      2 O2         9.6930   21.0787    8.3859 O.2       1 RES1    0.0000
      3 N1         7.4716   15.8482    4.9422 N.ar      1 RES1    0.0000
      4 C1         9.0996   18.8487    8.4013 C.ar      1 RES1    0.0000
      5 C2         7.5170   16.7225    7.5850 C.ar      1 RES1    0.0000
      6 N2         9.8984   19.9861    8.8702 N.pl3     1 RES1    0.0000
      7 C3         8.0477   19.0901    7.5576 C.ar      1 RES1    0.0000
      8 H1         7.8622   19.9513    7.2585 H         1 RES1    0.0000
      9 C4         9.4015   17.5900    8.8408 C.ar      1 RES1    0.0000
     10 H2        10.1217   17.4438    9.4110 H         1 RES1    0.0000
     11 C5         6.6685   15.1606    5.7454 C.ar      1 RES1    0.0000
     12 C6         8.6173   16.5482    8.4189 C.ar      1 RES1    0.0000
     13 H3         8.8289   15.6888    8.7026 H         1 RES1    0.0000
     14 C7         5.8729   14.1109    5.3103 C.ar      1 RES1    0.0000
     15 N3         6.1323   18.3406    6.2885 N.pl3     1 RES1    0.0000
     16 O3         6.2570   19.2861    5.5492 O.2       1 RES1    0.0000
     17 C8         6.6853   15.5234    7.2181 C.3       1 RES1    0.0000
     18 H4         5.7730   15.6858    7.5033 H         1 RES1    0.0000
     19 H5         7.0143   14.7600    7.7178 H         1 RES1    0.0000
     20 C9         7.2766   18.0253    7.1678 C.ar      1 RES1    0.0000
     21 O4        10.7160   19.7836    9.7329 O.2       1 RES1    0.0000
     22 C10        5.9326   13.7932    3.9728 C.ar      1 RES1    0.0000
     23 H6         5.4073   13.1016    3.6385 H         1 RES1    0.0000
     24 C11        4.9753   13.3516    6.2620 C.3       1 RES1    0.0000
     25 H7         4.5125   12.6602    5.7829 H         1 RES1    0.0000
     26 H8         4.3363   13.9553    6.6500 H         1 RES1    0.0000
     27 H9         5.5060   12.9575    6.9580 H         1 RES1    0.0000
     28 C12        7.5038   15.4960    3.6554 C.ar      1 RES1    0.0000
     29 H10        8.0671   15.9662    3.0836 H         1 RES1    0.0000
     30 C13        6.7553   14.4843    3.1365 C.ar      1 RES1    0.0000
     31 H11        6.8044   14.2711    2.2326 H         1 RES1    0.0000
@<TRIPOS>BOND
     1    1   15 2
     2    2    6 2
     3    3   11 ar
     4    4    6 1
     5    5   12 ar
     6    6   21 2
     7    7    4 ar
     8    8    7 1
     9    9    4 ar
    10   10    9 1
    11   11   14 ar
    12   12    9 ar
    13   13   12 1
    14   14   22 ar
    15   15   16 2
    16   17    5 1
    17   18   17 1
    18   19   17 1
    19   20    5 ar
    20   22   23 1
    21   24   14 1
    22   25   24 1
    23   26   24 1
    24   27   24 1
    25   28    3 ar
    26   29   28 1
    27   30   22 ar
    28   31   30 1
    29    7   20 ar
    30   11   17 1
    31   15   20 1
    32   28   30 ar
@<TRIPOS>SUBSTRUCTURE
     1 RES1 1

@<TRIPOS>CRYSIN
  11.5668   15.3271    7.6407  90.0000 105.8850  90.0000  14 1

