# MOL2 file generated by ConQuest
# Please check atom types

@<TRIPOS>MOLECULE
RIGHUK05
    31    32     1
SMALL
NO_CHARGES
****
Generated from CSD

@<TRIPOS>ATOM
      1 N1         6.9665    0.7342    5.8118 N.ar      1 RES1    0.0000
      2 N2         8.4520    2.2218    3.8611 N.pl3     1 RES1    0.0000
      3 N3         5.1701    3.5213    0.5370 N.pl3     1 RES1    0.0000
      4 C1         7.3130    1.8201    3.0188 C.ar      1 RES1    0.0000
      5 O1         9.3936    1.4565    3.9552 O.2       1 RES1    0.0000
      6 C2         5.7670    0.2498    2.1766 C.ar      1 RES1    0.0000
      7 H1         5.4000   -0.6045    2.1663 H         1 RES1    0.0000
      8 C3         7.4163   -0.4327    5.3425 C.ar      1 RES1    0.0000
      9 C4         6.7712    2.8190    2.2347 C.ar      1 RES1    0.0000
     10 H2         7.0961    3.6889    2.2693 H         1 RES1    0.0000
     11 C5         7.4121   -0.6243    3.8485 C.3       1 RES1    0.0000
     12 H3         6.9078   -1.4281    3.6485 H         1 RES1    0.0000
     13 H4         8.3265   -0.7788    3.5617 H         1 RES1    0.0000
     14 C6         5.2255    1.2120    1.3586 C.ar      1 RES1    0.0000
     15 H5         4.5222    1.0055    0.7849 H         1 RES1    0.0000
     16 O2         8.3904    3.3197    4.4017 O.2       1 RES1    0.0000
     17 C7         7.8689   -1.4656    6.1730 C.ar      1 RES1    0.0000
     18 C8         6.8444    0.5055    3.0188 C.ar      1 RES1    0.0000
     19 C9         5.7409    2.4811    1.4057 C.ar      1 RES1    0.0000
     20 O3         5.4815    4.6798    0.7510 O.2       1 RES1    0.0000
     21 O4         4.4577    3.1684   -0.3744 O.2       1 RES1    0.0000
     22 C10        6.9856    0.9134    7.1322 C.ar      1 RES1    0.0000
     23 H6         6.6902    1.7303    7.4639 H         1 RES1    0.0000
     24 C11        7.8555   -1.2250    7.5323 C.ar      1 RES1    0.0000
     25 H7         8.1497   -1.8830    8.1193 H         1 RES1    0.0000
     26 C12        8.3769   -2.7672    5.6014 C.3       1 RES1    0.0000
     27 H8         8.6108   -3.3620    6.3179 H         1 RES1    0.0000
     28 H9         9.1519   -2.5986    5.0608 H         1 RES1    0.0000
     29 H10        7.6917   -3.1692    5.0630 H         1 RES1    0.0000
     30 C13        7.4102   -0.0222    8.0274 C.ar      1 RES1    0.0000
     31 H11        7.4000    0.1481    8.9417 H         1 RES1    0.0000
@<TRIPOS>BOND
     1    1    8 ar
     2    2    4 1
     3    3   19 1
     4    4    9 ar
     5    5    2 2
     6    6    7 1
     7    8   11 1
     8    9   10 1
     9   11   12 1
    10   13   11 1
    11   14    6 ar
    12   15   14 1
    13   16    2 2
    14   17    8 ar
    15   18    4 ar
    16   19    9 ar
    17   20    3 2
    18   21    3 2
    19   22    1 ar
    20   23   22 1
    21   24   17 ar
    22   25   24 1
    23   26   17 1
    24   27   26 1
    25   28   26 1
    26   29   26 1
    27   30   22 ar
    28   31   30 1
    29    6   18 ar
    30   11   18 1
    31   14   19 ar
    32   24   30 ar
@<TRIPOS>SUBSTRUCTURE
     1 RES1 1

@<TRIPOS>CRYSIN
  11.3850   15.4220    7.6590  90.0000 106.1760  90.0000  14 1

