# MOL2 file generated by ConQuest
# Please check atom types

@<TRIPOS>MOLECULE
RIGHUK07
    31    32     1
SMALL
NO_CHARGES
****
Generated from CSD

@<TRIPOS>ATOM
      1 N1         9.0523    0.7329   -2.1349 N.ar      1 RES1    0.0000
      2 N2         7.5656    2.2230   -0.1824 N.pl3     1 RES1    0.0000
      3 N3        10.8449    3.5217    3.1361 N.pl3     1 RES1    0.0000
      4 C1        10.2475    0.2501    1.5000 C.ar      1 RES1    0.0000
      5 H1        10.6134   -0.6047    1.5103 H         1 RES1    0.0000
      6 O1         6.6233    1.4564   -0.2773 O.2       1 RES1    0.0000
      7 C2         8.6032   -0.4326   -1.6655 C.ar      1 RES1    0.0000
      8 C3         9.2477    2.8237    1.4404 C.ar      1 RES1    0.0000
      9 H2         8.9265    3.6962    1.3992 H         1 RES1    0.0000
     10 C4         8.7029    1.8192    0.6599 C.ar      1 RES1    0.0000
     11 C5         8.6024   -0.6263   -0.1655 C.3       1 RES1    0.0000
     12 H3         9.1051   -1.4300    0.0360 H         1 RES1    0.0000
     13 H4         7.6874   -0.7775    0.1199 H         1 RES1    0.0000
     14 C6        10.7912    1.2144    2.3195 C.ar      1 RES1    0.0000
     15 H5        11.4945    1.0089    2.8926 H         1 RES1    0.0000
     16 C7         8.1478   -1.4668   -2.4917 C.ar      1 RES1    0.0000
     17 C8         9.1735    0.5083    0.6592 C.ar      1 RES1    0.0000
     18 O2         7.6268    3.3164   -0.7276 O.2       1 RES1    0.0000
     19 C9        10.2741    2.4846    2.2725 C.ar      1 RES1    0.0000
     20 O3        10.5370    4.6815    2.9257 O.2       1 RES1    0.0000
     21 C10        8.1652   -1.2264   -3.8563 C.ar      1 RES1    0.0000
     22 H6         7.8747   -1.8867   -4.4441 H         1 RES1    0.0000
     23 C11        9.0378    0.9156   -3.4620 C.ar      1 RES1    0.0000
     24 H7         9.3388    1.7293   -3.7975 H         1 RES1    0.0000
     25 C12        8.6053   -0.0275   -4.3455 C.ar      1 RES1    0.0000
     26 H8         8.6100    0.1404   -5.2607 H         1 RES1    0.0000
     27 C13        7.6366   -2.7603   -1.9289 C.3       1 RES1    0.0000
     28 H9         6.8985   -2.5839   -1.3404 H         1 RES1    0.0000
     29 H10        8.3390   -3.1964   -1.4397 H         1 RES1    0.0000
     30 H11        7.3451   -3.3290   -2.6454 H         1 RES1    0.0000
     31 O4        11.5624    3.1691    4.0513 O.2       1 RES1    0.0000
@<TRIPOS>BOND
     1    1    7 ar
     2    2    6 2
     3    3   19 1
     4    4    5 1
     5    7   11 1
     6    8    9 1
     7   10    2 1
     8   11   12 1
     9   13   11 1
    10   14    4 ar
    11   15   14 1
    12   16    7 ar
    13   17    4 ar
    14   18    2 2
    15   19    8 ar
    16   20    3 2
    17   21   16 ar
    18   22   21 1
    19   23    1 ar
    20   24   23 1
    21   25   21 ar
    22   26   25 1
    23   27   16 1
    24   28   27 1
    25   29   27 1
    26   30   27 1
    27   31    3 2
    28    8   10 ar
    29   10   17 ar
    30   11   17 1
    31   14   19 ar
    32   23   25 ar
@<TRIPOS>SUBSTRUCTURE
     1 RES1 1

@<TRIPOS>CRYSIN
  11.3931   15.4265    7.6611  90.0000 106.2080  90.0000  14 1

