# MOL2 file generated by ConQuest
# Please check atom types

@<TRIPOS>MOLECULE
RIGHUK04
    62    64     2
SMALL
NO_CHARGES
****
Generated from CSD

@<TRIPOS>ATOM
      1 O1         3.0328    3.7540    4.5889 O.2       1 RES1    0.0000
      2 O2         4.6735    3.1757    5.8686 O.2       1 RES1    0.0000
      3 O3         9.0202    2.4137    4.2281 O.2       1 RES1    0.0000
      4 O4         9.3518    2.1159    2.1236 O.2       1 RES1    0.0000
      5 N1         2.6921    0.7426    2.9498 N.ar      1 RES1    0.0000
      6 N2         4.1690    3.3314    4.7803 N.pl3     1 RES1    0.0000
      7 N3         8.5936    2.3276    3.0661 N.pl3     1 RES1    0.0000
      8 C1         4.4629    2.7875    2.3504 C.ar      1 RES1    0.0000
      9 C2         5.0314    2.9374    3.6125 C.ar      1 RES1    0.0000
     10 C3         6.3614    2.7896    3.8952 C.ar      1 RES1    0.0000
     11 C4         7.1982    2.4833    2.8217 C.ar      1 RES1    0.0000
     12 C5         6.7199    2.3527    1.5817 C.ar      1 RES1    0.0000
     13 C6         5.3663    2.5041    1.3092 C.ar      1 RES1    0.0000
     14 C7         2.9937    2.9059    1.9660 C.3       1 RES1    0.0000
     15 C8         2.0958    1.8303    2.5713 C.ar      1 RES1    0.0000
     16 C9         0.7020    2.0607    2.6332 C.ar      1 RES1    0.0000
     17 C10       -0.0332    0.9973    3.0926 C.ar      1 RES1    0.0000
     18 C11        0.5405   -0.2009    3.4873 C.ar      1 RES1    0.0000
     19 C12        1.9257   -0.2561    3.4431 C.ar      1 RES1    0.0000
     20 C13        0.0635    3.3687    2.2414 C.3       1 RES1    0.0000
     21 H1         0.7421    3.9785    1.9425 H         1 RES1    0.0000
     22 H2        -0.3906    3.7425    2.9999 H         1 RES1    0.0000
     23 H3        -0.5672    3.2173    1.5331 H         1 RES1    0.0000
     24 O5        -4.3294    0.5080    6.5579 O.2       2 RES2    0.0000
     25 O6        -2.9838   -0.9320    7.4076 O.2       2 RES2    0.0000
     26 O7         1.6640   -0.5883    6.9157 O.2       2 RES2    0.0000
     27 O8         2.5228    1.4135    7.0836 O.2       2 RES2    0.0000
     28 N4        -3.3229    2.3965    3.6199 N.ar      2 RES2    0.0000
     29 N5        -3.2448    0.1270    6.8980 N.pl3     2 RES2    0.0000
     30 N6         1.5873    0.6601    6.9084 N.pl3     2 RES2    0.0000
     31 C14       -2.2386    2.3491    6.1676 C.ar      2 RES2    0.0000
     32 C15       -2.0946    1.0540    6.6256 C.ar      2 RES2    0.0000
     33 C16       -0.8630    0.4664    6.8804 C.ar      2 RES2    0.0000
     34 C17        0.2623    1.2269    6.6462 C.ar      2 RES2    0.0000
     35 C18        0.1701    2.5113    6.1897 C.ar      2 RES2    0.0000
     36 C19       -1.0862    3.0637    5.9393 C.ar      2 RES2    0.0000
     37 C20       -3.5345    3.0350    5.9349 C.3       2 RES2    0.0000
     38 C21       -4.1938    2.7688    4.5889 C.ar      2 RES2    0.0000
     39 C22       -5.5312    2.9504    4.3724 C.ar      2 RES2    0.0000
     40 C23       -6.0184    2.7817    3.0867 C.ar      2 RES2    0.0000
     41 C24       -5.1600    2.3878    2.0662 C.ar      2 RES2    0.0000
     42 C25       -3.8246    2.2042    2.4108 C.ar      2 RES2    0.0000
     43 C26       -6.4557    3.3579    5.4990 C.3       2 RES2    0.0000
     44 H4        -7.3519    3.4318    5.1662 H         2 RES2    0.0000
     45 H5        -6.1729    4.2017    5.8554 H         2 RES2    0.0000
     46 H6        -6.4272    2.6913    6.1912 H         2 RES2    0.0000
     47 H7        -0.9979    1.0834    3.1368 H         1 RES1    0.0000
     48 H8         0.1316   -0.9614    3.4019 H         1 RES1    0.0000
     49 H9         2.4997   -1.0332    3.3283 H         1 RES1    0.0000
     50 H10        2.8434    3.0278    0.8983 H         1 RES1    0.0000
     51 H11        2.6116    3.6593    2.0618 H         1 RES1    0.0000
     52 H12        6.9684    2.7552    4.8304 H         1 RES1    0.0000
     53 H13        7.2533    2.3606    0.7216 H         1 RES1    0.0000
     54 H14        5.1239    2.6763    0.5743 H         1 RES1    0.0000
     55 H15       -7.0342    2.9059    2.9306 H         2 RES2    0.0000
     56 H16       -5.5326    2.1238    1.1781 H         2 RES2    0.0000
     57 H17       -3.2682    1.7292    1.5758 H         2 RES2    0.0000
     58 H18       -4.2235    2.8126    6.4651 H         2 RES2    0.0000
     59 H19       -3.4374    3.9750    6.3473 H         2 RES2    0.0000
     60 H20       -0.6458   -0.4735    7.1572 H         2 RES2    0.0000
     61 H21        0.6875    3.0566    6.1705 H         2 RES2    0.0000
     62 H22       -1.0728    3.9176    5.6404 H         2 RES2    0.0000
@<TRIPOS>BOND
     1    1    6 2
     2    2    6 2
     3    3    7 2
     4    4    7 2
     5    5   15 ar
     6    6    9 1
     7    7   11 1
     8    8    9 ar
     9    9   10 ar
    10   10   11 ar
    11   11   12 ar
    12   12   13 ar
    13   13    8 ar
    14   14    8 1
    15   15   14 1
    16   16   15 ar
    17   17   16 ar
    18   18   17 ar
    19   19    5 ar
    20   20   16 1
    21   21   20 1
    22   22   20 1
    23   23   20 1
    24   24   29 2
    25   25   29 2
    26   26   30 2
    27   27   30 2
    28   28   38 ar
    29   29   32 1
    30   30   34 1
    31   31   32 ar
    32   32   33 ar
    33   33   34 ar
    34   34   35 ar
    35   35   36 ar
    36   36   31 ar
    37   37   31 1
    38   38   37 1
    39   39   38 ar
    40   40   39 ar
    41   41   40 ar
    42   42   28 ar
    43   43   39 1
    44   44   43 1
    45   45   43 1
    46   46   43 1
    47   47   17 1
    48   48   18 1
    49   49   19 1
    50   50   14 1
    51   51   14 1
    52   52   10 1
    53   53   12 1
    54   54   13 1
    55   55   40 1
    56   56   41 1
    57   57   42 1
    58   58   37 1
    59   59   37 1
    60   60   33 1
    61   61   35 1
    62   62   36 1
    63   18   19 ar
    64   41   42 ar
@<TRIPOS>SUBSTRUCTURE
     1 RES1 1
     2 RES2 24

@<TRIPOS>CRYSIN
  23.7560    7.1750   15.0780  90.0000 102.3900  90.0000   9 1

