# MOL2 file generated by ConQuest
# Please check atom types

@<TRIPOS>MOLECULE
RIGHUK06
    31    32     1
SMALL
NO_CHARGES
****
Generated from CSD

@<TRIPOS>ATOM
      1 N1         3.3512    0.7318   -2.1323 N.ar      1 RES1    0.0000
      2 N2         1.8670    2.2223   -0.1824 N.pl3     1 RES1    0.0000
      3 N3         5.1440    3.5210    3.1388 N.pl3     1 RES1    0.0000
      4 C1         4.5508    0.2495    1.4996 C.ar      1 RES1    0.0000
      5 H1         4.9167   -0.6061    1.5091 H         1 RES1    0.0000
      6 O1         0.9259    1.4571   -0.2762 O.2       1 RES1    0.0000
      7 C2         2.9049   -0.4320   -1.6658 C.ar      1 RES1    0.0000
      8 C3         3.5450    2.8202    1.4422 C.ar      1 RES1    0.0000
      9 H2         3.2207    3.6905    1.4054 H         1 RES1    0.0000
     10 C4         5.0940    1.2111    2.3218 C.ar      1 RES1    0.0000
     11 H3         5.7961    1.0055    2.8962 H         1 RES1    0.0000
     12 C5         3.0027    1.8187    0.6590 C.ar      1 RES1    0.0000
     13 C6         2.4486   -1.4685   -2.4946 C.ar      1 RES1    0.0000
     14 C7         3.4768    0.5069    0.6567 C.ar      1 RES1    0.0000
     15 C8         2.9028   -0.6268   -0.1655 C.3       1 RES1    0.0000
     16 H4         3.4040   -1.4327    0.0368 H         1 RES1    0.0000
     17 H5         1.9871   -0.7757    0.1206 H         1 RES1    0.0000
     18 O2         1.9299    3.3184   -0.7296 O.2       1 RES1    0.0000
     19 C9         4.5748    2.4823    2.2740 C.ar      1 RES1    0.0000
     20 O3         4.8370    4.6813    2.9270 O.2       1 RES1    0.0000
     21 C10        2.9056   -0.0233   -4.3464 C.ar      1 RES1    0.0000
     22 H6         2.9096    0.1465   -5.2613 H         1 RES1    0.0000
     23 C11        3.3372    0.9161   -3.4595 C.ar      1 RES1    0.0000
     24 H7         3.6378    1.7303   -3.7927 H         1 RES1    0.0000
     25 C12        2.4669   -1.2239   -3.8559 C.ar      1 RES1    0.0000
     26 H8         2.1773   -1.8830   -4.4450 H         1 RES1    0.0000
     27 C13        1.9351   -2.7575   -1.9239 C.3       1 RES1    0.0000
     28 O4         5.8604    3.1700    4.0523 O.2       1 RES1    0.0000
     29 H9         1.1507   -2.6989   -1.2576 H         1 RES1    0.0000
     30 H10        2.5868   -3.2695   -1.4194 H         1 RES1    0.0000
     31 H11        1.6994   -3.3466   -2.5593 H         1 RES1    0.0000
@<TRIPOS>BOND
     1    1    7 ar
     2    2    6 2
     3    3   19 1
     4    4    5 1
     5    7   13 ar
     6    8    9 1
     7   10    4 ar
     8   11   10 1
     9   12    2 1
    10   13   25 ar
    11   14    4 ar
    12   15    7 1
    13   16   15 1
    14   17   15 1
    15   18    2 2
    16   19    8 ar
    17   20    3 2
    18   21   22 1
    19   23    1 ar
    20   24   23 1
    21   25   21 ar
    22   26   25 1
    23   27   13 1
    24   28    3 2
    25   29   27 1
    26   30   27 1
    27   31   27 1
    28    8   12 ar
    29   10   19 ar
    30   12   14 ar
    31   14   15 1
    32   21   23 ar
@<TRIPOS>SUBSTRUCTURE
     1 RES1 1

@<TRIPOS>CRYSIN
  11.3860   15.4220    7.6580  90.0000 106.1880  90.0000  14 1

