# MOL2 file generated by ConQuest
# Please check atom types

@<TRIPOS>MOLECULE
RIGJIA
    30    32     1
SMALL
NO_CHARGES
****
Generated from CSD

@<TRIPOS>ATOM
      1 C1         0.2452    0.9810    0.4135 C.3       1 RES1    0.0000
      2 C2        -0.9406   -0.0191    0.5709 C.3       1 RES1    0.0000
      3 C3        -0.3930   -2.0786    1.7943 C.3       1 RES1    0.0000
      4 N1        -0.9359   -0.7264    1.8448 N.pl3     1 RES1    0.0000
      5 N2        -1.9357   -0.5112    2.7419 N.pl3     1 RES1    0.0000
      6 N3        -0.0019    2.1518   -0.3963 N.3       1 RES1    0.0000
      7 N4        -0.8357    3.1136    0.0046 N.pl3     1 RES1    0.0000
      8 O1        -2.6435    0.4677    2.5731 O.2       1 RES1    0.0000
      9 O2        -2.0168   -1.3012    3.6724 O.2       1 RES1    0.0000
     10 O3        -1.0580    4.0214   -0.7823 O.2       1 RES1    0.0000
     11 O4        -1.3013    3.0076    1.1372 O.2       1 RES1    0.0000
     12 H1         0.7403    1.1644    1.2176 H         1 RES1    0.0000
     13 H2        -1.8050    0.3150    0.3170 H         1 RES1    0.0000
     14 H3         0.4045   -2.1178    2.3881 H         1 RES1    0.0000
     15 H4        -1.0408   -2.7202    1.9895 H         1 RES1    0.0000
     16 C1D       -0.2452   -0.9810   -0.4135 C.3       1 RES1    0.0000
     17 C2D        0.9406    0.0191   -0.5709 C.3       1 RES1    0.0000
     18 C3D        0.3930    2.0786   -1.7943 C.3       1 RES1    0.0000
     19 N1D        0.9359    0.7264   -1.8448 N.3       1 RES1    0.0000
     20 H2D        1.8050   -0.3150   -0.3170 H         1 RES1    0.0000
     21 N2D        1.9357    0.5112   -2.7419 N.pl3     1 RES1    0.0000
     22 O1D        2.6435   -0.4677   -2.5731 O.2       1 RES1    0.0000
     23 O2D        2.0168    1.3012   -3.6724 O.2       1 RES1    0.0000
     24 H3D       -0.4045    2.1178   -2.3881 H         1 RES1    0.0000
     25 H4D        1.0408    2.7202   -1.9895 H         1 RES1    0.0000
     26 N3D        0.0019   -2.1518    0.3963 N.3       1 RES1    0.0000
     27 N4D        0.8357   -3.1136   -0.0046 N.pl3     1 RES1    0.0000
     28 O3D        1.0580   -4.0214    0.7823 O.2       1 RES1    0.0000
     29 O4D        1.3013   -3.0076   -1.1372 O.2       1 RES1    0.0000
     30 H1D       -0.7403   -1.1644   -1.2176 H         1 RES1    0.0000
@<TRIPOS>BOND
     1    1    2 1
     2    2    4 1
     3    3    4 1
     4    4    5 1
     5    5    8 2
     6    6    1 1
     7    7    6 1
     8    9    5 2
     9   10    7 2
    10   11    7 2
    11   12    1 1
    12   13    2 1
    13   14    3 1
    14   15    3 1
    15   16    2 1
    16   17    1 1
    17   18    6 1
    18   19   17 1
    19   20   17 1
    20   21   19 1
    21   22   21 2
    22   23   21 2
    23   24   18 1
    24   25   18 1
    25   26    3 1
    26   27   26 1
    27   28   27 2
    28   29   27 2
    29   30   16 1
    30   16   17 1
    31   16   26 1
    32   18   19 1
@<TRIPOS>SUBSTRUCTURE
     1 RES1 1

@<TRIPOS>CRYSIN
   9.5400   10.6050   11.4870  90.0000  90.0000  90.0000  61 1

