# MOL2 file generated by ConQuest
# Please check atom types

@<TRIPOS>MOLECULE
RIGJOG
    36    36     1
SMALL
NO_CHARGES
****
Generated from CSD

@<TRIPOS>ATOM
      1 C1         8.6452    1.6678    0.0344 C.3       1 RES1    0.0000
      2 C2         9.1758    1.1122   -1.3105 C.3       1 RES1    0.0000
      3 C3        10.6043    1.0058   -0.6647 C.3       1 RES1    0.0000
      4 C4        10.1362    1.8863    0.4908 C.3       1 RES1    0.0000
      5 C5         6.8033    1.1680    1.6980 C.3       1 RES1    0.0000
      6 C6         8.7369    1.5397   -3.7679 C.3       1 RES1    0.0000
      7 C7        12.2911    0.5612   -2.4677 C.3       1 RES1    0.0000
      8 C8        10.2541    2.3827    2.9516 C.3       1 RES1    0.0000
      9 N1         7.8809    0.7297    0.8300 N.pl3     1 RES1    0.0000
     10 N2         8.2513   -0.5225    0.7853 N.2       1 RES1    0.0000
     11 N3         9.0544    2.0178   -2.4350 N.pl3     1 RES1    0.0000
     12 N4         9.3540    3.2712   -2.1956 N.2       1 RES1    0.0000
     13 N5        11.7562    1.4196   -1.4276 N.pl3     1 RES1    0.0000
     14 N6        12.2338    2.6195   -1.2123 N.2       1 RES1    0.0000
     15 N7        10.5164    1.5152    1.8288 N.pl3     1 RES1    0.0000
     16 N8        11.0545    0.3301    1.9959 N.2       1 RES1    0.0000
     17 O1         7.6084   -1.2818    1.5257 O.2       1 RES1    0.0000
     18 O2         9.3459    4.0049   -3.1944 O.2       1 RES1    0.0000
     19 O3        13.1829    2.9382   -1.9373 O.2       1 RES1    0.0000
     20 O4        11.3044    0.0319    3.1738 O.2       1 RES1    0.0000
     21 H1         8.0916    2.4937    0.0000 H         1 RES1    0.0000
     22 H2         8.9127    0.2966   -1.6256 H         1 RES1    0.0000
     23 H3        10.7692    0.1190   -0.4529 H         1 RES1    0.0000
     24 H4        10.3137    2.7384    0.4322 H         1 RES1    0.0000
     25 H5         6.7744    2.1271    1.7117 H         1 RES1    0.0000
     26 H6         6.9558    0.8396    2.5865 H         1 RES1    0.0000
     27 H7         5.9689    0.8265    1.3690 H         1 RES1    0.0000
     28 H8         9.5500    1.3718   -4.2518 H         1 RES1    0.0000
     29 H9         8.2209    2.2039   -4.2328 H         1 RES1    0.0000
     30 H10        8.2284    0.7274   -3.7042 H         1 RES1    0.0000
     31 H11       13.1787    0.2840   -2.2284 H         1 RES1    0.0000
     32 H12       12.3189    1.0433   -3.2978 H         1 RES1    0.0000
     33 H13       11.7300   -0.2112   -2.5642 H         1 RES1    0.0000
     34 H14        9.9740    3.2439    2.6313 H         1 RES1    0.0000
     35 H15       11.0532    2.4800    3.4734 H         1 RES1    0.0000
     36 H16        9.5602    2.0030    3.4941 H         1 RES1    0.0000
@<TRIPOS>BOND
     1    1    2 1
     2    2    3 1
     3    3    4 1
     4    4    1 1
     5    5    9 1
     6    6   11 1
     7    7   13 1
     8    8   15 1
     9    9    1 1
    10   10    9 1
    11   11    2 1
    12   12   11 1
    13   13    3 1
    14   14   13 1
    15   15    4 1
    16   16   15 1
    17   17   10 2
    18   18   12 2
    19   19   14 2
    20   20   16 2
    21   21    1 1
    22   22    2 1
    23   23    3 1
    24   24    4 1
    25   25    5 1
    26   26    5 1
    27   27    5 1
    28   28    6 1
    29   29    6 1
    30   30    6 1
    31   31    7 1
    32   32    7 1
    33   33    7 1
    34   34    8 1
    35   35    8 1
    36   36    8 1
@<TRIPOS>SUBSTRUCTURE
     1 RES1 1

@<TRIPOS>CRYSIN
  13.8650    5.6920   17.5300  90.0000 100.7800  90.0000   9 1

