# MOL2 file generated by ConQuest
# Please check atom types

@<TRIPOS>MOLECULE
RIGJAV
    70    74     2
SMALL
NO_CHARGES
****
Generated from CSD

@<TRIPOS>ATOM
      1 O1        -1.2099    6.2059   12.0333 O.2       1 RES1    0.0000
      2 N1         4.0947    5.8985   11.2670 N.2       1 RES1    0.0000
      3 C1        -0.0070    6.1952   11.8261 C.2       1 RES1    0.0000
      4 O2         4.4977    5.2661   10.1006 O.3       1 RES1    0.0000
      5 H1         5.3156    5.1971   10.0945 H         1 RES1    0.0000
      6 N2        -0.4481    5.2071    9.7280 N.pl3     1 RES1    0.0000
      7 H2        -1.2299    5.1397   10.0788 H         1 RES1    0.0000
      8 C2         0.5294    5.6341   10.5728 C.2       1 RES1    0.0000
      9 C3         1.8704    5.5321   10.3830 C.2       1 RES1    0.0000
     10 H3         2.1924    5.1435    9.6014 H         1 RES1    0.0000
     11 C4         2.8045    6.0127   11.3634 C.2       1 RES1    0.0000
     12 C5         3.1666    7.2101   13.5634 C.ar      1 RES1    0.0000
     13 H4         4.0888    7.1633   13.4474 H         1 RES1    0.0000
     14 C6         2.6573    7.8087   14.6813 C.ar      1 RES1    0.0000
     15 H5         3.2388    8.1483   15.3208 H         1 RES1    0.0000
     16 C7         1.2872    7.9207   14.8795 C.ar      1 RES1    0.0000
     17 H6         0.9530    8.3568   15.6316 H         1 RES1    0.0000
     18 C8         0.4306    7.3741   13.9455 C.ar      1 RES1    0.0000
     19 H7        -0.4881    7.4170   14.0779 H         1 RES1    0.0000
     20 C9         0.9399    6.7601   12.8043 C.ar      1 RES1    0.0000
     21 C10        2.3205    6.6666   12.5922 C.ar      1 RES1    0.0000
     22 C11       -0.3706    4.8583    8.3639 C.ar      1 RES1    0.0000
     23 C12       -1.3042    3.9653    7.8644 C.ar      1 RES1    0.0000
     24 H8        -1.9249    3.5774    8.4373 H         1 RES1    0.0000
     25 C13       -1.3200    3.6464    6.5143 C.ar      1 RES1    0.0000
     26 H9        -1.9640    3.0585    6.1945 H         1 RES1    0.0000
     27 C14       -0.4036    4.1776    5.6395 C.ar      1 RES1    0.0000
     28 C15        0.5300    5.0661    6.1605 C.ar      1 RES1    0.0000
     29 H10        1.1539    5.4509    5.5888 H         1 RES1    0.0000
     30 C16        0.5592    5.3941    7.5014 C.ar      1 RES1    0.0000
     31 H11        1.2062    5.9790    7.8225 H         1 RES1    0.0000
     32 C17       -0.4203    3.8434    4.1680 C.3       1 RES1    0.0000
     33 H12       -0.2377    2.9083    4.0509 H         1 RES1    0.0000
     34 H13        0.2504    4.3601    3.7154 H         1 RES1    0.0000
     35 H14       -1.2828    4.0496    3.8032 H         1 RES1    0.0000
     36 O3         1.8615    2.6844   12.2783 O.2       2 RES2    0.0000
     37 N3         7.1379    2.0497   11.5145 N.2       2 RES2    0.0000
     38 O4         7.4961    1.4166   10.3310 O.3       2 RES2    0.0000
     39 H15        8.3100    1.3238   10.3062 H         2 RES2    0.0000
     40 N4         2.5532    1.5461   10.0160 N.pl3     2 RES2    0.0000
     41 H16        1.7632    1.5821   10.3535 H         2 RES2    0.0000
     42 C18        3.0680    2.5342   12.1069 C.2       2 RES2    0.0000
     43 C19        3.5643    1.8987   10.8608 C.2       2 RES2    0.0000
     44 C20        4.8974    1.7623   10.6710 C.2       2 RES2    0.0000
     45 H17        5.1991    1.3706    9.8851 H         2 RES2    0.0000
     46 C21        5.8591    2.2007   11.6404 C.2       2 RES2    0.0000
     47 C22        6.2874    3.3544   13.8455 C.ar      2 RES2    0.0000
     48 H18        7.2042    3.2670   13.7176 H         2 RES2    0.0000
     49 C23        5.8314    3.9615   14.9718 C.ar      2 RES2    0.0000
     50 H19        6.4355    4.2773   15.6046 H         2 RES2    0.0000
     51 C24        4.4781    4.1125   15.1790 C.ar      2 RES2    0.0000
     52 H20        4.1630    4.5257   15.9513 H         2 RES2    0.0000
     53 C25        3.6027    3.6487   14.2423 C.ar      2 RES2    0.0000
     54 H21        2.6884    3.7514   14.3796 H         2 RES2    0.0000
     55 C26        4.0479    3.0286   13.0898 C.ar      2 RES2    0.0000
     56 C27        5.4143    2.8577   12.8763 C.ar      2 RES2    0.0000
     57 C28        2.6151    1.1337    8.6764 C.ar      2 RES2    0.0000
     58 C29        1.6078    1.5722    7.8115 C.ar      2 RES2    0.0000
     59 H22        0.9191    2.1057    8.1378 H         2 RES2    0.0000
     60 C30        1.6256    1.2211    6.4787 C.ar      2 RES2    0.0000
     61 H23        0.9447    1.5223    5.9221 H         2 RES2    0.0000
     62 C31        2.6364    0.4270    5.9441 C.ar      2 RES2    0.0000
     63 C32        3.6096   -0.0360    6.8196 C.ar      2 RES2    0.0000
     64 H24        4.2901   -0.5803    6.4963 H         2 RES2    0.0000
     65 C33        3.5890    0.2967    8.1700 C.ar      2 RES2    0.0000
     66 H25        4.2405   -0.0491    8.7390 H         2 RES2    0.0000
     67 C34        2.7039    0.1065    4.4699 C.3       2 RES2    0.0000
     68 H26        1.8803    0.3610    4.0486 H         2 RES2    0.0000
     69 H27        2.8453   -0.8355    4.3526 H         2 RES2    0.0000
     70 H28        3.4294    0.5918    4.0711 H         2 RES2    0.0000
@<TRIPOS>BOND
     1    1    3 2
     2    2    4 1
     3    3    8 1
     4    4    5 1
     5    6    7 1
     6    8    6 1
     7    9    8 2
     8   10    9 1
     9   11    2 2
    10   12   13 1
    11   14   12 ar
    12   15   14 1
    13   16   14 ar
    14   17   16 1
    15   18   16 ar
    16   19   18 1
    17   20    3 1
    18   21   11 1
    19   22    6 1
    20   23   22 ar
    21   24   23 1
    22   25   23 ar
    23   26   25 1
    24   27   25 ar
    25   28   27 ar
    26   29   28 1
    27   30   22 ar
    28   31   30 1
    29   32   27 1
    30   33   32 1
    31   34   32 1
    32   35   32 1
    33   36   42 2
    34   37   38 1
    35   38   39 1
    36   40   41 1
    37   42   43 1
    38   43   40 1
    39   44   43 2
    40   45   44 1
    41   46   37 2
    42   47   48 1
    43   49   47 ar
    44   50   49 1
    45   51   49 ar
    46   52   51 1
    47   53   51 ar
    48   54   53 1
    49   55   42 1
    50   56   46 1
    51   57   40 1
    52   58   57 ar
    53   59   58 1
    54   60   58 ar
    55   61   60 1
    56   62   60 ar
    57   63   62 ar
    58   64   63 1
    59   65   57 ar
    60   66   65 1
    61   67   62 1
    62   68   67 1
    63   69   67 1
    64   70   67 1
    65    9   11 1
    66   12   21 ar
    67   18   20 ar
    68   20   21 ar
    69   28   30 ar
    70   44   46 1
    71   47   56 ar
    72   53   55 ar
    73   55   56 ar
    74   63   65 ar
@<TRIPOS>SUBSTRUCTURE
     1 RES1 1
     2 RES2 36

@<TRIPOS>CRYSIN
  15.8398    7.6654   22.5750  90.0000  94.0940  90.0000 231 1

