# MOL2 file generated by ConQuest
# Please check atom types

@<TRIPOS>MOLECULE
RIGLUR
    72    80     1
SMALL
NO_CHARGES
****
Generated from CSD

@<TRIPOS>ATOM
      1 O1        -0.2496    6.4330   13.3918 O.3       1 RES1    0.0000
      2 O2         2.2561    2.7611   19.7631 O.3       1 RES1    0.0000
      3 O3         3.1122    3.5195   14.3661 O.2       1 RES1    0.0000
      4 O4        -0.1133    4.3587   11.2309 O.2       1 RES1    0.0000
      5 C1         3.2203    6.4894   13.7429 C.3       1 RES1    0.0000
      6 H1         3.8818    6.3388   14.4490 H         1 RES1    0.0000
      7 N1        -0.2937    5.7194   14.6927 N.3       1 RES1    0.0000
      8 C2         2.4499    4.8962   18.5967 C.ar      1 RES1    0.0000
      9 H2         2.9862    5.2639   19.2616 H         1 RES1    0.0000
     10 C3         1.9331    5.6191   13.9318 C.3       1 RES1    0.0000
     11 C4         0.6807    4.5804   12.1086 C.2       1 RES1    0.0000
     12 C5         0.9318    5.9254   12.7945 C.3       1 RES1    0.0000
     13 C6         2.3003    0.9684   10.2193 C.ar      1 RES1    0.0000
     14 H3         2.5431    0.8804    9.3257 H         1 RES1    0.0000
     15 N2         1.5567    3.6477   12.6625 N.am      1 RES1    0.0000
     16 C7        -3.0059    6.3076   17.1400 C.ar      1 RES1    0.0000
     17 H4        -3.5634    5.8030   17.6874 H         1 RES1    0.0000
     18 C8         1.3534    5.1075   16.4373 C.ar      1 RES1    0.0000
     19 C9         4.3447    5.3501    9.7626 C.ar      1 RES1    0.0000
     20 H5         4.5546    5.0989    8.8914 H         1 RES1    0.0000
     21 C10        4.9455    5.4599   12.0985 C.ar      1 RES1    0.0000
     22 H6         5.5482    5.2854   12.7849 H         1 RES1    0.0000
     23 C11       -2.2420    8.4440   16.3608 C.ar      1 RES1    0.0000
     24 H7        -2.2977    9.3721   16.3770 H         1 RES1    0.0000
     25 C12        1.9616    3.6015   18.7246 C.ar      1 RES1    0.0000
     26 C13       -1.2626    6.4298   15.4978 C.ar      1 RES1    0.0000
     27 C14        1.5959    1.2185   12.8959 C.ar      1 RES1    0.0000
     28 H8         1.3671    1.3066   13.7939 H         1 RES1    0.0000
     29 C15        2.1279    5.6383   17.4597 C.ar      1 RES1    0.0000
     30 H9         2.4400    6.5113   17.3841 H         1 RES1    0.0000
     31 C16       -2.1062    5.6690   16.2928 C.ar      1 RES1    0.0000
     32 H10       -2.0710    4.7407   16.2610 H         1 RES1    0.0000
     33 C17        1.5230    6.9715   11.8089 C.3       1 RES1    0.0000
     34 H11        0.9124    7.1761   11.0703 H         1 RES1    0.0000
     35 C18        2.7613    7.9377   13.6742 C.ar      1 RES1    0.0000
     36 C19       -1.3250    7.8225   15.5240 C.ar      1 RES1    0.0000
     37 H12       -0.7591    8.3291   14.9881 H         1 RES1    0.0000
     38 C20        0.8398    3.8155   16.6037 C.ar      1 RES1    0.0000
     39 H13        0.3003    3.4482   15.9409 H         1 RES1    0.0000
     40 C21        1.1230    3.0793   17.7379 C.ar      1 RES1    0.0000
     41 H14        0.7540    2.2325   17.8446 H         1 RES1    0.0000
     42 C22        1.7611    2.3380   12.1006 C.ar      1 RES1    0.0000
     43 C23        1.0997    5.9245   15.1981 C.3       1 RES1    0.0000
     44 H15        1.2115    6.8722   15.4224 H         1 RES1    0.0000
     45 C24        3.1371    8.9562   14.5366 C.ar      1 RES1    0.0000
     46 H16        3.7342    8.7899   15.2296 H         1 RES1    0.0000
     47 C25        3.7396    6.0980   12.3654 C.ar      1 RES1    0.0000
     48 C26        2.1217    2.2352   10.7678 C.ar      1 RES1    0.0000
     49 H17        2.2422    2.9974   10.2485 H         1 RES1    0.0000
     50 C27       -3.0771    7.6881   17.1724 C.ar      1 RES1    0.0000
     51 H18       -3.6838    8.1101   17.7379 H         1 RES1    0.0000
     52 C28        3.3901    3.1140   20.5650 C.3       1 RES1    0.0000
     53 H19        4.1426    3.2901   19.9954 H         1 RES1    0.0000
     54 H20        3.6003    2.3893   21.1578 H         1 RES1    0.0000
     55 H21        3.1869    3.8993   21.0792 H         1 RES1    0.0000
     56 C29        2.8311    6.3570   11.3303 C.ar      1 RES1    0.0000
     57 C30        2.1174   -0.1620   10.9995 C.ar      1 RES1    0.0000
     58 H22        2.2238   -1.0061   10.6248 H         1 RES1    0.0000
     59 C31        2.6084   10.2353   14.3513 C.ar      1 RES1    0.0000
     60 H23        2.8729   10.9286   14.9114 H         1 RES1    0.0000
     61 C32        1.8458    8.1907   12.6464 C.ar      1 RES1    0.0000
     62 C33        1.2942    9.4532   12.4875 C.ar      1 RES1    0.0000
     63 H24        0.6655    9.6115   11.8209 H         1 RES1    0.0000
     64 C34        2.2969    4.1491   13.7407 C.2       1 RES1    0.0000
     65 C35        1.6933   10.4821   13.3394 C.ar      1 RES1    0.0000
     66 H25        1.3447   11.3366   13.2285 H         1 RES1    0.0000
     67 C36        5.2394    5.0841   10.7857 C.ar      1 RES1    0.0000
     68 H26        6.0410    4.6529   10.5967 H         1 RES1    0.0000
     69 C37        3.1315    5.9905   10.0226 C.ar      1 RES1    0.0000
     70 H27        2.5340    6.1689    9.3332 H         1 RES1    0.0000
     71 C38        1.7770   -0.0380   12.3355 C.ar      1 RES1    0.0000
     72 H28        1.6695   -0.7988   12.8598 H         1 RES1    0.0000
@<TRIPOS>BOND
     1    1    7 1
     2    2   25 1
     3    3   64 2
     4    4   11 2
     5    5    6 1
     6    7   26 1
     7    8    9 1
     8   10    5 1
     9   11   12 1
    10   12    1 1
    11   13   14 1
    12   15   11 1
    13   16   17 1
    14   18   29 ar
    15   19   20 1
    16   21   22 1
    17   23   24 1
    18   25    8 ar
    19   26   31 ar
    20   27   28 1
    21   29    8 ar
    22   30   29 1
    23   31   16 ar
    24   32   31 1
    25   33   12 1
    26   34   33 1
    27   35    5 1
    28   36   23 ar
    29   37   36 1
    30   38   18 ar
    31   39   38 1
    32   40   25 ar
    33   41   40 1
    34   42   15 1
    35   43    7 1
    36   44   43 1
    37   45   35 ar
    38   46   45 1
    39   47    5 1
    40   48   13 ar
    41   49   48 1
    42   50   16 ar
    43   51   50 1
    44   52    2 1
    45   53   52 1
    46   54   52 1
    47   55   52 1
    48   56   33 1
    49   57   13 ar
    50   58   57 1
    51   59   45 ar
    52   60   59 1
    53   61   33 1
    54   62   61 ar
    55   63   62 1
    56   64   10 1
    57   65   59 ar
    58   66   65 1
    59   67   19 ar
    60   68   67 1
    61   69   19 ar
    62   70   69 1
    63   71   27 ar
    64   72   71 1
    65   10   12 1
    66   10   43 1
    67   15   64 1
    68   18   43 1
    69   21   47 ar
    70   21   67 ar
    71   23   50 ar
    72   26   36 ar
    73   27   42 ar
    74   35   61 ar
    75   38   40 ar
    76   42   48 ar
    77   47   56 ar
    78   56   69 ar
    79   57   71 ar
    80   62   65 ar
@<TRIPOS>SUBSTRUCTURE
     1 RES1 1

@<TRIPOS>CRYSIN
   8.6287    9.7315   18.9596  91.4730  97.4750 115.7250   2 1

