# MOL2 file generated by ConQuest
# Please check atom types

@<TRIPOS>MOLECULE
RIGSIM
    75    83     1
SMALL
NO_CHARGES
****
Generated from CSD

@<TRIPOS>ATOM
      1 C1         4.8576    3.2503    3.7715 C.3       1 RES1    0.0000
      2 C2         5.5140    4.6237    7.1019 C.2       1 RES1    0.0000
      3 C3         5.5174    4.4184    4.5304 C.3       1 RES1    0.0000
      4 C4         4.4937    3.6783    2.3309 C.3       1 RES1    0.0000
      5 H1         4.1121    2.9418    1.8090 H         1 RES1    0.0000
      6 C5         5.8956    2.1373    3.7986 C.2       1 RES1    0.0000
      7 C6         4.6882    4.4900    5.8204 C.3       1 RES1    0.0000
      8 H2         4.0150    5.1996    5.7633 H         1 RES1    0.0000
      9 C7         4.0677    5.9229    3.1776 C.ar      1 RES1    0.0000
     10 C8         3.5334    4.8360    2.4763 C.ar      1 RES1    0.0000
     11 C9         6.9544    3.9732    4.7160 C.2       1 RES1    0.0000
     12 C10        5.4909    5.6993    3.6321 C.3       1 RES1    0.0000
     13 H3         5.8612    6.4823    4.0919 H         1 RES1    0.0000
     14 C11        8.3574    1.9905    4.1549 C.ar      1 RES1    0.0000
     15 C12        6.2895    5.3264    2.4005 C.ar      1 RES1    0.0000
     16 C13        5.7620    4.2236    1.7116 C.ar      1 RES1    0.0000
     17 C14        5.8989    6.1347    9.0137 C.ar      1 RES1    0.0000
     18 C15        3.3242    7.0721    3.3520 C.ar      1 RES1    0.0000
     19 H4         3.6796    7.7974    3.8126 H         1 RES1    0.0000
     20 C16        5.2084    7.0224    9.7968 C.ar      1 RES1    0.0000
     21 H5         4.4067    7.3816    9.4934 H         1 RES1    0.0000
     22 C17        6.3922    3.7385    0.5837 C.ar      1 RES1    0.0000
     23 H6         6.0596    2.9919    0.1396 H         1 RES1    0.0000
     24 C18        2.2490    4.8884    1.9960 C.ar      1 RES1    0.0000
     25 H7         1.8817    4.1581    1.5530 H         1 RES1    0.0000
     26 C19        7.4474    5.9318    1.9575 C.ar      1 RES1    0.0000
     27 H8         7.8154    6.6461    2.4268 H         1 RES1    0.0000
     28 C20        9.3857    2.5802    3.4707 C.ar      1 RES1    0.0000
     29 H9         9.2694    3.4050    3.0573 H         1 RES1    0.0000
     30 C21        8.5126    0.7662    4.7458 C.ar      1 RES1    0.0000
     31 H10        7.7998    0.3670    5.1899 H         1 RES1    0.0000
     32 C22        8.0571    5.4643    0.8044 C.ar      1 RES1    0.0000
     33 H11        8.8259    5.8809    0.4887 H         1 RES1    0.0000
     34 C23        2.0488    7.1295    2.8345 C.ar      1 RES1    0.0000
     35 H12        1.5487    7.9085    2.9282 H         1 RES1    0.0000
     36 C24        7.5335    4.3860    0.1227 C.ar      1 RES1    0.0000
     37 H13        7.9489    4.0876   -0.6538 H         1 RES1    0.0000
     38 C25        7.0912    5.6158    9.4673 C.ar      1 RES1    0.0000
     39 H14        7.5828    5.0344    8.9327 H         1 RES1    0.0000
     40 C26        1.5061    6.0475    2.1822 C.ar      1 RES1    0.0000
     41 H15        0.6336    6.0922    1.8640 H         1 RES1    0.0000
     42 C27        9.7285    0.1300    4.6800 C.ar      1 RES1    0.0000
     43 H16        9.8405   -0.6989    5.0863 H         1 RES1    0.0000
     44 C28       10.7739    0.7134    4.0174 C.ar      1 RES1    0.0000
     45 H17       11.6002    0.2858    3.9840 H         1 RES1    0.0000
     46 C29       10.6057    1.9218    3.4053 C.ar      1 RES1    0.0000
     47 H18       11.3141    2.3066    2.9409 H         1 RES1    0.0000
     48 C30        6.8535    6.8439   11.5048 C.ar      1 RES1    0.0000
     49 H19        7.1686    7.0674   12.3517 H         1 RES1    0.0000
     50 C31        7.5482    5.9662   10.7196 C.ar      1 RES1    0.0000
     51 H20        8.3427    5.5992   11.0357 H         1 RES1    0.0000
     52 C32        5.7027    7.3855   11.0389 C.ar      1 RES1    0.0000
     53 H21        5.2423    8.0060   11.5562 H         1 RES1    0.0000
     54 N1         4.0416    3.1473    5.8661 N.3       1 RES1    0.0000
     55 N2         5.3397    5.7862    7.7557 N.am      1 RES1    0.0000
     56 H22        4.8413    6.3753    7.3755 H         1 RES1    0.0000
     57 N3         7.0924    2.6697    4.2315 N.am      1 RES1    0.0000
     58 O1         3.6781    2.9043    4.4594 O.3       1 RES1    0.0000
     59 O2         5.7282    0.9840    3.4715 O.2       1 RES1    0.0000
     60 O3         6.2411    3.7198    7.4656 O.2       1 RES1    0.0000
     61 O4         7.8528    4.6348    5.1571 O.2       1 RES1    0.0000
     62 C33        2.8214    3.1276    6.6286 C.ar      1 RES1    0.0000
     63 C34        2.9054    2.7086    7.9396 C.ar      1 RES1    0.0000
     64 H23        3.7260    2.4556    8.2958 H         1 RES1    0.0000
     65 C35        0.5303    3.0009    8.2129 C.ar      1 RES1    0.0000
     66 C36        1.7709    2.6658    8.7196 C.ar      1 RES1    0.0000
     67 H24        1.8419    2.4041    9.6097 H         1 RES1    0.0000
     68 C37        1.6012    3.4983    6.1192 C.ar      1 RES1    0.0000
     69 H25        1.5383    3.8046    5.2428 H         1 RES1    0.0000
     70 C38        0.4684    3.4173    6.9039 C.ar      1 RES1    0.0000
     71 H26       -0.3549    3.6488    6.5398 H         1 RES1    0.0000
     72 C39       -0.7093    2.9106    9.0569 C.3       1 RES1    0.0000
     73 H27       -0.6717    3.5730    9.7515 H         1 RES1    0.0000
     74 H28       -0.7667    2.0370    9.4510 H         1 RES1    0.0000
     75 H29       -1.4819    3.0664    8.5074 H         1 RES1    0.0000
@<TRIPOS>BOND
     1    1    3 1
     2    2    7 1
     3    3    7 1
     4    4    1 1
     5    5    4 1
     6    6    1 1
     7    7    8 1
     8    9   10 ar
     9   10    4 1
    10   11    3 1
    11   12    3 1
    12   13   12 1
    13   14   28 ar
    14   15   12 1
    15   16    4 1
    16   17   20 ar
    17   18    9 ar
    18   19   18 1
    19   20   21 1
    20   22   16 ar
    21   23   22 1
    22   24   10 ar
    23   25   24 1
    24   26   15 ar
    25   27   26 1
    26   28   29 1
    27   30   14 ar
    28   31   30 1
    29   32   26 ar
    30   33   32 1
    31   34   18 ar
    32   35   34 1
    33   36   22 ar
    34   37   36 1
    35   38   17 ar
    36   39   38 1
    37   40   24 ar
    38   41   40 1
    39   42   30 ar
    40   43   42 1
    41   44   42 ar
    42   45   44 1
    43   46   28 ar
    44   47   46 1
    45   48   49 1
    46   50   38 ar
    47   51   50 1
    48   52   20 ar
    49   53   52 1
    50   54    7 1
    51   55    2 1
    52   56   55 1
    53   57    6 1
    54   58    1 1
    55   59    6 2
    56   60    2 2
    57   61   11 2
    58   62   54 1
    59   63   62 ar
    60   64   63 1
    61   65   66 ar
    62   66   63 ar
    63   67   66 1
    64   68   62 ar
    65   69   68 1
    66   70   65 ar
    67   71   70 1
    68   72   65 1
    69   73   72 1
    70   74   72 1
    71   75   72 1
    72    9   12 1
    73   11   57 1
    74   14   57 1
    75   15   16 ar
    76   17   55 1
    77   32   36 ar
    78   34   40 ar
    79   44   46 ar
    80   48   50 ar
    81   48   52 ar
    82   54   58 1
    83   68   70 ar
@<TRIPOS>SUBSTRUCTURE
     1 RES1 1

@<TRIPOS>CRYSIN
  10.5707   13.5442   21.3890  90.0000  98.4380  90.0000  14 1

