# MOL2 file generated by ConQuest
# Please check atom types

@<TRIPOS>MOLECULE
RIGSOS
    75    83     1
SMALL
NO_CHARGES
****
Generated from CSD

@<TRIPOS>ATOM
      1 O1         2.8300    5.4840   15.8430 O.3       1 RES1    0.0000
      2 O2         1.8043    2.5489   12.5473 O.2       1 RES1    0.0000
      3 O3         0.3204    1.9719   16.2979 O.2       1 RES1    0.0000
      4 O4         4.5790    6.0911   13.3976 O.2       1 RES1    0.0000
      5 N1         3.1986    4.3834   12.6606 N.am      1 RES1    0.0000
      6 N2         1.4185    5.3591   15.5547 N.3       1 RES1    0.0000
      7 N3         0.5239    3.8260   17.6374 N.am      1 RES1    0.0000
      8 H1         0.7199    4.6627   17.6088 H         1 RES1    0.0000
      9 C1         2.5451    3.4004   14.7215 C.3       1 RES1    0.0000
     10 C2         1.0125    6.2740   14.5187 C.ar      1 RES1    0.0000
     11 C3         3.4625    2.2917   16.7512 C.ar      1 RES1    0.0000
     12 C4         3.5241    4.5516   15.0014 C.3       1 RES1    0.0000
     13 C5         1.1955    3.9242   15.2908 C.3       1 RES1    0.0000
     14 H2         0.5335    3.8618   14.5698 H         1 RES1    0.0000
     15 C6         4.4731    1.9204   14.5568 C.ar      1 RES1    0.0000
     16 C7         2.4446    3.3448   13.1971 C.2       1 RES1    0.0000
     17 C8         0.6417    3.1378   16.4832 C.2       1 RES1    0.0000
     18 C9         3.1441    2.0689   15.2794 C.3       1 RES1    0.0000
     19 H3         2.5509    1.3014   15.1341 H         1 RES1    0.0000
     20 C10        4.3635    3.3402   16.9793 C.ar      1 RES1    0.0000
     21 C11        3.8593    5.1518   13.6249 C.2       1 RES1    0.0000
     22 C12        0.1097    3.3071   18.8919 C.ar      1 RES1    0.0000
     23 C13        2.9672    1.5547   17.8120 C.ar      1 RES1    0.0000
     24 H4         2.3582    0.8679   17.6622 H         1 RES1    0.0000
     25 C14        5.3603    2.9796   14.7784 C.ar      1 RES1    0.0000
     26 C15        4.8059    4.0432   15.7133 C.3       1 RES1    0.0000
     27 H5         5.4482    4.7618   15.8891 H         1 RES1    0.0000
     28 C16        4.7941    3.6262   18.2669 C.ar      1 RES1    0.0000
     29 H6         5.4003    4.3146   18.4172 H         1 RES1    0.0000
     30 C17       -0.1951    6.0631   13.8441 C.ar      1 RES1    0.0000
     31 H7        -0.7096    5.3138   14.0398 H         1 RES1    0.0000
     32 C18        1.7330    7.4374   14.2632 C.ar      1 RES1    0.0000
     33 H8         2.5101    7.6199   14.7414 H         1 RES1    0.0000
     34 C19        1.2859    8.3270   13.2897 C.ar      1 RES1    0.0000
     35 H9         1.7830    9.0939   13.1170 H         1 RES1    0.0000
     36 C20        0.1154    8.1013   12.5668 C.ar      1 RES1    0.0000
     37 C21        3.3865    1.8502   19.1077 C.ar      1 RES1    0.0000
     38 H10        3.0493    1.3647   19.8242 H         1 RES1    0.0000
     39 C22        4.3057    2.8673   19.3296 C.ar      1 RES1    0.0000
     40 H11        4.5987    3.0435   20.1941 H         1 RES1    0.0000
     41 C23        3.2568    4.6594   11.2486 C.ar      1 RES1    0.0000
     42 C24        4.8199    0.8861   13.7008 C.ar      1 RES1    0.0000
     43 H12        4.2354    0.1772   13.5555 H         1 RES1    0.0000
     44 C25       -0.6263    6.9694   12.8852 C.ar      1 RES1    0.0000
     45 H13       -1.4316    6.8153   12.4459 H         1 RES1    0.0000
     46 C26       -0.6692    2.1570   18.9994 C.ar      1 RES1    0.0000
     47 H14       -0.9630    1.7137   18.2380 H         1 RES1    0.0000
     48 C27        6.5996    3.0075   14.1561 C.ar      1 RES1    0.0000
     49 H15        7.1935    3.7057   14.3143 H         1 RES1    0.0000
     50 C28       -1.0013    1.6796   20.2646 C.ar      1 RES1    0.0000
     51 H16       -1.5157    0.9092   20.3428 H         1 RES1    0.0000
     52 C29        6.0577    0.9251   13.0602 C.ar      1 RES1    0.0000
     53 H17        6.2946    0.2425   12.4726 H         1 RES1    0.0000
     54 C30       -0.5779    2.3322   21.4085 C.ar      1 RES1    0.0000
     55 H18       -0.7865    1.9911   22.2493 H         1 RES1    0.0000
     56 C31        0.5038    3.9918   20.0385 C.ar      1 RES1    0.0000
     57 H19        0.9963    4.7774   19.9653 H         1 RES1    0.0000
     58 C32        6.9411    1.9706   13.2874 C.ar      1 RES1    0.0000
     59 H20        7.7663    1.9800   12.8577 H         1 RES1    0.0000
     60 C33        0.1631    3.5026   21.2911 C.ar      1 RES1    0.0000
     61 H21        0.4306    3.9592   22.0549 H         1 RES1    0.0000
     62 C34       -0.3116    9.0302   11.4572 C.3       1 RES1    0.0000
     63 H22        0.0744    9.8975   11.5994 H         1 RES1    0.0000
     64 H23       -1.2686    9.1031   11.4507 H         1 RES1    0.0000
     65 H24       -0.0110    8.6815   10.6156 H         1 RES1    0.0000
     66 C35        4.1670    3.9859   10.4578 C.ar      1 RES1    0.0000
     67 H25        4.7388    3.3484   10.8215 H         1 RES1    0.0000
     68 C36        4.2039    4.2925    9.0850 C.ar      1 RES1    0.0000
     69 H26        4.8006    3.8480    8.5260 H         1 RES1    0.0000
     70 C37        2.3839    5.5973   10.7197 C.ar      1 RES1    0.0000
     71 H27        1.7656    6.0246   11.2677 H         1 RES1    0.0000
     72 C38        3.3583    5.2513    8.5611 C.ar      1 RES1    0.0000
     73 H28        3.4087    5.4644    7.6567 H         1 RES1    0.0000
     74 C39        2.4444    5.8924    9.3611 C.ar      1 RES1    0.0000
     75 H29        1.8661    6.5233    8.9951 H         1 RES1    0.0000
@<TRIPOS>BOND
     1    1    6 1
     2    2   16 2
     3    3   17 2
     4    4   21 2
     5    5   16 1
     6    6   10 1
     7    7    8 1
     8    9   12 1
     9   10   30 ar
    10   11   18 1
    11   12    1 1
    12   13    6 1
    13   14   13 1
    14   15   18 1
    15   16    9 1
    16   17    7 1
    17   18    9 1
    18   19   18 1
    19   20   11 ar
    20   21    5 1
    21   22    7 1
    22   23   11 ar
    23   24   23 1
    24   25   15 ar
    25   26   12 1
    26   27   26 1
    27   28   20 ar
    28   29   28 1
    29   30   31 1
    30   32   10 ar
    31   33   32 1
    32   34   32 ar
    33   35   34 1
    34   36   34 ar
    35   37   23 ar
    36   38   37 1
    37   39   28 ar
    38   40   39 1
    39   41    5 1
    40   42   15 ar
    41   43   42 1
    42   44   30 ar
    43   45   44 1
    44   46   22 ar
    45   47   46 1
    46   48   25 ar
    47   49   48 1
    48   50   46 ar
    49   51   50 1
    50   52   42 ar
    51   53   52 1
    52   54   50 ar
    53   55   54 1
    54   56   22 ar
    55   57   56 1
    56   58   48 ar
    57   59   58 1
    58   60   54 ar
    59   61   60 1
    60   62   36 1
    61   63   62 1
    62   64   62 1
    63   65   62 1
    64   66   41 ar
    65   67   66 1
    66   68   66 ar
    67   69   68 1
    68   70   41 ar
    69   71   70 1
    70   72   68 ar
    71   73   72 1
    72   74   70 ar
    73   75   74 1
    74    9   13 1
    75   12   21 1
    76   13   17 1
    77   20   26 1
    78   25   26 1
    79   36   44 ar
    80   37   39 ar
    81   52   58 ar
    82   56   60 ar
    83   72   74 ar
@<TRIPOS>SUBSTRUCTURE
     1 RES1 1

