# MOL2 file generated by ConQuest
# Please check atom types

@<TRIPOS>MOLECULE
RIHJAT
    55    59     1
SMALL
NO_CHARGES
****
Generated from CSD

@<TRIPOS>ATOM
      1 O1         1.5214    6.9203    5.3779 O.2       1 RES1    0.0000
      2 O2         4.3283   13.5531    5.4070 O.2       1 RES1    0.0000
      3 O3         4.5052   15.6554    5.5020 O.2       1 RES1    0.0000
      4 N1         0.9762    9.1108    5.3901 N.am      1 RES1    0.0000
      5 N2        -0.2149   11.4621    5.3901 N.2       1 RES1    0.0000
      6 N3         3.8473   14.6620    5.4315 N.pl3     1 RES1    0.0000
      7 C1         1.8634    8.0857    5.4437 C.2       1 RES1    0.0000
      8 C2        -0.6421   12.6343    5.4145 C.2       1 RES1    0.0000
      9 C3        -0.4351    9.0814    5.4403 C.ar      1 RES1    0.0000
     10 C4        -1.1833    7.9069    5.4070 C.ar      1 RES1    0.0000
     11 C5        -2.5566    7.9861    5.4226 C.ar      1 RES1    0.0000
     12 C6        -3.2039    9.2036    5.4450 C.ar      1 RES1    0.0000
     13 C7        -2.4688   10.3713    5.4057 C.ar      1 RES1    0.0000
     14 C8        -1.0758   10.3306    5.3942 C.ar      1 RES1    0.0000
     15 C9         0.2319   13.8111    5.4037 C.ar      1 RES1    0.0000
     16 C10       -0.3224   15.0784    5.3881 C.ar      1 RES1    0.0000
     17 C11        0.4770   16.1986    5.3935 C.ar      1 RES1    0.0000
     18 C12        1.8477   16.0831    5.4199 C.ar      1 RES1    0.0000
     19 C13        2.3862   14.8045    5.4050 C.ar      1 RES1    0.0000
     20 C14        1.6092   13.6685    5.3393 C.ar      1 RES1    0.0000
     21 C15        3.3376    8.4885    5.4355 C.3       1 RES1    0.0000
     22 C16        3.6075    9.9934    5.3413 C.3       1 RES1    0.0000
     23 C17        5.1564   10.2491    5.4674 C.3       1 RES1    0.0000
     24 C18        5.7474    9.6087    6.6797 C.3       1 RES1    0.0000
     25 C19        5.5587    8.2011    6.6620 C.3       1 RES1    0.0000
     26 C20        4.0308    7.8956    6.6308 C.3       1 RES1    0.0000
     27 C21        5.6884    9.6834    4.2260 C.3       1 RES1    0.0000
     28 C22        5.5024    8.0857    4.2273 C.3       1 RES1    0.0000
     29 C23        3.9194    7.8956    4.1439 C.3       1 RES1    0.0000
     30 C24        6.1156    7.5381    5.4206 C.3       1 RES1    0.0000
     31 H1         1.2056    9.8440    5.6749 H         1 RES1    0.0000
     32 H2        -1.6511   12.8765    5.7969 H         1 RES1    0.0000
     33 H3        -0.6683    6.9927    5.6681 H         1 RES1    0.0000
     34 H4        -3.1581    7.1963    5.4782 H         1 RES1    0.0000
     35 H5        -4.1278    9.2783    5.6138 H         1 RES1    0.0000
     36 H6        -2.8960   11.2924    5.2409 H         1 RES1    0.0000
     37 H7        -1.2973   15.2526    5.6138 H         1 RES1    0.0000
     38 H8         0.0262   17.1309    5.4986 H         1 RES1    0.0000
     39 H9         2.5029   16.9272    5.0647 H         1 RES1    0.0000
     40 H10        2.1097   12.7181    5.3155 H         1 RES1    0.0000
     41 H11        3.2760   10.6814    5.5121 H         1 RES1    0.0000
     42 H12        3.0925   10.1835    4.4206 H         1 RES1    0.0000
     43 H13        5.2809   11.2924    5.2070 H         1 RES1    0.0000
     44 H14        7.0237    9.8667    6.7325 H         1 RES1    0.0000
     45 H15        5.6871   10.4098    7.5055 H         1 RES1    0.0000
     46 H16        5.7396    8.6899    8.0411 H         1 RES1    0.0000
     47 H17        3.4988    8.6899    7.6004 H         1 RES1    0.0000
     48 H18        4.1933    6.9700    5.8715 H         1 RES1    0.0000
     49 H19        5.0975    9.9346    3.3629 H         1 RES1    0.0000
     50 H20        6.6306    9.6404    4.2104 H         1 RES1    0.0000
     51 H21        5.7789    7.6716    3.5527 H         1 RES1    0.0000
     52 H22        3.4595    7.9658    3.4036 H         1 RES1    0.0000
     53 H23        3.6167    6.7664    4.2239 H         1 RES1    0.0000
     54 H24        7.1679    7.6942    4.9833 H         1 RES1    0.0000
     55 H25        5.9361    6.5627    5.7630 H         1 RES1    0.0000
@<TRIPOS>BOND
     1    1    7 2
     2    2    6 2
     3    3    6 2
     4    4    7 1
     5    5    8 2
     6    6   19 1
     7    7   21 1
     8    8   15 1
     9    9    4 1
    10   10    9 ar
    11   11   10 ar
    12   12   11 ar
    13   13   12 ar
    14   14    5 1
    15   15   16 ar
    16   16   17 ar
    17   17   18 ar
    18   18   19 ar
    19   19   20 ar
    20   20   15 ar
    21   21   22 1
    22   22   23 1
    23   23   24 1
    24   24   25 1
    25   25   26 1
    26   26   21 1
    27   27   23 1
    28   28   27 1
    29   29   21 1
    30   30   25 1
    31   31    4 1
    32   32    8 1
    33   33   10 1
    34   34   11 1
    35   35   12 1
    36   36   13 1
    37   37   16 1
    38   38   17 1
    39   39   18 1
    40   40   20 1
    41   41   22 1
    42   42   22 1
    43   43   23 1
    44   44   24 1
    45   45   24 1
    46   46   25 1
    47   47   26 1
    48   48   26 1
    49   49   27 1
    50   50   27 1
    51   51   28 1
    52   52   29 1
    53   53   29 1
    54   54   30 1
    55   55   30 1
    56    9   14 ar
    57   13   14 ar
    58   28   29 1
    59   28   30 1
@<TRIPOS>SUBSTRUCTURE
     1 RES1 1

@<TRIPOS>CRYSIN
  13.1040   22.6300    6.7800  90.0000  90.0000  90.0000  33 1

