# MOL2 file generated by ConQuest
# Please check atom types

@<TRIPOS>MOLECULE
RIHJIB
    22    20     2
SMALL
NO_CHARGES
****
Generated from CSD

@<TRIPOS>ATOM
      1 O1         6.6421    6.3572    2.0250 O.3       1 RES1    0.0000
      2 N1         5.2299    6.3917    2.3616 N.3       1 RES1    0.0000
      3 C1         4.5829    5.6228    1.3184 C.3       1 RES1    0.0000
      4 C2         5.0970    5.7265    3.6383 C.3       1 RES1    0.0000
      5 O2         9.1281    8.9490    2.6534 O.3       2 RES2    0.0000
      6 N2         7.6802    8.8583    2.6441 N.3       2 RES2    0.0000
      7 C3         7.2703    9.8244    1.6363 C.3       2 RES2    0.0000
      8 C4         7.2525    9.2830    3.9656 C.3       2 RES2    0.0000
      9 H1         6.8843    7.1491    2.2730 H         1 RES1    0.0000
     10 H2         4.7070    6.0548    0.4242 H         1 RES1    0.0000
     11 H3         3.6213    5.5537    1.5122 H         1 RES1    0.0000
     12 H4         4.9689    4.7344    1.2652 H         1 RES1    0.0000
     13 H5         4.1601    5.7020    3.8624 H         1 RES1    0.0000
     14 H6         5.5297    6.3327    4.3376 H         1 RES1    0.0000
     15 H7         5.4314    4.7733    3.6039 H         1 RES1    0.0000
     16 H8         9.3524    8.1772    2.7295 H         2 RES2    0.0000
     17 H9         6.2869    9.8619    1.6665 H         2 RES2    0.0000
     18 H10        7.6087    9.4875    0.7566 H         2 RES2    0.0000
     19 H11        7.6236   10.7561    1.8332 H         2 RES2    0.0000
     20 H12        7.5412    8.6567    4.6201 H         2 RES2    0.0000
     21 H13        6.2541    9.2989    3.9708 H         2 RES2    0.0000
     22 H14        7.6385   10.2391    4.1511 H         2 RES2    0.0000
@<TRIPOS>BOND
     1    1    2 1
     2    2    3 1
     3    3   10 1
     4    4    2 1
     5    5    6 1
     6    6    7 1
     7    7   17 1
     8    8    6 1
     9    9    1 1
    10   11    3 1
    11   12    3 1
    12   13    4 1
    13   14    4 1
    14   15    4 1
    15   16    5 1
    16   18    7 1
    17   19    7 1
    18   20    8 1
    19   21    8 1
    20   22    8 1
@<TRIPOS>SUBSTRUCTURE
     1 RES1 1
     2 RES2 5

@<TRIPOS>CRYSIN
   9.9240   14.3990   10.4220  90.0000  90.0000  90.0000  61 1

