# MOL2 file generated by ConQuest
# Please check atom types

@<TRIPOS>MOLECULE
RIJBIY
    32    34     1
SMALL
NO_CHARGES
****
Generated from CSD

@<TRIPOS>ATOM
      1 O1         2.0293    0.1901    1.5595 O.2       1 RES1    0.0000
      2 O2         2.4592    0.4416   -0.5571 O.2       1 RES1    0.0000
      3 O3         4.5943   -1.8041    4.6452 O.2       1 RES1    0.0000
      4 N1         4.1292    3.6874    2.0682 N.2       1 RES1    0.0000
      5 N2         3.5257    2.4765    2.1219 N.pl3     1 RES1    0.0000
      6 N3         2.5509    0.7936    0.6271 N.pl3     1 RES1    0.0000
      7 C1         3.2939    1.9890    0.8671 C.2       1 RES1    0.0000
      8 C2         3.7564    2.8971   -0.0586 C.2       1 RES1    0.0000
      9 C3         3.8171    2.9956   -1.4599 C.2       1 RES1    0.0000
     10 C4         4.3935    4.1174   -1.9864 C.2       1 RES1    0.0000
     11 C5         4.8985    5.1553   -1.1768 C.2       1 RES1    0.0000
     12 C6         4.8485    5.0887    0.1714 C.2       1 RES1    0.0000
     13 C7         4.2580    3.9450    0.7410 C.2       1 RES1    0.0000
     14 C8         3.2859    1.9446    3.4419 C.ar      1 RES1    0.0000
     15 C9         3.7705    0.7075    3.8035 C.ar      1 RES1    0.0000
     16 C10        3.5708    0.2558    5.1053 C.ar      1 RES1    0.0000
     17 C11        2.8870    1.0585    6.0022 C.ar      1 RES1    0.0000
     18 C12        2.4141    2.2962    5.6196 C.ar      1 RES1    0.0000
     19 C13        2.6223    2.7528    4.3333 C.ar      1 RES1    0.0000
     20 C14        4.1212   -1.0745    5.4902 C.2       1 RES1    0.0000
     21 C15        4.0915   -1.5051    6.9335 C.3       1 RES1    0.0000
     22 H1         3.4854    2.3179   -2.0118 H         1 RES1    0.0000
     23 H2         4.4510    4.2020   -2.9176 H         1 RES1    0.0000
     24 H3         5.2738    5.9053   -1.5860 H         1 RES1    0.0000
     25 H4         5.1927    5.7722    0.6990 H         1 RES1    0.0000
     26 H5         4.2194    0.1812    3.1853 H         1 RES1    0.0000
     27 H6         2.7551    0.7619    6.8727 H         1 RES1    0.0000
     28 H7         1.9518    2.8286    6.2245 H         1 RES1    0.0000
     29 H8         2.3185    3.5927    4.0745 H         1 RES1    0.0000
     30 H9         4.5969   -0.8760    7.4655 H         1 RES1    0.0000
     31 H10        4.4743   -2.3749    7.0231 H         1 RES1    0.0000
     32 H11        3.1817   -1.5164    7.2509 H         1 RES1    0.0000
@<TRIPOS>BOND
     1    1    6 2
     2    2    6 2
     3    3   20 2
     4    4    5 1
     5    5    7 1
     6    6    7 1
     7    7    8 2
     8    8    9 1
     9    9   10 2
    10   10   11 1
    11   11   12 2
    12   12   13 1
    13   13    4 2
    14   14    5 1
    15   15   14 ar
    16   16   15 ar
    17   17   16 ar
    18   18   17 ar
    19   19   14 ar
    20   20   16 1
    21   21   20 1
    22   22    9 1
    23   23   10 1
    24   24   11 1
    25   25   12 1
    26   26   15 1
    27   27   17 1
    28   28   18 1
    29   29   19 1
    30   30   21 1
    31   31   21 1
    32   32   21 1
    33    8   13 1
    34   18   19 ar
@<TRIPOS>SUBSTRUCTURE
     1 RES1 1

@<TRIPOS>CRYSIN
   7.8053    8.2606   11.8690  91.0640 108.8900 113.9200   2 1

