# MOL2 file generated by ConQuest
# Please check atom types

@<TRIPOS>MOLECULE
RIJGOG
    46    47     1
SMALL
NO_CHARGES
****
Generated from CSD

@<TRIPOS>ATOM
      1 C1         1.0550    1.7507    4.4190 C.3       1 RES1    0.0000
      2 H1         1.2554    1.3144    5.2964 H         1 RES1    0.0000
      3 C2         1.5192    3.2138    4.5447 C.3       1 RES1    0.0000
      4 H2         0.9648    3.7924    3.9471 H         1 RES1    0.0000
      5 C3         3.0194    2.9662    2.7946 C.3       1 RES1    0.0000
      6 H3         2.3792    3.5241    2.2658 H         1 RES1    0.0000
      7 C4         1.7817    0.9355    3.3555 C.2       1 RES1    0.0000
      8 C5         1.4285    3.7200    5.9592 C.3       1 RES1    0.0000
      9 H4         0.4984    3.6715    6.2651 H         1 RES1    0.0000
     10 H5         1.7344    4.6503    5.9936 H         1 RES1    0.0000
     11 H6         1.9922    3.1685    6.5402 H         1 RES1    0.0000
     12 C6         4.4332    3.2048    2.2836 C.3       1 RES1    0.0000
     13 C7         4.7376    4.6969    2.4567 C.3       1 RES1    0.0000
     14 H7         4.7363    4.9219    3.4112 H         1 RES1    0.0000
     15 H8         4.0532    5.2251    1.9955 H         1 RES1    0.0000
     16 H9         5.6173    4.8973    2.0749 H         1 RES1    0.0000
     17 C8         5.4400    2.3591    3.0543 C.3       1 RES1    0.0000
     18 H10        5.4238    2.6138    4.0005 H         1 RES1    0.0000
     19 H11        6.3374    2.5085    2.6915 H         1 RES1    0.0000
     20 H12        5.2056    1.4120    2.9666 H         1 RES1    0.0000
     21 C9         4.4740    2.8518    0.7920 C.3       1 RES1    0.0000
     22 H13        5.3700    3.0315    0.4375 H         1 RES1    0.0000
     23 H14        3.8161    3.3955    0.3095 H         1 RES1    0.0000
     24 H15        4.2612    1.9020    0.6747 H         1 RES1    0.0000
     25 C10       -0.4941    1.7036    4.2447 C.3       1 RES1    0.0000
     26 H16       -0.8789    2.3229    4.9289 H         1 RES1    0.0000
     27 C11       -1.0356    0.3045    4.5660 C.3       1 RES1    0.0000
     28 H17       -0.7856   -0.3271    3.8463 H         1 RES1    0.0000
     29 H18       -0.6447   -0.0213    5.4150 H         1 RES1    0.0000
     30 C12       -0.9706    2.2046    2.8883 C.ar      1 RES1    0.0000
     31 C13       -0.7830    1.4766    1.7074 C.ar      1 RES1    0.0000
     32 H19       -0.3611    0.6258    1.7358 H         1 RES1    0.0000
     33 C14       -1.2134    1.9984    0.4921 C.ar      1 RES1    0.0000
     34 H20       -1.0696    1.5057   -0.3071 H         1 RES1    0.0000
     35 C15       -1.8467    3.2241    0.4328 C.ar      1 RES1    0.0000
     36 H21       -2.1410    3.5707   -0.4019 H         1 RES1    0.0000
     37 C16       -2.0493    3.9444    1.5959 C.ar      1 RES1    0.0000
     38 H22       -2.4842    4.7874    1.5627 H         1 RES1    0.0000
     39 C17       -1.6166    3.4343    2.8160 C.ar      1 RES1    0.0000
     40 H23       -1.7638    3.9334    3.6104 H         1 RES1    0.0000
     41 N1        -2.5323    0.3763    4.6858 N.pl3     1 RES1    0.0000
     42 O1         2.9014    3.2836    4.1371 O.3       1 RES1    0.0000
     43 O2         2.7072    1.5477    2.5919 O.3       1 RES1    0.0000
     44 O3         1.5604   -0.2263    3.1824 O.2       1 RES1    0.0000
     45 O4        -2.9932    1.1042    5.5490 O.2       1 RES1    0.0000
     46 O5        -3.2067   -0.2942    3.9436 O.2       1 RES1    0.0000
@<TRIPOS>BOND
     1    1    2 1
     2    3    1 1
     3    4    3 1
     4    5    6 1
     5    7    1 1
     6    8    3 1
     7    9    8 1
     8   10    8 1
     9   11    8 1
    10   12    5 1
    11   13   12 1
    12   14   13 1
    13   15   13 1
    14   16   13 1
    15   17   12 1
    16   18   17 1
    17   19   17 1
    18   20   17 1
    19   21   12 1
    20   22   21 1
    21   23   21 1
    22   24   21 1
    23   25    1 1
    24   26   25 1
    25   27   25 1
    26   28   27 1
    27   29   27 1
    28   30   25 1
    29   31   30 ar
    30   32   31 1
    31   33   31 ar
    32   34   33 1
    33   35   33 ar
    34   36   35 1
    35   37   35 ar
    36   38   37 1
    37   39   30 ar
    38   40   39 1
    39   41   27 1
    40   42    3 1
    41   43    5 1
    42   44    7 2
    43   45   41 2
    44   46   41 2
    45    5   42 1
    46    7   43 1
    47   37   39 ar
@<TRIPOS>SUBSTRUCTURE
     1 RES1 1

@<TRIPOS>CRYSIN
  10.8000    6.4651   12.9130  90.0000 113.3350  90.0000   4 1

