# MOL2 file generated by ConQuest
# Please check atom types

@<TRIPOS>MOLECULE
RIJLUT
    19    17     2
SMALL
NO_CHARGES
****
Generated from CSD

@<TRIPOS>ATOM
      1 O1         9.6568    1.4722   10.1693 O.3       1 RES1    0.0000
      2 N1         8.3899    1.5019    9.6606 N.2       1 RES1    0.0000
      3 N2         5.3320    1.6052    9.4549 N.1       1 RES1    0.0000
      4 C1         7.5167    1.3247   12.2122 C.ar      1 RES1    0.0000
      5 C2         6.3724    1.7210   12.8969 C.ar      1 RES1    0.0000
      6 H1         5.6363    2.0339   12.4223 H         1 RES1    0.0000
      7 C3         6.3187    1.6549   14.2634 C.ar      1 RES1    0.0000
      8 H2         5.5494    1.9257   14.7103 H         1 RES1    0.0000
      9 C4         7.3960    1.1896   14.9802 C.ar      1 RES1    0.0000
     10 H3         7.3597    1.1545   15.9094 H         1 RES1    0.0000
     11 C5         8.5300    0.7754   14.3151 C.ar      1 RES1    0.0000
     12 H4         9.2546    0.4480   14.7977 H         1 RES1    0.0000
     13 C6         8.6011    0.8416   12.9467 C.ar      1 RES1    0.0000
     14 H5         9.3730    0.5645   12.5080 H         1 RES1    0.0000
     15 C7         7.5602    1.4309   10.7554 C.2       1 RES1    0.0000
     16 C8         6.3066    1.5218   10.0301 C.1       1 RES1    0.0000
     17 H6         9.8911    1.6128    9.0541 H         1 RES1    0.0000
     18 O2         8.7425    1.5308    8.9877 Du        2 SUP2    0.0000
     19 N3         8.8029    1.4378   10.3720 Du        2 SUP2    0.0000
@<TRIPOS>BOND
     1    1    2 1
     2    2   15 2
     3    3   16 3
     4    4    5 ar
     5    5    6 1
     6    7    5 ar
     7    8    7 1
     8    9    7 ar
     9   10    9 1
    10   11    9 ar
    11   12   11 1
    12   13    4 ar
    13   14   13 1
    14   15    4 1
    15   16   15 1
    16   17    1 1
    17   11   13 ar
@<TRIPOS>SUBSTRUCTURE
     1 RES1 1
     2 SUP2 18

@<TRIPOS>CRYSIN
  12.0770    6.8924   17.4790  90.0000  90.0000  90.0000  61 1

