# MOL2 file generated by ConQuest
# Please check atom types

@<TRIPOS>MOLECULE
RIJMOM
    34    36     1
SMALL
NO_CHARGES
****
Generated from CSD

@<TRIPOS>ATOM
      1 O1         6.6156    1.7950    3.3327 O.3       1 RES1    0.0000
      2 O2         4.7153    4.1489    3.1794 O.3       1 RES1    0.0000
      3 H1         3.9690    4.0087    3.4894 H         1 RES1    0.0000
      4 O3         3.6527    0.4603    1.6574 O.3       1 RES1    0.0000
      5 H2         3.2178    0.3511    2.3441 H         1 RES1    0.0000
      6 O4        14.6154    2.9033    3.7492 O.2       1 RES1    0.0000
      7 O5        13.9497    4.5520    4.9268 O.2       1 RES1    0.0000
      8 N1        13.7277    3.6316    4.1643 N.pl3     1 RES1    0.0000
      9 N2         8.6223    2.5188    2.3849 N.pl3     1 RES1    0.0000
     10 C1        10.8372    2.1511    2.3989 C.ar      1 RES1    0.0000
     11 C2         5.0257    3.1506    2.2268 C.3       1 RES1    0.0000
     12 H3         4.3558    3.1059    1.5130 H         1 RES1    0.0000
     13 C3         5.0232    0.6116    1.9853 C.3       1 RES1    0.0000
     14 H4         5.5383    0.7273    1.1716 H         1 RES1    0.0000
     15 H5         5.3387   -0.1913    2.4285 H         1 RES1    0.0000
     16 C4         9.8042    2.9343    2.9594 C.ar      1 RES1    0.0000
     17 C5         7.2991    2.9360    2.7840 C.3       1 RES1    0.0000
     18 H6         7.3788    3.6227    3.4786 H         1 RES1    0.0000
     19 C6         6.4028    3.4515    1.6884 C.3       1 RES1    0.0000
     20 H7         6.5637    2.9851    0.8531 H         1 RES1    0.0000
     21 H8         6.5262    4.4035    1.5510 H         1 RES1    0.0000
     22 C7         8.9012    1.5052    1.4891 C.2       1 RES1    0.0000
     23 H9         8.2663    1.0611    0.9736 H         1 RES1    0.0000
     24 C8        12.3614    3.3624    3.7365 C.ar      1 RES1    0.0000
     25 C9        12.1519    2.3893    2.7976 C.ar      1 RES1    0.0000
     26 H10       12.8604    1.9050    2.4388 H         1 RES1    0.0000
     27 C10       11.3386    4.1325    4.2928 C.ar      1 RES1    0.0000
     28 H11       11.5357    4.7847    4.9254 H         1 RES1    0.0000
     29 C11       10.0467    3.9225    3.9016 C.ar      1 RES1    0.0000
     30 H12        9.3508    4.4271    4.2566 H         1 RES1    0.0000
     31 C12       10.2297    1.2524    1.4694 C.2       1 RES1    0.0000
     32 H13       10.6638    0.6151    0.9502 H         1 RES1    0.0000
     33 C13        5.2385    1.8015    2.8886 C.3       1 RES1    0.0000
     34 H14        4.6478    1.7269    3.6671 H         1 RES1    0.0000
@<TRIPOS>BOND
     1    1   17 1
     2    2    3 1
     3    4    5 1
     4    6    8 2
     5    7    8 2
     6    8   24 1
     7    9   16 1
     8   10   16 ar
     9   11    2 1
    10   12   11 1
    11   13    4 1
    12   14   13 1
    13   15   13 1
    14   16   29 ar
    15   17    9 1
    16   18   17 1
    17   19   11 1
    18   20   19 1
    19   21   19 1
    20   22    9 1
    21   23   22 1
    22   24   25 ar
    23   25   10 ar
    24   26   25 1
    25   27   24 ar
    26   28   27 1
    27   29   27 ar
    28   30   29 1
    29   31   10 1
    30   32   31 1
    31   33    1 1
    32   34   33 1
    33   11   33 1
    34   13   33 1
    35   17   19 1
    36   22   31 2
@<TRIPOS>SUBSTRUCTURE
     1 RES1 1

@<TRIPOS>CRYSIN
  12.4737   21.8340    4.6900  90.0000  90.0000  90.0000  19 1

