# MOL2 file generated by ConQuest
# Please check atom types

@<TRIPOS>MOLECULE
RIJNED
    62    64     2
SMALL
NO_CHARGES
****
Generated from CSD

@<TRIPOS>ATOM
      1 O1        -1.3539   -9.4260  -13.3281 O.3       1 RES1    0.0000
      2 O2        -4.4373   -9.3328  -12.9244 O.3       1 RES1    0.0000
      3 O3        -2.8072  -11.8716  -14.9001 O.3       1 RES1    0.0000
      4 O4        -1.6463  -10.3694  -16.0955 O.3       1 RES1    0.0000
      5 O5        -0.3953  -11.6321  -12.6018 O.2       1 RES1    0.0000
      6 O6        -2.1718  -12.2881  -11.5827 O.2       1 RES1    0.0000
      7 N1        -1.5405  -11.4738  -12.2450 N.pl3     1 RES1    0.0000
      8 C1        -2.2446  -10.1871  -12.5719 C.3       1 RES1    0.0000
      9 C2        -3.6048  -10.4944  -13.1888 C.3       1 RES1    0.0000
     10 C3        -3.4989  -10.6594  -14.6983 C.3       1 RES1    0.0000
     11 C4        -2.6101   -9.6202  -15.3976 C.3       1 RES1    0.0000
     12 C5        -1.9179   -8.6795  -14.4638 C.3       1 RES1    0.0000
     13 C6        -0.7531   -7.9251  -15.0394 C.3       1 RES1    0.0000
     14 C7        -2.0397  -11.7106  -16.1225 C.3       1 RES1    0.0000
     15 C8        -2.8795  -12.0592  -17.2994 C.3       1 RES1    0.0000
     16 C9        -0.7882  -12.5649  -15.9917 C.3       1 RES1    0.0000
     17 O7         1.5480   -9.7120   -9.1862 O.3       2 RES2    0.0000
     18 O8        -1.4868   -9.5351   -9.5515 O.3       2 RES2    0.0000
     19 O9         0.0325   -8.1819   -6.5638 O.3       2 RES2    0.0000
     20 O10        1.3121   -9.9742   -6.2710 O.3       2 RES2    0.0000
     21 O11        0.8491   -6.3204   -9.1592 O.2       2 RES2    0.0000
     22 O12        2.5574   -7.4660   -8.4898 O.2       2 RES2    0.0000
     23 N2         1.4270   -7.3755   -8.9503 N.pl3     2 RES2    0.0000
     24 C10        0.7075   -8.6329   -9.4392 C.3       2 RES2    0.0000
     25 C11       -0.6846   -8.6396   -8.7783 C.3       2 RES2    0.0000
     26 C12       -0.6042   -9.1771   -7.3470 C.3       2 RES2    0.0000
     27 C13        0.3306  -10.3933   -7.1878 C.3       2 RES2    0.0000
     28 C14        1.0059  -10.8377   -8.4471 C.3       2 RES2    0.0000
     29 C15        2.1543  -11.8091   -8.2865 C.3       2 RES2    0.0000
     30 C16        0.8000   -8.8458   -5.5675 C.3       2 RES2    0.0000
     31 C17       -0.0771   -9.2370   -4.3877 C.3       2 RES2    0.0000
     32 C18        1.9472   -7.9783   -5.1425 C.3       2 RES2    0.0000
     33 H1        -2.5395   -9.5351  -11.7632 H         1 RES1    0.0000
     34 H2        -3.9878  -11.4259  -12.8008 H         1 RES1    0.0000
     35 H3        -4.5047  -10.5729  -15.0806 H         1 RES1    0.0000
     36 H4        -3.2321   -9.0095  -16.0344 H         1 RES1    0.0000
     37 H5        -2.6734   -7.9543  -14.2022 H         1 RES1    0.0000
     38 H6        -5.3261   -9.6083  -12.6245 H         1 RES1    0.0000
     39 H7        -1.0878   -7.3396  -15.8823 H         1 RES1    0.0000
     40 H8         0.0373   -8.5904  -15.3549 H         1 RES1    0.0000
     41 H9        -0.3830   -7.2677  -14.2676 H         1 RES1    0.0000
     42 H10       -2.2445  -11.8104  -18.1394 H         1 RES1    0.0000
     43 H11       -3.7553  -11.4325  -17.3107 H         1 RES1    0.0000
     44 H12       -3.1713  -13.0958  -17.3662 H         1 RES1    0.0000
     45 H13       -0.7739  -13.6440  -16.0059 H         1 RES1    0.0000
     46 H14       -0.4608  -12.2136  -15.0238 H         1 RES1    0.0000
     47 H15       -0.1252  -12.1856  -16.7550 H         1 RES1    0.0000
     48 H16        0.5231   -8.7287  -10.4982 H         2 RES2    0.0000
     49 H17       -1.0729   -7.6323   -8.7442 H         2 RES2    0.0000
     50 H18       -1.6018   -9.4925   -7.0784 H         2 RES2    0.0000
     51 H19       -0.2420  -11.2462   -6.8524 H         2 RES2    0.0000
     52 H20        0.1787  -11.3207   -8.9475 H         2 RES2    0.0000
     53 H21       -2.3555   -9.3994   -9.2090 H         2 RES2    0.0000
     54 H22        1.7023  -12.6939   -7.8644 H         2 RES2    0.0000
     55 H23        2.6792  -11.2689   -7.5133 H         2 RES2    0.0000
     56 H24        2.8501  -12.0938   -9.0612 H         2 RES2    0.0000
     57 H25        0.3703   -9.8385   -3.6117 H         2 RES2    0.0000
     58 H26       -0.7162   -9.8571   -4.9989 H         2 RES2    0.0000
     59 H27       -0.6626   -8.4480   -3.9400 H         2 RES2    0.0000
     60 H28        1.3481   -7.3782   -4.4730 H         2 RES2    0.0000
     61 H29        2.6087   -7.3383   -5.7082 H         2 RES2    0.0000
     62 H30        2.5335   -8.6808   -4.5682 H         2 RES2    0.0000
@<TRIPOS>BOND
     1    1    8 1
     2    2    9 1
     3    3   10 1
     4    4   11 1
     5    5    7 2
     6    6    7 2
     7    7    8 1
     8    8    9 1
     9    9   10 1
    10   10   11 1
    11   11   12 1
    12   12    1 1
    13   13   12 1
    14   14    3 1
    15   15   14 1
    16   16   14 1
    17   17   24 1
    18   18   25 1
    19   19   26 1
    20   20   27 1
    21   21   23 2
    22   22   23 2
    23   23   24 1
    24   24   25 1
    25   25   26 1
    26   26   27 1
    27   27   28 1
    28   28   17 1
    29   29   28 1
    30   30   19 1
    31   31   30 1
    32   32   30 1
    33   33    8 1
    34   34    9 1
    35   35   10 1
    36   36   11 1
    37   37   12 1
    38   38    2 1
    39   39   13 1
    40   40   13 1
    41   41   13 1
    42   42   15 1
    43   43   15 1
    44   44   15 1
    45   45   16 1
    46   46   16 1
    47   47   16 1
    48   48   24 1
    49   49   25 1
    50   50   26 1
    51   51   27 1
    52   52   28 1
    53   53   18 1
    54   54   29 1
    55   55   29 1
    56   56   29 1
    57   57   31 1
    58   58   31 1
    59   59   31 1
    60   60   32 1
    61   61   32 1
    62   62   32 1
    63    4   14 1
    64   20   30 1
@<TRIPOS>SUBSTRUCTURE
     1 RES1 1
     2 RES2 17

@<TRIPOS>CRYSIN
   6.0010   13.3060   14.2220  90.0000  91.9700  90.0000   4 1

