# MOL2 file generated by ConQuest
# Please check atom types

@<TRIPOS>MOLECULE
RIJNAZ
    61    63     2
SMALL
NO_CHARGES
****
Generated from CSD

@<TRIPOS>ATOM
      1 O1         1.3577  -10.4584   -9.1921 O.3       1 RES1    0.0000
      2 O2         1.2972   -7.4966  -10.1138 O.3       1 RES1    0.0000
      3 O3        -1.6406   -9.4506   -9.4961 O.3       1 RES1    0.0000
      4 O4        -0.9173  -11.0488  -10.8848 O.3       1 RES1    0.0000
      5 O5         3.4379   -9.1440   -8.3174 O.2       1 RES1    0.0000
      6 O6         2.2427   -7.8410   -7.1115 O.2       1 RES1    0.0000
      7 N1         2.3713   -8.7241   -7.9443 N.pl3     1 RES1    0.0000
      8 C1         1.0674   -9.3019   -8.5151 C.3       1 RES1    0.0000
      9 C2         0.3765   -8.1830   -9.3330 C.3       1 RES1    0.0000
     10 C3        -0.6229   -8.8065  -10.2744 C.3       1 RES1    0.0000
     11 C4        -0.0323   -9.9620  -11.0948 C.3       1 RES1    0.0000
     12 C5         1.3660  -10.3543  -10.6574 C.3       1 RES1    0.0000
     13 C6         1.7824  -11.7249  -11.1492 C.3       1 RES1    0.0000
     14 C7        -2.0826  -10.5877  -10.2028 C.3       1 RES1    0.0000
     15 C8        -3.1617  -10.2205  -11.2183 C.3       1 RES1    0.0000
     16 C9        -2.5181  -11.6539   -9.2465 C.3       1 RES1    0.0000
     17 O7         1.1860   -2.3326   -8.4459 O.3       2 RES2    0.0000
     18 O8         2.1025   -2.8291   -5.5153 O.3       2 RES2    0.0000
     19 O9         3.8683   -3.6654   -8.5546 O.3       2 RES2    0.0000
     20 O10        2.1846   -5.0691   -9.1724 O.3       2 RES2    0.0000
     21 O11        0.2297   -0.6429   -6.6445 O.2       2 RES2    0.0000
     22 O12        2.1921    0.1750   -6.2195 O.2       2 RES2    0.0000
     23 N2         1.4257   -0.6235   -6.7458 N.pl3     2 RES2    0.0000
     24 C10        2.1017   -1.7023   -7.6329 C.3       2 RES2    0.0000
     25 C11        2.8979   -2.6095   -6.6692 C.3       2 RES2    0.0000
     26 C12        3.1102   -3.9296   -7.3636 C.3       2 RES2    0.0000
     27 C13        1.8180   -4.5668   -7.8652 C.3       2 RES2    0.0000
     28 C14        0.6768   -3.5807   -7.9492 C.3       2 RES2    0.0000
     29 C15       -0.4379   -3.9800   -8.8981 C.3       2 RES2    0.0000
     30 C16        3.5050   -4.6424   -9.5306 C.3       2 RES2    0.0000
     31 C17        3.4968   -3.9685  -10.8625 C.3       2 RES2    0.0000
     32 C18        4.4406   -5.8298   -9.4590 C.3       2 RES2    0.0000
     33 H1         0.3641   -9.6096   -7.7540 H         1 RES1    0.0000
     34 H2        -0.0954   -7.5012   -8.6411 H         1 RES1    0.0000
     35 H3        -0.9596   -8.0057  -10.9169 H         1 RES1    0.0000
     36 H4         0.0489   -9.6737  -12.1326 H         1 RES1    0.0000
     37 H5         2.0403   -9.6050  -11.0454 H         1 RES1    0.0000
     38 H6         2.0528   -6.7896   -9.9631 H         1 RES1    0.0000
     39 H7         1.8545  -11.7226  -12.2265 H         1 RES1    0.0000
     40 H8         2.7519  -11.9376  -10.7241 H         1 RES1    0.0000
     41 H9         1.0782  -12.4822  -10.8353 H         1 RES1    0.0000
     42 H10       -4.0251   -9.8361  -10.6970 H         1 RES1    0.0000
     43 H11       -2.7843   -9.4666  -11.8929 H         1 RES1    0.0000
     44 H12       -3.4428  -11.0991  -11.7817 H         1 RES1    0.0000
     45 H13       -3.4014  -11.3428   -8.7103 H         1 RES1    0.0000
     46 H14       -2.7378  -12.5451   -9.8148 H         1 RES1    0.0000
     47 H15       -1.7243  -11.8610   -8.5447 H         1 RES1    0.0000
     48 H16        2.7876   -1.2870   -8.3545 H         2 RES2    0.0000
     49 H17        3.8434   -2.1542   -6.4147 H         2 RES2    0.0000
     50 H18        3.5755   -4.5954   -6.6544 H         2 RES2    0.0000
     51 H19        1.4456   -5.3310   -7.2005 H         2 RES2    0.0000
     52 H20        0.2729   -3.5189   -6.9509 H         2 RES2    0.0000
     53 H21       -0.8593   -4.9192   -8.5694 H         2 RES2    0.0000
     54 H22       -1.2035   -3.2181   -8.8857 H         2 RES2    0.0000
     55 H23       -0.0556   -4.0898   -9.9013 H         2 RES2    0.0000
     56 H24        3.1849   -4.6721  -11.6186 H         2 RES2    0.0000
     57 H25        2.8050   -3.1391  -10.8329 H         2 RES2    0.0000
     58 H26        4.4862   -3.6025  -11.0973 H         2 RES2    0.0000
     59 H27        5.4193   -5.4935   -9.7679 H         2 RES2    0.0000
     60 H28        4.4962   -6.2337   -8.4607 H         2 RES2    0.0000
     61 H29        4.0947   -6.5963  -10.1385 H         2 RES2    0.0000
@<TRIPOS>BOND
     1    1    8 1
     2    2    9 1
     3    3   10 1
     4    4   11 1
     5    5    7 2
     6    6    7 2
     7    7    8 1
     8    8    9 1
     9    9   10 1
    10   10   11 1
    11   11   12 1
    12   12    1 1
    13   13   12 1
    14   14    3 1
    15   15   14 1
    16   16   14 1
    17   17   24 1
    18   18   25 1
    19   19   26 1
    20   20   27 1
    21   21   23 2
    22   22   23 2
    23   23   24 1
    24   24   25 1
    25   25   26 1
    26   26   27 1
    27   27   28 1
    28   28   17 1
    29   29   28 1
    30   30   19 1
    31   31   30 1
    32   32   30 1
    33   33    8 1
    34   34    9 1
    35   35   10 1
    36   36   11 1
    37   37   12 1
    38   38    2 1
    39   39   13 1
    40   40   13 1
    41   41   13 1
    42   42   15 1
    43   43   15 1
    44   44   15 1
    45   45   16 1
    46   46   16 1
    47   47   16 1
    48   48   24 1
    49   49   25 1
    50   50   26 1
    51   51   27 1
    52   52   28 1
    53   53   29 1
    54   54   29 1
    55   55   29 1
    56   56   31 1
    57   57   31 1
    58   58   31 1
    59   59   32 1
    60   60   32 1
    61   61   32 1
    62    4   14 1
    63   20   30 1
@<TRIPOS>SUBSTRUCTURE
     1 RES1 1
     2 RES2 17

@<TRIPOS>CRYSIN
   8.2940   11.4400   24.7100  90.0000  90.0000  90.0000  19 1

