# MOL2 file generated by ConQuest
# Please check atom types

@<TRIPOS>MOLECULE
RIJXEQ
    38    39     1
SMALL
NO_CHARGES
****
Generated from CSD

@<TRIPOS>ATOM
      1 C1         4.0631    3.0457   -1.4268 C.ar      1 RES1    0.0000
      2 C2         3.3235    2.0155   -2.0370 C.ar      1 RES1    0.0000
      3 C3         2.7919    1.0673   -1.1258 C.ar      1 RES1    0.0000
      4 C4         3.0639    1.1093    0.2361 C.ar      1 RES1    0.0000
      5 H1         2.7142    0.4331    0.8048 H         1 RES1    0.0000
      6 C5         3.8319    2.1150    0.7716 C.ar      1 RES1    0.0000
      7 C6         4.3309    3.1017   -0.0806 C.ar      1 RES1    0.0000
      8 H2         4.8555    3.8123    0.2702 H         1 RES1    0.0000
      9 C7         3.8415    3.1119   -5.2664 C.3       1 RES1    0.0000
     10 H3         3.4668    2.4673   -5.9024 H         1 RES1    0.0000
     11 H4         4.5995    3.5749   -5.6804 H         1 RES1    0.0000
     12 H5         3.1543    3.7644   -5.0194 H         1 RES1    0.0000
     13 C8         4.1657    2.0623    2.2341 C.2       1 RES1    0.0000
     14 C9         4.6172    3.4654    4.1647 C.2       1 RES1    0.0000
     15 C10        4.3807    2.8237    5.3295 C.2       1 RES1    0.0000
     16 C11        5.0036    3.6728    6.2807 C.2       1 RES1    0.0000
     17 C12        3.5657    1.5997    5.6205 C.3       1 RES1    0.0000
     18 H6         2.8427    1.5241    4.9637 H         1 RES1    0.0000
     19 H7         3.1839    1.6678    6.5202 H         1 RES1    0.0000
     20 H8         4.1380    0.8058    5.5673 H         1 RES1    0.0000
     21 C13        5.0234    3.5021    7.7698 C.3       1 RES1    0.0000
     22 H9         5.6453    4.1496    8.1639 H         1 RES1    0.0000
     23 H10        5.3143    2.5922    7.9902 H         1 RES1    0.0000
     24 H11        4.1233    3.6541    8.1282 H         1 RES1    0.0000
     25 N1         4.5596    4.1869   -2.2058 N.pl3     1 RES1    0.0000
     26 N2         1.9527   -0.0140   -1.5864 N.pl3     1 RES1    0.0000
     27 N3         3.1687    1.9382   -3.3848 N.3       1 RES1    0.0000
     28 N4         4.2593    3.2780    2.8352 N.am      1 RES1    0.0000
     29 N5         5.5552    4.7259    5.7411 N.2       1 RES1    0.0000
     30 O1         5.7436    4.4501   -2.1289 O.2       1 RES1    0.0000
     31 O2         3.7371    4.8440   -2.8273 O.2       1 RES1    0.0000
     32 O3         1.5207    0.0310   -2.7336 O.2       1 RES1    0.0000
     33 O4         1.6929   -0.9319   -0.8206 O.2       1 RES1    0.0000
     34 O5         4.2901    2.4190   -4.0900 O.3       1 RES1    0.0000
     35 O6         4.3473    1.0048    2.7961 O.2       1 RES1    0.0000
     36 O7         5.3283    4.6006    4.3579 O.3       1 RES1    0.0000
     37 H12        2.9245    1.1993   -3.7165 H         1 RES1    0.0000
     38 H13        4.0762    3.9893    2.3946 H         1 RES1    0.0000
@<TRIPOS>BOND
     1    1    2 ar
     2    2    3 ar
     3    3    4 ar
     4    4    5 1
     5    6    4 ar
     6    7    1 ar
     7    8    7 1
     8    9   10 1
     9   11    9 1
    10   12    9 1
    11   13    6 1
    12   14   15 2
    13   15   16 1
    14   16   21 1
    15   17   15 1
    16   18   17 1
    17   19   17 1
    18   20   17 1
    19   21   22 1
    20   23   21 1
    21   24   21 1
    22   25    1 1
    23   26    3 1
    24   27    2 1
    25   28   13 1
    26   29   16 2
    27   30   25 2
    28   31   25 2
    29   32   26 2
    30   33   26 2
    31   34    9 1
    32   35   13 2
    33   36   14 1
    34   37   27 1
    35   38   28 1
    36    6    7 ar
    37   14   28 1
    38   27   34 1
    39   29   36 1
@<TRIPOS>SUBSTRUCTURE
     1 RES1 1

@<TRIPOS>CRYSIN
   8.7041   20.8209    9.1162  90.0000 114.2100  90.0000 231 1

