# MOL2 file generated by ConQuest
# Please check atom types

@<TRIPOS>MOLECULE
RIKMAZ
    64    64     2
SMALL
NO_CHARGES
****
Generated from CSD

@<TRIPOS>ATOM
      1 O1        17.4874   -1.6870   -0.2125 O.2       1 RES1    0.0000
      2 O2        19.2577   -2.8502   -0.1104 O.2       1 RES1    0.0000
      3 O3        23.0724    2.8101    0.7809 O.3       1 RES1    0.0000
      4 O4        23.1161    4.9437   -3.4258 O.3       1 RES1    0.0000
      5 N1        18.6878   -1.7819   -0.1352 N.pl3     1 RES1    0.0000
      6 C1        20.9868    1.7404    0.1628 C.ar      1 RES1    0.0000
      7 C2        21.5907    0.4837    0.1697 C.ar      1 RES1    0.0000
      8 C3        20.8510   -0.6632    0.0676 C.ar      1 RES1    0.0000
      9 C4        19.5124   -0.5534   -0.0593 C.ar      1 RES1    0.0000
     10 C5        18.8600    0.6691   -0.0897 C.ar      1 RES1    0.0000
     11 C6        19.5997    1.8235    0.0345 C.ar      1 RES1    0.0000
     12 C7        21.7750    3.0327    0.2525 C.3       1 RES1    0.0000
     13 C8        21.9229    3.6914   -1.0789 C.3       1 RES1    0.0000
     14 C9        22.3788    5.0861   -1.1120 C.2       1 RES1    0.0000
     15 C10       22.7135    5.7820   -0.0566 C.2       1 RES1    0.0000
     16 C11       22.4225    5.7479   -2.4724 C.3       1 RES1    0.0000
     17 C12       21.0353    6.0327   -3.0409 C.3       1 RES1    0.0000
     18 H1        22.4710    0.4229    0.3974 H         1 RES1    0.0000
     19 H2        21.2463   -1.4466   -0.0442 H         1 RES1    0.0000
     20 H3        22.9196    2.4733    1.4777 H         1 RES1    0.0000
     21 H4        23.9964    4.9007   -3.0643 H         1 RES1    0.0000
     22 H5        17.9142    0.7092   -0.1945 H         1 RES1    0.0000
     23 H6        19.1680    2.6707    0.0331 H         1 RES1    0.0000
     24 H7        21.3579    3.6974    0.7671 H         1 RES1    0.0000
     25 H8        22.4831    3.0371   -1.6501 H         1 RES1    0.0000
     26 H9        21.2172    3.6113   -1.4846 H         1 RES1    0.0000
     27 H10       22.6892    5.3814    0.8044 H         1 RES1    0.0000
     28 H11       22.9778    6.6900   -0.1518 H         1 RES1    0.0000
     29 H12       22.8954    6.7612   -2.3303 H         1 RES1    0.0000
     30 H13       20.4824    6.3962   -2.3620 H         1 RES1    0.0000
     31 H14       21.1081    6.6514   -3.7583 H         1 RES1    0.0000
     32 H15       20.6546    5.2226   -3.3609 H         1 RES1    0.0000
     33 O5        19.0904    3.2523   -3.6465 O.2       2 RES2    0.0000
     34 O6        17.3055    2.0787   -3.6272 O.2       2 RES2    0.0000
     35 O7        22.9511   -2.2641   -4.6289 O.3       2 RES2    0.0000
     36 O8        22.9536   -4.1247   -0.2359 O.3       2 RES2    0.0000
     37 N2        18.5132    2.1825   -3.6493 N.pl3     2 RES2    0.0000
     38 C13       20.8510   -1.2893   -3.9818 C.ar      2 RES2    0.0000
     39 C14       19.4711   -1.3650   -3.9211 C.ar      2 RES2    0.0000
     40 C15       18.7218   -0.2151   -3.8176 C.ar      2 RES2    0.0000
     41 C16       19.3377    0.9778   -3.7528 C.ar      2 RES2    0.0000
     42 C17       20.6861    1.0935   -3.7776 C.ar      2 RES2    0.0000
     43 C18       21.4452   -0.0534   -3.9032 C.ar      2 RES2    0.0000
     44 C19       21.6634   -2.5445   -4.0812 C.3       2 RES2    0.0000
     45 C20       21.8623   -3.1588   -2.6794 C.3       2 RES2    0.0000
     46 C21       22.5001   -4.4630   -2.5911 C.2       2 RES2    0.0000
     47 C22       23.0360   -5.1039   -3.6259 C.2       2 RES2    0.0000
     48 C23       22.5389   -5.0846   -1.2266 C.3       2 RES2    0.0000
     49 C24       21.1954   -5.5802   -0.7919 C.3       2 RES2    0.0000
     50 H16       23.0069   -2.5891   -5.3312 H         2 RES2    0.0000
     51 H17       23.8339   -3.8161   -0.5698 H         2 RES2    0.0000
     52 H18       18.9764   -2.1410   -3.8383 H         2 RES2    0.0000
     53 H19       17.7736   -0.2641   -3.7900 H         2 RES2    0.0000
     54 H20       21.1105    1.9511   -3.7335 H         2 RES2    0.0000
     55 H21       22.3885    0.0178   -3.9446 H         2 RES2    0.0000
     56 H22       21.1032   -3.2256   -4.6372 H         2 RES2    0.0000
     57 H23       21.0426   -3.2775   -2.1923 H         2 RES2    0.0000
     58 H24       22.3958   -2.4036   -2.1358 H         2 RES2    0.0000
     59 H25       23.0676   -5.9185   -3.4768 H         2 RES2    0.0000
     60 H26       23.0409   -4.8146   -4.5889 H         2 RES2    0.0000
     61 H27       23.0603   -5.8443   -1.0624 H         2 RES2    0.0000
     62 H28       20.4848   -4.8829   -0.8513 H         2 RES2    0.0000
     63 H29       20.7734   -6.2523   -1.3769 H         2 RES2    0.0000
     64 H30       21.0450   -6.2108    0.0110 H         2 RES2    0.0000
@<TRIPOS>BOND
     1    1    5 2
     2    2    5 2
     3    3   12 1
     4    4   16 1
     5    5    9 1
     6    6    7 ar
     7    7    8 ar
     8    8    9 ar
     9    9   10 ar
    10   10   11 ar
    11   11    6 ar
    12   12    6 1
    13   13   12 1
    14   14   13 1
    15   15   14 2
    16   16   14 1
    17   17   16 1
    18   18    7 1
    19   19    8 1
    20   20    3 1
    21   21    4 1
    22   22   10 1
    23   23   11 1
    24   24   12 1
    25   25   13 1
    26   26   13 1
    27   27   15 1
    28   28   15 1
    29   29   16 1
    30   30   17 1
    31   31   17 1
    32   32   17 1
    33   33   37 2
    34   34   37 2
    35   35   44 1
    36   36   48 1
    37   37   41 1
    38   38   39 ar
    39   39   40 ar
    40   40   41 ar
    41   41   42 ar
    42   42   43 ar
    43   43   38 ar
    44   44   38 1
    45   45   44 1
    46   46   45 1
    47   47   46 2
    48   48   46 1
    49   49   48 1
    50   50   35 1
    51   51   36 1
    52   52   39 1
    53   53   40 1
    54   54   42 1
    55   55   43 1
    56   56   44 1
    57   57   45 1
    58   58   45 1
    59   59   47 1
    60   60   47 1
    61   61   48 1
    62   62   49 1
    63   63   49 1
    64   64   49 1
@<TRIPOS>SUBSTRUCTURE
     1 RES1 1
     2 RES2 33

@<TRIPOS>CRYSIN
  24.2510   14.8370   13.7970  90.0000  90.0000  90.0000  61 1

