# MOL2 file generated by ConQuest
# Please check atom types

@<TRIPOS>MOLECULE
RIKNOO
    66    66     6
SMALL
NO_CHARGES
****
Generated from CSD

@<TRIPOS>ATOM
      1 N1         0.4921    5.0090   11.3234 N.3       1 RES1    0.0000
      2 N2         0.4679    6.1033   10.5487 N.2       1 RES1    0.0000
      3 C1        -0.7811    6.1088   10.1275 C.2       1 RES1    0.0000
      4 C2        -1.5411    5.0776   10.5976 C.2       1 RES1    0.0000
      5 C3        -0.6728    4.3792   11.3820 C.2       1 RES1    0.0000
      6 N3        -1.1635    7.1733    9.2172 N.pl3     1 RES1    0.0000
      7 O1        -0.3971    8.0888    9.0361 O.2       1 RES1    0.0000
      8 O2        -2.2300    7.0644    8.6552 O.2       1 RES1    0.0000
      9 N4         2.4083    8.2130   10.0226 N.3       2 RES2    0.0000
     10 N5         3.5682    7.8500   10.5806 N.2       2 RES2    0.0000
     11 C4         4.3869    8.7778   10.1418 C.2       2 RES2    0.0000
     12 C5         3.8003    9.7152    9.3276 C.2       2 RES2    0.0000
     13 C6         2.5296    9.3228    9.2767 C.2       2 RES2    0.0000
     14 N6         5.7669    8.6811   10.5297 N.pl3     2 RES2    0.0000
     15 O3         6.1054    7.7455   11.2289 O.2       2 RES2    0.0000
     16 O4         6.5119    9.5418   10.1102 O.2       2 RES2    0.0000
     17 N7         4.2307    5.4764   12.1688 N.3       3 RES3    0.0000
     18 N8         3.2214    4.6280   12.2486 N.2       3 RES3    0.0000
     19 C7         3.7142    3.6150   12.9610 C.2       3 RES3    0.0000
     20 C8         5.0184    3.8228   13.3458 C.2       3 RES3    0.0000
     21 C9         5.3210    5.0297   12.8200 C.2       3 RES3    0.0000
     22 N9         2.8689    2.5053   13.2451 N.pl3     3 RES3    0.0000
     23 O5         1.7225    2.5281   12.8611 O.2       3 RES3    0.0000
     24 O6         3.3537    1.5663   13.8705 O.2       3 RES3    0.0000
     25 N10        2.8024    5.0153    8.0449 N.3       4 RES4    0.0000
     26 N11        2.8008    6.1190    7.2960 N.2       4 RES4    0.0000
     27 C10        4.0410    6.5398    7.3804 C.2       4 RES4    0.0000
     28 C11        4.8300    5.7370    8.1708 C.2       4 RES4    0.0000
     29 C12        4.0056    4.7617    8.5758 C.2       4 RES4    0.0000
     30 N12        4.4076    7.7254    6.6601 N.pl3     4 RES4    0.0000
     31 O7         3.6029    8.2146    5.8874 O.2       4 RES4    0.0000
     32 O8         5.5217    8.1668    6.8545 O.2       4 RES4    0.0000
     33 N13       -0.9075    4.1576    7.2195 N.3       5 RES5    0.0000
     34 N14        0.2012    3.7590    7.8403 N.2       5 RES5    0.0000
     35 C13       -0.1838    2.6612    8.4637 C.2       5 RES5    0.0000
     36 C14       -1.4953    2.3388    8.2504 C.2       5 RES5    0.0000
     37 C15       -1.9325    3.3401    7.4353 C.2       5 RES5    0.0000
     38 N15        0.7773    1.9738    9.2831 N.pl3     5 RES5    0.0000
     39 O9         1.8907    2.4331    9.3643 O.2       5 RES5    0.0000
     40 O10        0.4065    0.9688    9.8517 O.2       5 RES5    0.0000
     41 N16        0.6414    7.3983    5.8073 N.3       6 RES6    0.0000
     42 N17       -0.4415    6.6351    5.8056 N.2       6 RES6    0.0000
     43 C16       -1.2954    7.3659    5.1036 C.2       6 RES6    0.0000
     44 C17       -0.7862    8.5597    4.6655 C.2       6 RES6    0.0000
     45 C18        0.4776    8.5489    5.1410 C.2       6 RES6    0.0000
     46 N18       -2.5956    6.8270    4.8810 N.pl3     6 RES6    0.0000
     47 O11       -2.8778    5.7467    5.3778 O.2       6 RES6    0.0000
     48 O12       -3.3599    7.4916    4.1973 O.2       6 RES6    0.0000
     49 H1         1.1829    4.7979   11.6177 H         1 RES1    0.0000
     50 H2        -2.4895    4.8807   10.4701 H         1 RES1    0.0000
     51 H3        -0.7979    3.5863   11.9064 H         1 RES1    0.0000
     52 H4         1.6553    7.6542   10.2554 H         2 RES2    0.0000
     53 H5         4.1513   10.4044    8.9574 H         2 RES2    0.0000
     54 H6         1.8007    9.5963    8.8409 H         2 RES2    0.0000
     55 H7         4.1870    6.2745   11.7002 H         3 RES3    0.0000
     56 H8         5.5810    3.2356   13.8461 H         3 RES3    0.0000
     57 H9         6.0389    5.5672   12.8150 H         3 RES3    0.0000
     58 H10        2.0396    4.5539    8.0549 H         4 RES4    0.0000
     59 H11        5.7246    5.8454    8.3278 H         4 RES4    0.0000
     60 H12        4.0570    3.9895    9.1333 H         4 RES4    0.0000
     61 H13       -0.8731    4.9256    6.7690 H         5 RES5    0.0000
     62 H14       -1.9683    1.5951    8.5801 H         5 RES5    0.0000
     63 H15       -2.8682    3.4675    7.0043 H         5 RES5    0.0000
     64 H16        1.3472    7.0976    6.2085 H         6 RES6    0.0000
     65 H17       -1.2261    9.1937    4.2142 H         6 RES6    0.0000
     66 H18        1.1296    9.1747    5.0634 H         6 RES6    0.0000
@<TRIPOS>BOND
     1    1    2 1
     2    2    3 2
     3    3    4 1
     4    4    5 2
     5    5    1 1
     6    6    3 1
     7    7    6 2
     8    8    6 2
     9    9   10 1
    10   10   11 2
    11   11   12 1
    12   12   13 2
    13   13    9 1
    14   14   11 1
    15   15   14 2
    16   16   14 2
    17   17   18 1
    18   18   19 2
    19   19   20 1
    20   20   21 2
    21   21   17 1
    22   22   19 1
    23   23   22 2
    24   24   22 2
    25   25   26 1
    26   26   27 2
    27   27   28 1
    28   28   29 2
    29   29   25 1
    30   30   27 1
    31   31   30 2
    32   32   30 2
    33   33   34 1
    34   34   35 2
    35   35   36 1
    36   36   37 2
    37   37   33 1
    38   38   35 1
    39   39   38 2
    40   40   38 2
    41   41   42 1
    42   42   43 2
    43   43   44 1
    44   44   45 2
    45   45   41 1
    46   46   43 1
    47   47   46 2
    48   48   46 2
    49   49    1 1
    50   50    4 1
    51   51    5 1
    52   52    9 1
    53   53   12 1
    54   54   13 1
    55   55   17 1
    56   56   20 1
    57   57   21 1
    58   58   25 1
    59   59   28 1
    60   60   29 1
    61   61   33 1
    62   62   36 1
    63   63   37 1
    64   64   41 1
    65   65   44 1
    66   66   45 1
@<TRIPOS>SUBSTRUCTURE
     1 RES1 1
     2 RES2 9
     3 RES3 17
     4 RES4 25
     5 RES5 33
     6 RES6 41

@<TRIPOS>CRYSIN
  10.1023   12.5014   13.1190 100.2570 104.4070 111.3150   2 1

