# MOL2 file generated by ConQuest
# Please check atom types

@<TRIPOS>MOLECULE
RILMEH
    84    88     2
SMALL
NO_CHARGES
****
Generated from CSD

@<TRIPOS>ATOM
      1 O1         3.4829   10.3763    8.1797 O.3       1 RES1    0.0000
      2 O2         6.2357   15.6957    6.6736 O.2       1 RES1    0.0000
      3 O3         7.3672   14.4561    5.3097 O.2       1 RES1    0.0000
      4 N1         6.5104   14.5712    6.2008 N.pl3     1 RES1    0.0000
      5 N2         6.9102   11.8657    5.1716 N.pl3     1 RES1    0.0000
      6 H1         6.9875   11.0643    4.8691 H         1 RES1    0.0000
      7 H2         7.4009   12.4952    4.8517 H         1 RES1    0.0000
      8 N3         3.1989    5.2093    6.0956 N.3       1 RES1    0.0000
      9 H3         3.8388    4.6727    6.3009 H         1 RES1    0.0000
     10 C1         3.2348    6.4872    6.6207 C.ar      1 RES1    0.0000
     11 C2         4.9077   13.6374    7.7374 C.ar      1 RES1    0.0000
     12 H4         4.8044   14.4892    8.0958 H         1 RES1    0.0000
     13 C3         6.0245   12.1335    6.1428 C.ar      1 RES1    0.0000
     14 C4         5.2272   11.0863    6.6558 C.ar      1 RES1    0.0000
     15 H5         5.3194   10.2275    6.3113 H         1 RES1    0.0000
     16 C5         4.3190   11.3213    7.6554 C.ar      1 RES1    0.0000
     17 C6         4.1709   12.6049    8.2342 C.ar      1 RES1    0.0000
     18 H6         3.5816   12.7408    8.9407 H         1 RES1    0.0000
     19 C7         3.4474    9.0854    7.6084 C.ar      1 RES1    0.0000
     20 C8         4.2656    6.8398    7.5001 C.ar      1 RES1    0.0000
     21 H7         4.8880    6.1987    7.7568 H         1 RES1    0.0000
     22 C9         2.2949    7.4669    6.2762 C.ar      1 RES1    0.0000
     23 H8         1.5880    7.2483    5.7127 H         1 RES1    0.0000
     24 C10        5.8227   13.4327    6.6907 C.ar      1 RES1    0.0000
     25 C11        4.3704    8.1324    7.9947 C.ar      1 RES1    0.0000
     26 H9         5.0572    8.3553    8.5811 H         1 RES1    0.0000
     27 C12        2.4075    8.7639    6.7682 C.ar      1 RES1    0.0000
     28 H10        1.7821    9.4099    6.5301 H         1 RES1    0.0000
     29 C13        2.6403    3.4601    4.5329 C.ar      1 RES1    0.0000
     30 C14        2.1536    4.7134    5.2219 C.3       1 RES1    0.0000
     31 H11        1.9297    5.3871    4.5609 H         1 RES1    0.0000
     32 H12        1.3572    4.5174    5.7391 H         1 RES1    0.0000
     33 C15        2.2462    2.2016    4.9473 C.ar      1 RES1    0.0000
     34 H13        1.6402    2.1079    5.6468 H         1 RES1    0.0000
     35 C16        3.5415    3.5639    3.4790 C.ar      1 RES1    0.0000
     36 H14        3.8149    4.4065    3.1957 H         1 RES1    0.0000
     37 C17        2.7660    1.0634    4.3052 C.ar      1 RES1    0.0000
     38 H15        2.5117    0.2146    4.5873 H         1 RES1    0.0000
     39 C18        3.6524    1.2025    3.2592 C.ar      1 RES1    0.0000
     40 H16        3.9888    0.4474    2.8336 H         1 RES1    0.0000
     41 C19        4.0381    2.4448    2.8447 C.ar      1 RES1    0.0000
     42 H17        4.6350    2.5361    2.1371 H         1 RES1    0.0000
     43 O4         8.3480    4.0307    0.9573 O.3       2 RES2    0.0000
     44 O5         8.1314    9.4237    3.9469 O.2       2 RES2    0.0000
     45 O6         6.9093    8.3320    5.3642 O.2       2 RES2    0.0000
     46 N4         7.5909    8.3591    4.3208 N.pl3     2 RES2    0.0000
     47 N5         6.3847    5.7752    4.9732 N.pl3     2 RES2    0.0000
     48 H18        6.0267    5.0084    5.1258 H         2 RES2    0.0000
     49 H19        6.2512    6.4282    5.5168 H         2 RES2    0.0000
     50 N6         6.3637   -1.1443    1.5136 N.3       2 RES2    0.0000
     51 H20        6.6563   -1.5892    2.1890 H         2 RES2    0.0000
     52 C20        7.7777    7.1833    3.5538 C.ar      2 RES2    0.0000
     53 C21        7.1502    5.9523    3.8909 C.ar      2 RES2    0.0000
     54 C22        7.3565    4.8599    3.0084 C.ar      2 RES2    0.0000
     55 H21        6.9469    4.0433    3.1830 H         2 RES2    0.0000
     56 C23        6.8533    0.1342    1.3271 C.ar      2 RES2    0.0000
     57 C24        7.7924    2.7464    1.1305 C.ar      2 RES2    0.0000
     58 C25        6.3882    0.9866    0.3169 C.ar      2 RES2    0.0000
     59 H22        5.7668    0.6760   -0.3015 H         2 RES2    0.0000
     60 C26        8.1519    4.9969    1.9028 C.ar      2 RES2    0.0000
     61 C27        8.8327    6.2038    1.6271 C.ar      2 RES2    0.0000
     62 H23        9.4162    6.2617    0.9052 H         2 RES2    0.0000
     63 C28        6.8551    2.3048    0.2350 C.ar      2 RES2    0.0000
     64 H24        6.5309    2.8763   -0.4232 H         2 RES2    0.0000
     65 C29        7.8317    0.6139    2.2039 C.ar      2 RES2    0.0000
     66 H25        8.1707    0.0525    2.8634 H         2 RES2    0.0000
     67 C30        4.6989   -2.9012    1.4027 C.ar      2 RES2    0.0000
     68 C31        8.6236    7.2780    2.4309 C.ar      2 RES2    0.0000
     69 H26        9.0426    8.0853    2.2380 H         2 RES2    0.0000
     70 C32        8.3016    1.9058    2.1057 C.ar      2 RES2    0.0000
     71 H27        8.9564    2.2113    2.6911 H         2 RES2    0.0000
     72 C33        5.3996   -1.7849    0.6591 C.3       2 RES2    0.0000
     73 H28        5.8461   -2.1452   -0.1230 H         2 RES2    0.0000
     74 H29        4.7460   -1.1333    0.3599 H         2 RES2    0.0000
     75 C34        4.6361   -4.1848    0.8903 C.ar      2 RES2    0.0000
     76 H30        5.0370   -4.3816    0.0748 H         2 RES2    0.0000
     77 C35        3.9669   -5.1855    1.6026 C.ar      2 RES2    0.0000
     78 H31        3.9207   -6.0470    1.2554 H         2 RES2    0.0000
     79 C36        3.3792   -4.9050    2.8100 C.ar      2 RES2    0.0000
     80 H32        2.9311   -5.5740    3.2752 H         2 RES2    0.0000
     81 C37        4.1232   -2.6557    2.6333 C.ar      2 RES2    0.0000
     82 H33        4.1885   -1.8048    3.0029 H         2 RES2    0.0000
     83 C38        3.4521   -3.6430    3.3297 C.ar      2 RES2    0.0000
     84 H34        3.0521   -3.4502    4.1468 H         2 RES2    0.0000
@<TRIPOS>BOND
     1    1   16 1
     2    2    4 2
     3    3    4 2
     4    4   24 1
     5    5    6 1
     6    7    5 1
     7    8    9 1
     8   10    8 1
     9   11   12 1
    10   13    5 1
    11   14   13 ar
    12   15   14 1
    13   16   14 ar
    14   17   11 ar
    15   18   17 1
    16   19    1 1
    17   20   10 ar
    18   21   20 1
    19   22   10 ar
    20   23   22 1
    21   24   11 ar
    22   25   19 ar
    23   26   25 1
    24   27   19 ar
    25   28   27 1
    26   29   30 1
    27   30    8 1
    28   31   30 1
    29   32   30 1
    30   33   29 ar
    31   34   33 1
    32   35   29 ar
    33   36   35 1
    34   37   33 ar
    35   38   37 1
    36   39   37 ar
    37   40   39 1
    38   41   35 ar
    39   42   41 1
    40   43   57 1
    41   44   46 2
    42   45   46 2
    43   46   52 1
    44   47   48 1
    45   49   47 1
    46   50   51 1
    47   52   53 ar
    48   53   47 1
    49   54   53 ar
    50   55   54 1
    51   56   50 1
    52   57   63 ar
    53   58   56 ar
    54   59   58 1
    55   60   43 1
    56   61   60 ar
    57   62   61 1
    58   63   58 ar
    59   64   63 1
    60   65   56 ar
    61   66   65 1
    62   67   72 1
    63   68   52 ar
    64   69   68 1
    65   70   57 ar
    66   71   70 1
    67   72   50 1
    68   73   72 1
    69   74   72 1
    70   75   67 ar
    71   76   75 1
    72   77   75 ar
    73   78   77 1
    74   79   77 ar
    75   80   79 1
    76   81   67 ar
    77   82   81 1
    78   83   79 ar
    79   84   83 1
    80   13   24 ar
    81   16   17 ar
    82   20   25 ar
    83   22   27 ar
    84   39   41 ar
    85   54   60 ar
    86   61   68 ar
    87   65   70 ar
    88   81   83 ar
@<TRIPOS>SUBSTRUCTURE
     1 RES1 1
     2 RES2 43

@<TRIPOS>CRYSIN
   8.1093   12.3368   16.6982  86.5800  77.5340  86.6960   2 1

