# MOL2 file generated by ConQuest
# Please check atom types

@<TRIPOS>MOLECULE
RILWAN
    78    57     2
SMALL
NO_CHARGES
****
Generated from CSD

@<TRIPOS>ATOM
      1 O1         3.7033    4.1295    3.5133 O.2       1 RES1    0.0000
      2 O2         5.2921    0.8112    6.1628 O.2       1 RES1    0.0000
      3 O3         2.7813    0.5738    1.5556 O.2       1 RES1    0.0000
      4 O4         6.5746   -2.0321    1.7873 O.2       1 RES1    0.0000
      5 O5         8.1453   -1.8435    3.2573 O.2       1 RES1    0.0000
      6 N1         3.5037    1.7923    3.3175 N.am      1 RES1    0.0000
      7 N2         4.5486    2.6670    5.0762 N.am      1 RES1    0.0000
      8 H1         4.8755    3.2532    5.5793 H         1 RES1    0.0000
      9 N3         6.9876   -1.7036    2.8829 N.pl3     1 RES1    0.0000
     10 C1         4.1308    0.6404    4.0066 C.3       1 RES1    0.0000
     11 C2         4.7191    1.3437    5.2270 C.2       1 RES1    0.0000
     12 C3         3.8778    3.0033    3.8971 C.2       1 RES1    0.0000
     13 C4         2.7748    1.6431    2.1269 C.2       1 RES1    0.0000
     14 C5         3.1228   -0.4510    4.4220 C.3       1 RES1    0.0000
     15 H2         2.9577   -1.0459    3.6480 H         1 RES1    0.0000
     16 H3         3.5232   -0.9990    5.1428 H         1 RES1    0.0000
     17 C6         5.2796    0.0487    3.1198 C.3       1 RES1    0.0000
     18 H4         4.8360   -0.3636    2.3240 H         1 RES1    0.0000
     19 C7         6.2313    1.0978    2.5806 C.ar      1 RES1    0.0000
     20 C8         7.2049    1.7099    3.3757 C.ar      1 RES1    0.0000
     21 H5         7.2845    1.4684    4.2911 H         1 RES1    0.0000
     22 C9         8.0576    2.6678    2.8395 C.ar      1 RES1    0.0000
     23 H6         8.7109    3.0833    3.3901 H         1 RES1    0.0000
     24 C10        7.9553    3.0167    1.5050 C.ar      1 RES1    0.0000
     25 H7         8.5357    3.6726    1.1376 H         1 RES1    0.0000
     26 C11        7.0076    2.4077    0.7106 C.ar      1 RES1    0.0000
     27 H8         6.9418    2.6423   -0.2076 H         1 RES1    0.0000
     28 C12        6.1521    1.4592    1.2391 C.ar      1 RES1    0.0000
     29 H9         5.5026    1.0498    0.6799 H         1 RES1    0.0000
     30 C13        6.0175   -1.0907    3.8410 C.3       1 RES1    0.0000
     31 H10        6.4986   -0.7364    4.6305 H         1 RES1    0.0000
     32 H11        5.3695   -1.7721    4.1500 H         1 RES1    0.0000
     33 C14        1.9999    2.8194    1.6404 C.ar      1 RES1    0.0000
     34 C15        1.0350    3.5337    2.3417 C.ar      1 RES1    0.0000
     35 H12        0.8680    3.3351    3.2556 H         1 RES1    0.0000
     36 C16        0.3143    4.5380    1.7054 C.ar      1 RES1    0.0000
     37 H13       -0.3445    5.0259    2.1849 H         1 RES1    0.0000
     38 C17        0.5595    4.8279    0.3691 C.ar      1 RES1    0.0000
     39 H14        0.0669    5.5145   -0.0663 H         1 RES1    0.0000
     40 C18        1.5233    4.1137   -0.3322 C.ar      1 RES1    0.0000
     41 H15        1.6907    4.3123   -1.2467 H         1 RES1    0.0000
     42 C19        2.2440    3.1094    0.3029 C.ar      1 RES1    0.0000
     43 H16        2.9032    2.6214   -0.1759 H         1 RES1    0.0000
     44 C20        1.7975    0.1029    4.9061 C.ar      1 RES1    0.0000
     45 C21        1.6259    0.6813    6.1584 C.ar      1 RES1    0.0000
     46 H17        2.3663    0.7679    6.7471 H         1 RES1    0.0000
     47 C22        0.3706    1.1323    6.5503 C.ar      1 RES1    0.0000
     48 H18        0.2532    1.5270    7.4058 H         1 RES1    0.0000
     49 C23       -0.7132    1.0050    5.6887 C.ar      1 RES1    0.0000
     50 H19       -1.5712    1.3131    5.9561 H         1 RES1    0.0000
     51 C24       -0.5415    0.4267    4.4365 C.ar      1 RES1    0.0000
     52 H20       -1.2824    0.3401    3.8477 H         1 RES1    0.0000
     53 C25        0.7138   -0.0236    4.0445 C.ar      1 RES1    0.0000
     54 H21        0.8307   -0.4190    3.1889 H         1 RES1    0.0000
     55 H22        2.9205   -1.0073    3.6284 Du        2 SUP2    0.0000
     56 H23        3.5561   -1.0370    5.0922 Du        2 SUP2    0.0000
     57 C26        1.9758    2.7550    1.6175 Du        2 SUP2    0.0000
     58 C27        1.1031    3.3373    2.5300 Du        2 SUP2    0.0000
     59 H24        1.0574    3.0096    3.4199 Du        2 SUP2    0.0000
     60 C28        0.2961    4.3997    2.1381 Du        2 SUP2    0.0000
     61 H25       -0.3006    4.7976    2.7607 Du        2 SUP2    0.0000
     62 C29        0.3630    4.8790    0.8349 Du        2 SUP2    0.0000
     63 H26       -0.1888    5.6049    0.5672 Du        2 SUP2    0.0000
     64 C30        1.2357    4.2983   -0.0764 Du        2 SUP2    0.0000
     65 H27        1.2810    4.6243   -0.9670 Du        2 SUP2    0.0000
     66 C31        2.0427    3.2343    0.3156 Du        2 SUP2    0.0000
     67 H28        2.6389    2.8363   -0.3078 Du        2 SUP2    0.0000
     68 C32        1.8126    0.0503    5.0015 Du        2 SUP2    0.0000
     69 C33        1.8179    0.5139    6.3111 Du        2 SUP2    0.0000
     70 H29        2.6210    0.4941    6.8190 Du        2 SUP2    0.0000
     71 C34        0.6485    1.0058    6.8799 Du        2 SUP2    0.0000
     72 H30        0.6524    1.3220    7.7756 Du        2 SUP2    0.0000
     73 C35       -0.5261    1.0341    6.1380 Du        2 SUP2    0.0000
     74 H31       -1.3254    1.3701    6.5259 Du        2 SUP2    0.0000
     75 C36       -0.5313    0.5713    4.8272 Du        2 SUP2    0.0000
     76 H32       -1.3346    0.5905    4.3197 Du        2 SUP2    0.0000
     77 C37        0.6381    0.0794    4.2583 Du        2 SUP2    0.0000
     78 H33        0.6339   -0.2374    3.3631 Du        2 SUP2    0.0000
@<TRIPOS>BOND
     1    1   12 2
     2    2   11 2
     3    3   13 2
     4    4    9 2
     5    5    9 2
     6    6   10 1
     7    7    8 1
     8    9   30 1
     9   10   11 1
    10   11    7 1
    11   12    6 1
    12   13    6 1
    13   14   10 1
    14   15   14 1
    15   16   14 1
    16   17   10 1
    17   18   17 1
    18   19   17 1
    19   20   19 ar
    20   21   20 1
    21   22   20 ar
    22   23   22 1
    23   24   22 ar
    24   25   24 1
    25   26   24 ar
    26   27   26 1
    27   28   19 ar
    28   29   28 1
    29   30   17 1
    30   31   30 1
    31   32   30 1
    32   33   13 1
    33   34   33 ar
    34   35   34 1
    35   36   34 ar
    36   37   36 1
    37   38   36 ar
    38   39   38 1
    39   40   38 ar
    40   41   40 1
    41   42   33 ar
    42   43   42 1
    43   44   14 1
    44   45   44 ar
    45   46   45 1
    46   47   45 ar
    47   48   47 1
    48   49   47 ar
    49   50   49 1
    50   51   49 ar
    51   52   51 1
    52   53   44 ar
    53   54   53 1
    54    7   12 1
    55   26   28 ar
    56   40   42 ar
    57   51   53 ar
@<TRIPOS>SUBSTRUCTURE
     1 RES1 1
     2 SUP2 55

@<TRIPOS>CRYSIN
  11.1115    7.8580   12.7282  90.0000  90.9379  90.0000   4 1

