# MOL2 file generated by ConQuest
# Please check atom types

@<TRIPOS>MOLECULE
RILXOB
    32    34     1
SMALL
USER_CHARGES
****
Generated from CSD

@<TRIPOS>ATOM
      1 O1         8.2501    2.0481    7.1088 O.2       1 RES1    0.0000
      2 O2         9.5675    3.2271    5.8896 O.2       1 RES1    0.0000
      3 O3         3.7003    2.4032    2.2256 O.2       1 RES1   -1.0000
      4 N1         6.1956    0.6927    0.4339 N.ar      1 RES1    0.0000
      5 N2         4.2184    1.7070    1.2656 N.pl3     1 RES1    1.0000
      6 N3         8.5859    2.5182    6.0373 N.pl3     1 RES1    0.0000
      7 C1         5.5323    0.3925   -0.7200 C.ar      1 RES1    0.0000
      8 C2         6.2304   -0.2721   -1.7439 C.ar      1 RES1    0.0000
      9 H1         7.1238   -0.5013   -1.6253 H         1 RES1    0.0000
     10 C3         5.5941   -0.5804   -2.9136 C.ar      1 RES1    0.0000
     11 H2         6.0599   -1.0042   -3.5970 H         1 RES1    0.0000
     12 C4         4.2421   -0.2601   -3.0856 C.ar      1 RES1    0.0000
     13 H3         3.8180   -0.4820   -3.8825 H         1 RES1    0.0000
     14 C5         3.5358    0.3728   -2.1030 C.ar      1 RES1    0.0000
     15 H4         2.6388    0.5781   -2.2343 H         1 RES1    0.0000
     16 C6         4.1697    0.7174   -0.8827 C.ar      1 RES1    0.0000
     17 C7         3.5139    1.3944    0.1652 C.ar      1 RES1    0.0000
     18 C8         2.0854    1.8112    0.1511 C.3       1 RES1    0.0000
     19 H5         1.6195    1.3836    0.8736 H         1 RES1    0.0000
     20 H6         1.6857    1.5545   -0.6832 H         1 RES1    0.0000
     21 H7         2.0296    2.7640    0.2531 H         1 RES1    0.0000
     22 C9         5.5625    1.3176    1.3790 C.ar      1 RES1    0.0000
     23 C10        6.2861    1.6526    2.6230 C.ar      1 RES1    0.0000
     24 C11        5.7841    1.3751    3.8836 C.ar      1 RES1    0.0000
     25 H8         4.9326    1.0108    3.9700 H         1 RES1    0.0000
     26 C12        6.5313    1.6325    5.0132 C.ar      1 RES1    0.0000
     27 H9         6.2053    1.4272    5.8599 H         1 RES1    0.0000
     28 C13        7.7781    2.2044    4.8501 C.ar      1 RES1    0.0000
     29 C14        8.3050    2.4962    3.6138 C.ar      1 RES1    0.0000
     30 H10        9.1473    2.8821    3.5342 H         1 RES1    0.0000
     31 C15        7.5545    2.2021    2.4981 C.ar      1 RES1    0.0000
     32 H11        7.9003    2.3735    1.6520 H         1 RES1    0.0000
@<TRIPOS>BOND
     1    1    6 2
     2    2    6 2
     3    3    5 1
     4    4    7 ar
     5    5   17 ar
     6    6   28 1
     7    7    8 ar
     8    8    9 1
     9   10    8 ar
    10   11   10 1
    11   12   10 ar
    12   13   12 1
    13   14   12 ar
    14   15   14 1
    15   16    7 ar
    16   17   16 ar
    17   18   17 1
    18   19   18 1
    19   20   18 1
    20   21   18 1
    21   22    4 ar
    22   23   22 1
    23   24   23 ar
    24   25   24 1
    25   26   24 ar
    26   27   26 1
    27   28   26 ar
    28   29   28 ar
    29   30   29 1
    30   31   23 ar
    31   32   31 1
    32    5   22 ar
    33   14   16 ar
    34   29   31 ar
@<TRIPOS>SUBSTRUCTURE
     1 RES1 1

@<TRIPOS>CRYSIN
  17.1571    3.8593   19.0337  90.0000  90.7930  90.0000 231 1

