# MOL2 file generated by ConQuest
# Please check atom types

@<TRIPOS>MOLECULE
RILYIW
   122   130     2
SMALL
NO_CHARGES
****
Generated from CSD

@<TRIPOS>ATOM
      1 O1         8.5836    3.1831    6.3803 O.3       1 RES1    0.0000
      2 O2         9.4114    4.4404    8.5429 O.2       1 RES1    0.0000
      3 O3         6.1300    2.0518   11.0752 O.3       1 RES1    0.0000
      4 O4         7.4576    3.7225   12.2420 O.2       1 RES1    0.0000
      5 O5         5.3147   -0.0059    7.4764 O.3       1 RES1    0.0000
      6 O6         5.0108   -0.6390   10.9599 O.3       1 RES1    0.0000
      7 O7         2.8651   -2.3631    8.7256 O.2       1 RES1    0.0000
      8 N1         8.0313    2.9140    7.6259 N.am      1 RES1    0.0000
      9 C1         8.4927    3.6341    8.7209 C.2       1 RES1    0.0000
     10 C2         7.7998    3.3328    9.9573 C.2       1 RES1    0.0000
     11 C3         6.7693    2.3709    9.9701 C.2       1 RES1    0.0000
     12 C4         6.3754    1.6869    8.7848 C.2       1 RES1    0.0000
     13 C5         7.0408    2.0020    7.6488 C.2       1 RES1    0.0000
     14 C6         8.1264    4.0119   11.2219 C.2       1 RES1    0.0000
     15 C7         9.2579    5.0021   11.3860 C.3       1 RES1    0.0000
     16 C8         8.9347    6.0794   12.4283 C.3       1 RES1    0.0000
     17 C9         7.6513    6.8446   12.0955 C.3       1 RES1    0.0000
     18 C10        7.3936    7.9787   13.0939 C.3       1 RES1    0.0000
     19 C11        8.5640    8.9327   13.2283 C.3       1 RES1    0.0000
     20 C12        9.8331    8.1597   13.5498 C.3       1 RES1    0.0000
     21 C13       10.0912    7.0726   12.5095 C.3       1 RES1    0.0000
     22 C14       11.3920    6.3544   12.6970 C.2       1 RES1    0.0000
     23 C15       11.5886    5.0862   12.3374 C.2       1 RES1    0.0000
     24 C16       10.5577    4.1948   11.7342 C.3       1 RES1    0.0000
     25 C17       10.3470    2.9834   12.6512 C.3       1 RES1    0.0000
     26 C18        8.2750   10.0286   14.2507 C.3       1 RES1    0.0000
     27 C19        5.3118    0.5793    8.7794 C.3       1 RES1    0.0000
     28 C20        5.7098   -0.5362    9.7249 C.3       1 RES1    0.0000
     29 C21        4.7089   -1.6214    9.9436 C.3       1 RES1    0.0000
     30 C22        3.4148   -1.4188    9.2661 C.2       1 RES1    0.0000
     31 C23        2.8577   -0.0264    9.3021 C.3       1 RES1    0.0000
     32 C24        3.9131    1.1145    9.1399 C.3       1 RES1    0.0000
     33 H1         9.4203    3.2144    6.4451 H         1 RES1    0.0000
     34 H2         6.4418    2.4952   11.7164 H         1 RES1    0.0000
     35 H3         4.5788    0.1438    7.1017 H         1 RES1    0.0000
     36 H4         6.8003    1.5656    6.8403 H         1 RES1    0.0000
     37 H5         9.4017    5.4561   10.5070 H         1 RES1    0.0000
     38 H6         8.8248    5.6401   13.3210 H         1 RES1    0.0000
     39 H7         6.8849    6.2184   12.1056 H         1 RES1    0.0000
     40 H8         7.7235    7.2223   11.1845 H         1 RES1    0.0000
     41 H9         6.5955    8.4875   12.8039 H         1 RES1    0.0000
     42 H10        7.1953    7.5863   13.9806 H         1 RES1    0.0000
     43 H11        8.6965    9.3750   12.3404 H         1 RES1    0.0000
     44 H12        9.7489    7.7448   14.4442 H         1 RES1    0.0000
     45 H13       10.6022    8.7830   13.5735 H         1 RES1    0.0000
     46 H14       10.1405    7.5296   11.6213 H         1 RES1    0.0000
     47 H15       12.1149    6.8280   13.0922 H         1 RES1    0.0000
     48 H16       12.4541    4.7213   12.4771 H         1 RES1    0.0000
     49 H17       10.9313    3.8524   10.8725 H         1 RES1    0.0000
     50 H18        9.7783    2.3259   12.1978 H         1 RES1    0.0000
     51 H19        9.9147    3.2731   13.4814 H         1 RES1    0.0000
     52 H20       11.2140    2.5764   12.8604 H         1 RES1    0.0000
     53 H21        8.1169    9.6216   15.1276 H         1 RES1    0.0000
     54 H22        7.4798   10.5306   13.9747 H         1 RES1    0.0000
     55 H23        9.0423   10.6353   14.3045 H         1 RES1    0.0000
     56 H24        6.6735   -0.8033    9.7285 H         1 RES1    0.0000
     57 H25        5.0397   -2.5568   10.0702 H         1 RES1    0.0000
     58 H26        2.3873    0.1008   10.1623 H         1 RES1    0.0000
     59 H27        2.1866    0.0616    8.5815 H         1 RES1    0.0000
     60 H28        3.6118    1.7359    8.4300 H         1 RES1    0.0000
     61 H29        3.9702    1.6253    9.9870 H         1 RES1    0.0000
     62 O8         4.5167    4.4874    8.4921 O.3       2 RES2    0.0000
     63 O9         3.6954    3.2760    6.2846 O.2       2 RES2    0.0000
     64 O10        7.1161    5.6078    3.8858 O.3       2 RES2    0.0000
     65 O11        5.5937    4.2144    2.6057 O.2       2 RES2    0.0000
     66 O12        7.9334    7.6127    7.5100 O.3       2 RES2    0.0000
     67 O13        9.6583    6.8955    4.4340 O.3       2 RES2    0.0000
     68 O14       10.4980    9.8907    6.1848 O.2       2 RES2    0.0000
     69 N2         5.0583    4.8044    7.2533 N.am      2 RES2    0.0000
     70 C25        4.6221    4.0852    6.1369 C.2       2 RES2    0.0000
     71 C26        5.3367    4.4081    4.9252 C.2       2 RES2    0.0000
     72 C27        6.4075    5.3318    4.9602 C.2       2 RES2    0.0000
     73 C28        6.7665    6.0119    6.1556 C.2       2 RES2    0.0000
     74 C29        6.0567    5.7115    7.2693 C.2       2 RES2    0.0000
     75 C30        4.9818    3.8220    3.6156 C.2       2 RES2    0.0000
     76 C31        3.9874    2.6987    3.4371 C.3       2 RES2    0.0000
     77 C32        3.3118    2.7486    2.0524 C.3       2 RES2    0.0000
     78 C33        2.5991    4.0755    1.7701 C.3       2 RES2    0.0000
     79 C34        1.9554    4.0549    0.3723 C.3       2 RES2    0.0000
     80 C35        1.0042    2.8758    0.1839 C.3       2 RES2    0.0000
     81 C36        1.6912    1.5636    0.5402 C.3       2 RES2    0.0000
     82 C37        2.3061    1.5920    1.9404 C.3       2 RES2    0.0000
     83 C38        2.9215    0.2857    2.3442 C.2       2 RES2    0.0000
     84 C39        3.9968    0.1791    3.1117 C.2       2 RES2    0.0000
     85 C40        4.7604    1.3601    3.6671 C.3       2 RES2    0.0000
     86 C41        6.1690    1.3435    3.0817 C.3       2 RES2    0.0000
     87 C42        0.4463    2.8259   -1.2400 C.3       2 RES2    0.0000
     88 C43        7.8322    7.1215    6.1785 C.3       2 RES2    0.0000
     89 C44        9.2074    6.6049    5.7524 C.3       2 RES2    0.0000
     90 C45       10.2482    7.6352    5.5388 C.3       2 RES2    0.0000
     91 C46        9.8000    9.0247    5.6475 C.2       2 RES2    0.0000
     92 C47        8.4590    9.3701    5.1127 C.3       2 RES2    0.0000
     93 C48        7.3974    8.2673    5.2826 C.3       2 RES2    0.0000
     94 H30        3.6807    4.4395    8.4270 H         2 RES2    0.0000
     95 H31        6.8112    5.1782    3.2329 H         2 RES2    0.0000
     96 H32        8.6431    7.3299    7.8595 H         2 RES2    0.0000
     97 H33        6.2684    6.1509    8.0853 H         2 RES2    0.0000
     98 H34        3.2811    2.7838    4.1392 H         2 RES2    0.0000
     99 H35        4.0165    2.6185    1.3550 H         2 RES2    0.0000
    100 H36        3.2499    4.8191    1.8245 H         2 RES2    0.0000
    101 H37        1.8998    4.2291    2.4544 H         2 RES2    0.0000
    102 H38        1.4569    4.8993    0.2318 H         2 RES2    0.0000
    103 H39        2.6699    4.0079   -0.3120 H         2 RES2    0.0000
    104 H40        0.2352    2.9991    0.8112 H         2 RES2    0.0000
    105 H41        2.4031    1.3797   -0.1218 H         2 RES2    0.0000
    106 H42        1.0313    0.8278    0.4903 H         2 RES2    0.0000
    107 H43        1.5649    1.7809    2.5852 H         2 RES2    0.0000
    108 H44        2.5154   -0.5147    2.0325 H         2 RES2    0.0000
    109 H45        4.3078   -0.6928    3.3250 H         2 RES2    0.0000
    110 H46        4.8432    1.2261    4.6533 H         2 RES2    0.0000
    111 H47        6.7299    1.9864    3.5628 H         2 RES2    0.0000
    112 H48        6.1319    1.5881    2.1335 H         2 RES2    0.0000
    113 H49        6.5501    0.4452    3.1735 H         2 RES2    0.0000
    114 H50        1.1868    2.7750   -1.8809 H         2 RES2    0.0000
    115 H51       -0.0799    3.6341   -1.4144 H         2 RES2    0.0000
    116 H52       -0.1261    2.0363   -1.3401 H         2 RES2    0.0000
    117 H53        9.5066    5.7379    6.1509 H         2 RES2    0.0000
    118 H54       11.1881    7.4200    5.8032 H         2 RES2    0.0000
    119 H55        8.5469    9.5785    4.1481 H         2 RES2    0.0000
    120 H56        8.1389   10.1901    5.5655 H         2 RES2    0.0000
    121 H57        6.5765    8.6715    5.6606 H         2 RES2    0.0000
    122 H58        7.1707    7.9043    4.3888 H         2 RES2    0.0000
@<TRIPOS>BOND
     1    1    8 1
     2    2    9 2
     3    3   11 1
     4    4   14 2
     5    5   27 1
     6    6   28 1
     7    7   30 2
     8    8    9 1
     9    9   10 1
    10   10   11 2
    11   11   12 1
    12   12   13 2
    13   13    8 1
    14   14   10 1
    15   15   14 1
    16   16   15 1
    17   17   16 1
    18   18   17 1
    19   19   18 1
    20   20   19 1
    21   21   16 1
    22   22   21 1
    23   23   22 2
    24   24   15 1
    25   25   24 1
    26   26   19 1
    27   27   12 1
    28   28   27 1
    29   29    6 1
    30   30   29 1
    31   31   30 1
    32   32   27 1
    33   33    1 1
    34   34    3 1
    35   35    5 1
    36   36   13 1
    37   37   15 1
    38   38   16 1
    39   39   17 1
    40   40   17 1
    41   41   18 1
    42   42   18 1
    43   43   19 1
    44   44   20 1
    45   45   20 1
    46   46   21 1
    47   47   22 1
    48   48   23 1
    49   49   24 1
    50   50   25 1
    51   51   25 1
    52   52   25 1
    53   53   26 1
    54   54   26 1
    55   55   26 1
    56   56   28 1
    57   57   29 1
    58   58   31 1
    59   59   31 1
    60   60   32 1
    61   61   32 1
    62   62   69 1
    63   63   70 2
    64   64   72 1
    65   65   75 2
    66   66   88 1
    67   67   89 1
    68   68   91 2
    69   69   70 1
    70   70   71 1
    71   71   72 2
    72   72   73 1
    73   73   74 2
    74   74   69 1
    75   75   71 1
    76   76   75 1
    77   77   76 1
    78   78   77 1
    79   79   78 1
    80   80   79 1
    81   81   80 1
    82   82   77 1
    83   83   82 1
    84   84   83 2
    85   85   76 1
    86   86   85 1
    87   87   80 1
    88   88   73 1
    89   89   88 1
    90   90   67 1
    91   91   90 1
    92   92   91 1
    93   93   88 1
    94   94   62 1
    95   95   64 1
    96   96   66 1
    97   97   74 1
    98   98   76 1
    99   99   77 1
   100  100   78 1
   101  101   78 1
   102  102   79 1
   103  103   79 1
   104  104   80 1
   105  105   81 1
   106  106   81 1
   107  107   82 1
   108  108   83 1
   109  109   84 1
   110  110   85 1
   111  111   86 1
   112  112   86 1
   113  113   86 1
   114  114   87 1
   115  115   87 1
   116  116   87 1
   117  117   89 1
   118  118   90 1
   119  119   92 1
   120  120   92 1
   121  121   93 1
   122  122   93 1
   123   20   21 1
   124   23   24 1
   125   28   29 1
   126   31   32 1
   127   81   82 1
   128   84   85 1
   129   89   90 1
   130   92   93 1
@<TRIPOS>SUBSTRUCTURE
     1 RES1 1
     2 RES2 62

@<TRIPOS>CRYSIN
   7.5649    9.7850   29.7160  90.0000  90.5940  90.0000   4 1

