# MOL2 file generated by ConQuest
# Please check atom types

@<TRIPOS>MOLECULE
RIMFAU
    49    54     1
SMALL
NO_CHARGES
****
Generated from CSD

@<TRIPOS>ATOM
      1 N1         6.2717   10.6292    2.7856 N.pl3     1 RES1    0.0000
      2 O1         1.8018    7.8669    1.0499 O.3       1 RES1    0.0000
      3 O2         7.2975   10.0257    3.0795 O.2       1 RES1    0.0000
      4 C1         5.1353    9.8708    2.3039 C.ar      1 RES1    0.0000
      5 O3         6.1510   11.8427    2.9162 O.2       1 RES1    0.0000
      6 C2         4.0926   10.5718    1.7112 C.ar      1 RES1    0.0000
      7 H1         4.1327   11.4946    1.6067 H         1 RES1    0.0000
      8 O4         6.0622    5.2643    3.7195 O.3       1 RES1    0.0000
      9 H2         6.6870    4.9514    4.1490 H         1 RES1    0.0000
     10 C3         5.0704    8.5264    2.4966 C.ar      1 RES1    0.0000
     11 H3         5.7943    8.0873    2.8819 H         1 RES1    0.0000
     12 C4         2.9921    9.8516    1.2801 C.ar      1 RES1    0.0000
     13 H4         2.2909   10.2827    0.8458 H         1 RES1    0.0000
     14 C5         2.9426    8.4976    1.4973 C.ar      1 RES1    0.0000
     15 C6         1.6761    6.4890    1.2050 C.ar      1 RES1    0.0000
     16 C7         0.4607    5.9780    0.6809 C.ar      1 RES1    0.0000
     17 H5        -0.1305    6.5353    0.2270 H         1 RES1    0.0000
     18 C8         0.1798    4.6719    0.8491 C.ar      1 RES1    0.0000
     19 H6        -0.6285    4.3382    0.5323 H         1 RES1    0.0000
     20 C9         1.0825    3.7906    1.4957 C.ar      1 RES1    0.0000
     21 C10        0.7941    2.4270    1.6981 C.ar      1 RES1    0.0000
     22 H7        -0.0226    2.0885    1.4091 H         1 RES1    0.0000
     23 C11        1.6823    1.5967    2.3039 C.ar      1 RES1    0.0000
     24 H8         1.4695    0.7010    2.4361 H         1 RES1    0.0000
     25 C12        2.9207    2.0949    2.7284 C.ar      1 RES1    0.0000
     26 H9         3.5409    1.5169    3.1105 H         1 RES1    0.0000
     27 C13        3.2355    3.4233    2.5880 C.ar      1 RES1    0.0000
     28 H10        4.1326    3.7075    2.9407 H         1 RES1    0.0000
     29 C14        2.3164    4.3191    1.9888 C.ar      1 RES1    0.0000
     30 C15        2.5825    5.7226    1.8728 C.ar      1 RES1    0.0000
     31 C16        3.8298    6.3325    2.4982 C.3       1 RES1    0.0000
     32 H11        4.6041    5.8711    2.1145 H         1 RES1    0.0000
     33 C17        3.9528    7.7919    2.1324 C.ar      1 RES1    0.0000
     34 C18        3.9098    6.1728    4.0232 C.ar      1 RES1    0.0000
     35 C19        5.0634    5.6395    4.5751 C.ar      1 RES1    0.0000
     36 C20        5.2338    5.4767    5.9777 C.ar      1 RES1    0.0000
     37 H12        6.0251    5.1286    6.3190 H         1 RES1    0.0000
     38 C21        4.2380    5.8343    6.7990 C.ar      1 RES1    0.0000
     39 H13        4.3376    5.7050    7.7134 H         1 RES1    0.0000
     40 C22        3.0379    6.4044    6.3075 C.ar      1 RES1    0.0000
     41 C23        2.0095    6.7684    7.1990 C.ar      1 RES1    0.0000
     42 H14        2.1162    6.6183    8.1101 H         1 RES1    0.0000
     43 C24        0.8463    7.3464    6.7353 C.ar      1 RES1    0.0000
     44 H15        0.1708    7.5891    7.3248 H         1 RES1    0.0000
     45 C25        0.7035    7.5540    5.3834 C.ar      1 RES1    0.0000
     46 H16       -0.0712    7.9611    5.0699 H         1 RES1    0.0000
     47 C26        1.6538    7.1820    4.4951 C.ar      1 RES1    0.0000
     48 H17        1.5104    7.3320    3.5889 H         1 RES1    0.0000
     49 C27        2.8679    6.5688    4.9147 C.ar      1 RES1    0.0000
@<TRIPOS>BOND
     1    1    3 2
     2    2   14 1
     3    4    1 1
     4    5    1 2
     5    6    4 ar
     6    7    6 1
     7    8    9 1
     8   10    4 ar
     9   11   10 1
    10   12    6 ar
    11   13   12 1
    12   14   12 ar
    13   15    2 1
    14   16   15 ar
    15   17   16 1
    16   18   16 ar
    17   19   18 1
    18   20   18 ar
    19   21   20 ar
    20   22   21 1
    21   23   21 ar
    22   24   23 1
    23   25   23 ar
    24   26   25 1
    25   27   25 ar
    26   28   27 1
    27   29   20 ar
    28   30   15 ar
    29   31   30 1
    30   32   31 1
    31   33   10 ar
    32   34   31 1
    33   35    8 1
    34   36   35 ar
    35   37   36 1
    36   38   36 ar
    37   39   38 1
    38   40   38 ar
    39   41   40 ar
    40   42   41 1
    41   43   41 ar
    42   44   43 1
    43   45   43 ar
    44   46   45 1
    45   47   45 ar
    46   48   47 1
    47   49   34 ar
    48   14   33 ar
    49   27   29 ar
    50   29   30 ar
    51   31   33 1
    52   34   35 ar
    53   40   49 ar
    54   47   49 ar
@<TRIPOS>SUBSTRUCTURE
     1 RES1 1

@<TRIPOS>CRYSIN
   7.5410   15.9670   16.4260  90.0000  96.2600  90.0000  14 1

