# MOL2 file generated by ConQuest
# Please check atom types

@<TRIPOS>MOLECULE
RIMHUQ
    56    62     2
SMALL
NO_CHARGES
****
Generated from CSD

@<TRIPOS>ATOM
      1 O1         7.4410    3.1926    8.8704 O.3       1 RES1    0.0000
      2 N1         5.5258   -0.7256    7.4815 N.2       1 RES1    0.0000
      3 N2         6.5601    2.2040    9.2522 N.2       1 RES1    0.0000
      4 N3         8.4583    0.3628    7.1645 N.2       1 RES1    0.0000
      5 C1         5.6613    0.0635    8.4930 C.2       1 RES1    0.0000
      6 C2         5.0736   -0.2086    9.8021 C.ar      1 RES1    0.0000
      7 C3         5.5953    0.2993   11.0487 C.ar      1 RES1    0.0000
      8 C4         4.9117    0.1179   12.2521 C.ar      1 RES1    0.0000
      9 C5         3.7014   -0.5895   12.2823 C.ar      1 RES1    0.0000
     10 C6         3.1978   -1.1247   11.0724 C.ar      1 RES1    0.0000
     11 C7         4.1477   -1.1156    9.8992 C.ar      1 RES1    0.0000
     12 C8         3.7856   -1.3786    8.4391 C.3       1 RES1    0.0000
     13 C9         4.7161   -1.7868    7.3953 C.3       1 RES1    0.0000
     14 C10        5.4328   -2.9477    7.9236 C.3       1 RES1    0.0000
     15 C11        3.9889   -2.0680    6.1336 C.3       1 RES1    0.0000
     16 C12        6.6452    1.2063    8.4520 C.2       1 RES1    0.0000
     17 C13        7.5194    1.1247    7.1817 C.2       1 RES1    0.0000
     18 C14        7.2855    2.0861    6.1012 C.ar      1 RES1    0.0000
     19 C15        6.0578    2.7845    5.9373 C.ar      1 RES1    0.0000
     20 C16        5.8868    3.6552    4.9906 C.ar      1 RES1    0.0000
     21 C17        6.8138    3.7641    3.9963 C.ar      1 RES1    0.0000
     22 C18        8.1941    3.0475    4.0459 C.ar      1 RES1    0.0000
     23 C19        8.4166    2.1768    5.1415 C.ar      1 RES1    0.0000
     24 C20        9.6263    1.4875    5.4154 C.3       1 RES1    0.0000
     25 C21        9.3222    0.1814    6.0689 C.3       1 RES1    0.0000
     26 C22        8.6115   -0.8254    5.1609 C.3       1 RES1    0.0000
     27 C23       10.6128   -0.5714    6.3665 C.3       1 RES1    0.0000
     28 H1         7.3533    3.9001    9.9854 H         1 RES1    0.0000
     29 O2         8.3594    7.6732    9.2910 O.3       2 RES2    0.0000
     30 N4         7.4080    4.7618   10.9710 N.2       2 RES2    0.0000
     31 N5         9.2957    6.6302    9.0904 N.2       2 RES2    0.0000
     32 N6        10.4336    4.0180   10.8265 N.2       2 RES2    0.0000
     33 C24        8.3400    5.7595   11.0810 C.2       2 RES2    0.0000
     34 C25        8.6018    6.6483   12.2047 C.ar      2 RES2    0.0000
     35 C26        9.7357    7.4011   12.2348 C.ar      2 RES2    0.0000
     36 C27        9.9431    8.2446   13.3973 C.ar      2 RES2    0.0000
     37 C28        8.9057    8.4260   14.3462 C.ar      2 RES2    0.0000
     38 C29        7.7755    7.7095   14.1176 C.ar      2 RES2    0.0000
     39 C30        7.7270    6.8116   13.1903 C.ar      2 RES2    0.0000
     40 C31        6.6032    5.9136   13.0177 C.3       2 RES2    0.0000
     41 C32        6.5780    4.6529   12.2003 C.3       2 RES2    0.0000
     42 C33        5.1791    4.2629   11.6806 C.3       2 RES2    0.0000
     43 C34        7.2942    3.6461   13.1773 C.3       2 RES2    0.0000
     44 C35        9.2873    5.7232    9.9445 C.2       2 RES2    0.0000
     45 C36       10.2025    4.5985    9.7072 C.2       2 RES2    0.0000
     46 C37       10.9993    4.3445    8.5081 C.ar      2 RES2    0.0000
     47 C38       10.5648    4.7436    7.1968 C.ar      2 RES2    0.0000
     48 C39       11.3252    4.4534    6.0754 C.ar      2 RES2    0.0000
     49 C40       12.4926    3.6280    6.3622 C.ar      2 RES2    0.0000
     50 C41       13.0454    3.1926    7.4600 C.ar      2 RES2    0.0000
     51 C42       12.2033    3.6008    8.5685 C.ar      2 RES2    0.0000
     52 C43       12.5199    2.9387    9.6468 C.3       2 RES2    0.0000
     53 C44       11.4212    2.9659   10.5871 C.3       2 RES2    0.0000
     54 C45       11.6595    2.4852   12.0451 C.3       2 RES2    0.0000
     55 C46       10.6460    1.6870   10.3025 C.3       2 RES2    0.0000
     56 H2         8.6698    8.5258    8.8855 H         2 RES2    0.0000
@<TRIPOS>BOND
     1    1    3 1
     2    2    5 2
     3    3   16 2
     4    4   17 2
     5    5    6 1
     6    6    7 ar
     7    7    8 ar
     8    8    9 ar
     9    9   10 ar
    10   10   11 ar
    11   11    6 ar
    12   12   11 1
    13   13    2 1
    14   14   13 1
    15   15   13 1
    16   16    5 1
    17   17   16 1
    18   18   17 1
    19   19   18 ar
    20   20   19 ar
    21   21   20 ar
    22   22   21 ar
    23   23   18 ar
    24   24   23 1
    25   25    4 1
    26   26   25 1
    27   27   25 1
    28   28    1 1
    29   29   31 1
    30   30   33 2
    31   31   44 2
    32   32   45 2
    33   33   34 1
    34   34   35 ar
    35   35   36 ar
    36   36   37 ar
    37   37   38 ar
    38   38   39 ar
    39   39   34 ar
    40   40   39 1
    41   41   30 1
    42   42   41 1
    43   43   41 1
    44   44   33 1
    45   45   44 1
    46   46   45 1
    47   47   46 ar
    48   48   47 ar
    49   49   48 ar
    50   50   49 ar
    51   51   46 ar
    52   52   51 1
    53   53   32 1
    54   54   53 1
    55   55   53 1
    56   56   29 1
    57   12   13 1
    58   22   23 ar
    59   24   25 1
    60   40   41 1
    61   50   51 ar
    62   52   53 1
@<TRIPOS>SUBSTRUCTURE
     1 RES1 1
     2 RES2 29

