# MOL2 file generated by ConQuest
# Please check atom types

@<TRIPOS>MOLECULE
RIMTAI
    20    21     1
SMALL
NO_CHARGES
****
Generated from CSD

@<TRIPOS>ATOM
      1 O1         5.3461    8.7422    3.8517 O.2       1 RES1    0.0000
      2 O2         3.5118    8.3094    2.7840 O.2       1 RES1    0.0000
      3 O3         0.9379    5.1920    8.4542 O.3       1 RES1    0.0000
      4 O4        -1.2061    3.4661    9.4575 O.2       1 RES1    0.0000
      5 N1         4.2255    8.2808    3.7631 N.pl3     1 RES1    0.0000
      6 N2         1.3531    3.9848    7.9088 N.2       1 RES1    0.0000
      7 N3        -1.9330    3.5305    7.3597 N.am      1 RES1    0.0000
      8 C1         3.6912    7.6369    4.9960 C.ar      1 RES1    0.0000
      9 C2         4.4475    7.6083    6.1341 C.ar      1 RES1    0.0000
     10 C3         3.9259    7.0717    7.2856 C.ar      1 RES1    0.0000
     11 C4         2.6578    6.5334    7.3330 C.ar      1 RES1    0.0000
     12 C5         1.9117    6.5638    6.1596 C.ar      1 RES1    0.0000
     13 C6         2.4114    7.1075    4.9644 C.ar      1 RES1    0.0000
     14 C7         2.0729    6.0326    8.6023 C.3       1 RES1    0.0000
     15 C8         0.4551    3.1317    7.7654 C.2       1 RES1    0.0000
     16 C9        -0.9207    3.4303    8.2513 C.2       1 RES1    0.0000
     17 C10       -1.6623    3.5126    5.9070 C.3       1 RES1    0.0000
     18 C11       -1.1699    2.1748    5.3762 C.3       1 RES1    0.0000
     19 C12        0.2910    1.8994    5.6361 C.3       1 RES1    0.0000
     20 C13        0.6663    1.8439    7.0925 C.3       1 RES1    0.0000
@<TRIPOS>BOND
     1    1    5 2
     2    2    5 2
     3    3    6 1
     4    4   16 2
     5    5    8 1
     6    6   15 2
     7    7   16 1
     8    8    9 ar
     9    9   10 ar
    10   10   11 ar
    11   11   12 ar
    12   12   13 ar
    13   13    8 ar
    14   14    3 1
    15   15   16 1
    16   17    7 1
    17   18   17 1
    18   19   18 1
    19   20   15 1
    20   11   14 1
    21   19   20 1
@<TRIPOS>SUBSTRUCTURE
     1 RES1 1

@<TRIPOS>CRYSIN
   6.2250   17.8850   12.1570  90.0000  92.3500  90.0000  14 1

