# MOL2 file generated by ConQuest
# Please check atom types

@<TRIPOS>MOLECULE
RINWUG
    27    28     1
SMALL
NO_CHARGES
****
Generated from CSD

@<TRIPOS>ATOM
      1 O1        -1.3731    2.3803   12.9884 O.2       1 RES1    0.0000
      2 O2        -0.4205    6.2729   10.7265 O.3       1 RES1    0.0000
      3 O3        -1.3544    5.7188    8.3407 O.2       1 RES1    0.0000
      4 O4        -0.8399    7.8384    7.6871 O.2       1 RES1    0.0000
      5 N1        -0.3903    4.0740   14.1227 N.am      1 RES1    0.0000
      6 N2        -0.3497    4.8269   12.9747 N.2       1 RES1    0.0000
      7 N3        -1.0055    0.2879   17.4998 N.ar      1 RES1    0.0000
      8 N4        -0.8609    6.9345    8.5205 N.pl3     1 RES1    0.0000
      9 C1        -0.9312    2.8322   14.0342 C.2       1 RES1    0.0000
     10 C2        -0.9440    2.0142   15.2911 C.ar      1 RES1    0.0000
     11 C3        -1.7230    0.8517   15.2802 C.ar      1 RES1    0.0000
     12 C4        -1.7159    0.0435   16.3968 C.ar      1 RES1    0.0000
     13 C5        -0.2609    1.4123   17.4971 C.ar      1 RES1    0.0000
     14 C6        -0.2209    2.2847   16.4281 C.ar      1 RES1    0.0000
     15 C7         0.2168    5.9676   13.0238 C.2       1 RES1    0.0000
     16 C8         0.2436    6.7726   11.8322 C.2       1 RES1    0.0000
     17 C9         0.7875    7.9796   11.5327 C.2       1 RES1    0.0000
     18 C10        0.4708    8.2751   10.1859 C.2       1 RES1    0.0000
     19 C11       -0.2488    7.2235    9.7706 C.2       1 RES1    0.0000
     20 H1        -2.1911    0.5867   14.5299 H         1 RES1    0.0000
     21 H2        -2.1721   -0.8257   16.3274 H         1 RES1    0.0000
     22 H3         0.2186    1.5861   18.3836 H         1 RES1    0.0000
     23 H4         0.2447    3.0854   16.5861 H         1 RES1    0.0000
     24 H5         0.6044    6.3772   13.7401 H         1 RES1    0.0000
     25 H6         1.3028    8.5826   12.1468 H         1 RES1    0.0000
     26 H7         0.7047    9.0932    9.7229 H         1 RES1    0.0000
     27 H8        -0.1802    4.4216   14.7886 H         1 RES1    0.0000
@<TRIPOS>BOND
     1    1    9 2
     2    2   16 1
     3    3    8 2
     4    4    8 2
     5    5    6 1
     6    6   15 2
     7    7   12 ar
     8    8   19 1
     9    9    5 1
    10   10    9 1
    11   11   10 ar
    12   12   11 ar
    13   13    7 ar
    14   14   10 ar
    15   15   16 1
    16   16   17 2
    17   17   18 1
    18   18   19 2
    19   19    2 1
    20   20   11 1
    21   21   12 1
    22   22   13 1
    23   23   14 1
    24   24   15 1
    25   25   17 1
    26   26   18 1
    27   27    5 1
    28   13   14 ar
@<TRIPOS>SUBSTRUCTURE
     1 RES1 1

@<TRIPOS>CRYSIN
   7.5180   10.8640   13.7350  90.0000  97.5000  90.0000 231 1

