# MOL2 file generated by ConQuest
# Please check atom types

@<TRIPOS>MOLECULE
RINYOC
    25    26     1
SMALL
NO_CHARGES
****
Generated from CSD

@<TRIPOS>ATOM
      1 O1        12.5907    1.2825    1.0715 O.2       1 RES1    0.0000
      2 O2         9.7090    0.3100    3.8466 O.3       1 RES1    0.0000
      3 O3         7.6862   -0.3395    5.3159 O.2       1 RES1    0.0000
      4 O4         6.2818    0.0000    3.7354 O.2       1 RES1    0.0000
      5 N1        12.8499    0.9610    2.2955 N.pl3     1 RES1    0.0000
      6 N2         7.4215   -0.0223    4.1834 N.pl3     1 RES1    0.0000
      7 C1        11.9209    0.6719    3.1697 C.2       1 RES1    0.0000
      8 C2        10.5381    0.6986    2.8176 C.2       1 RES1    0.0000
      9 C3         9.8035    0.9732    1.7091 C.2       1 RES1    0.0000
     10 C4         8.4613    0.7541    2.0307 C.2       1 RES1    0.0000
     11 C5         8.4640    0.3576    3.3103 C.2       1 RES1    0.0000
     12 C6        14.2597    0.8896    2.6694 C.ar      1 RES1    0.0000
     13 C7        14.4055    1.2342    3.9371 C.ar      1 RES1    0.0000
     14 C8        16.0260    1.1679    4.2183 C.ar      1 RES1    0.0000
     15 C9        16.9361    0.7959    3.2558 C.ar      1 RES1    0.0000
     16 C10       16.5013    0.4477    1.9936 C.ar      1 RES1    0.0000
     17 C11       15.1482    0.5017    1.6862 C.ar      1 RES1    0.0000
     18 H1        14.0436    1.6076    4.5017 H         1 RES1    0.0000
     19 H2        16.2852    1.4778    5.1993 H         1 RES1    0.0000
     20 H3        17.8516    0.8002    3.4553 H         1 RES1    0.0000
     21 H4        17.1494    0.1370    1.3407 H         1 RES1    0.0000
     22 H5        14.8268    0.1586    0.8502 H         1 RES1    0.0000
     23 H6        12.2072    0.2884    4.0548 H         1 RES1    0.0000
     24 H7        10.1546    1.3913    0.9374 H         1 RES1    0.0000
     25 H8         7.6970    0.9083    1.5151 H         1 RES1    0.0000
@<TRIPOS>BOND
     1    1    5 1
     2    2    8 1
     3    3    6 2
     4    4    6 2
     5    5    7 2
     6    6   11 1
     7    7    8 1
     8    8    9 2
     9    9   10 1
    10   10   11 2
    11   11    2 1
    12   12    5 1
    13   13   12 ar
    14   14   13 ar
    15   15   14 ar
    16   16   15 ar
    17   17   12 ar
    18   18   13 1
    19   19   14 1
    20   20   15 1
    21   21   16 1
    22   22   17 1
    23   23    7 1
    24   24    9 1
    25   25   10 1
    26   16   17 ar
@<TRIPOS>SUBSTRUCTURE
     1 RES1 1

@<TRIPOS>CRYSIN
  27.0070    7.2090   10.9000  90.0000  90.0000  90.0000  61 1

