# MOL2 file generated by ConQuest
# Please check atom types

@<TRIPOS>MOLECULE
RIPNOT
    54    50     2
SMALL
NO_CHARGES
****
Generated from CSD

@<TRIPOS>ATOM
      1 O1         6.1250    1.6250   14.7611 O.3       1 RES1    0.0000
      2 O2         4.0652    3.7639   13.6382 O.2       1 RES1    0.0000
      3 O3         2.5622    5.1598   13.0084 O.2       1 RES1    0.0000
      4 O4        -0.4125    7.1954   15.9556 O.2       1 RES1    0.0000
      5 O5        -0.2265    6.9169   18.0677 O.2       1 RES1    0.0000
      6 N1         4.8966    2.5152   17.2838 N.2       1 RES1    0.0000
      7 N2         4.4449    3.1979   16.1982 N.3       1 RES1    0.0000
      8 N3         3.1302    4.5454   13.8606 N.pl3     1 RES1    0.0000
      9 N4         0.1016    6.7283   16.8997 N.pl3     1 RES1    0.0000
     10 C1         6.9217    1.8505   15.8794 C.3       1 RES1    0.0000
     11 C2         7.8561    0.7007   16.2107 C.3       1 RES1    0.0000
     12 C3         8.0245    0.7186   17.7457 C.3       1 RES1    0.0000
     13 C4         6.6291    1.1319   18.1999 C.3       1 RES1    0.0000
     14 C5         6.0021    1.9224   17.0754 C.2       1 RES1    0.0000
     15 C6         7.6597    3.1979   15.7161 C.3       1 RES1    0.0000
     16 C7         8.4238    3.2788   14.4034 C.3       1 RES1    0.0000
     17 C8         7.5428    2.9374   13.2914 C.3       1 RES1    0.0000
     18 C9         6.8453    1.6349   13.5294 C.3       1 RES1    0.0000
     19 C10        8.4026    2.9464   11.9912 C.3       1 RES1    0.0000
     20 C11        8.5875    4.1322   11.3069 C.3       1 RES1    0.0000
     21 C12        3.4311    4.0334   16.3553 C.ar      1 RES1    0.0000
     22 C13        2.7588    4.7161   15.2837 C.ar      1 RES1    0.0000
     23 C14        1.7041    5.5874   15.4735 C.ar      1 RES1    0.0000
     24 C15        1.2786    5.8300   16.7659 C.ar      1 RES1    0.0000
     25 C16        1.9377    5.2191   17.8857 C.ar      1 RES1    0.0000
     26 C17        2.9532    4.3388   17.6742 C.ar      1 RES1    0.0000
     27 C18        7.7842    2.9195   11.0736 Du        2 SUP2    0.0000
     28 H1         7.4641   -0.1554   15.9214 H         1 RES1    0.0000
     29 H2         8.7207    0.8210   15.7674 H         1 RES1    0.0000
     30 H3         8.2729   -0.1716   18.0754 H         1 RES1    0.0000
     31 H4         8.7024    1.3690   18.0070 H         1 RES1    0.0000
     32 H5         6.0935    0.3243   18.3849 H         1 RES1    0.0000
     33 H6         6.6983    1.6672   19.0117 H         1 RES1    0.0000
     34 H7         7.0006    3.9202   15.7332 H         1 RES1    0.0000
     35 H8         8.2891    3.3057   16.4548 H         1 RES1    0.0000
     36 H9         8.7694    4.1870   14.2930 H         1 RES1    0.0000
     37 H10        9.1755    2.6455   14.4361 H         1 RES1    0.0000
     38 H11        6.8606    3.6408   13.2136 H         1 RES1    0.0000
     39 H12        7.5168    0.9163   13.5496 H         1 RES1    0.0000
     40 H13        6.2204    1.4678   12.7937 H         1 RES1    0.0000
     41 H14        1.2681    6.0141   14.7036 H         1 RES1    0.0000
     42 H15        1.6586    5.4248   18.7971 H         1 RES1    0.0000
     43 H16        3.3655    3.8986   18.4456 H         1 RES1    0.0000
     44 H17        4.9744    3.0363   15.5839 H         1 RES1    0.0000
     45 H18        9.2673    2.5673   12.2276 H         1 RES1    0.0000
     46 H19        7.9424    2.3221   11.3660 H         1 RES1    0.0000
     47 H20        8.9752    3.7109   12.0021 Du        2 SUP2    0.0000
     48 H21        8.9294    2.1119   11.9865 Du        2 SUP2    0.0000
     49 H22        8.3557    2.8162   10.2928 Du        2 SUP2    0.0000
     50 H23        7.2729    3.7522   11.0083 Du        2 SUP2    0.0000
     51 H24        7.1606    2.1595   11.1296 Du        2 SUP2    0.0000
     52 H25        8.9801    4.7906   11.8979 H         1 RES1    0.0000
     53 H26        9.1549    3.9759   10.5323 H         1 RES1    0.0000
     54 H27        7.7023    4.4538   10.9989 H         1 RES1    0.0000
@<TRIPOS>BOND
     1    1   10 1
     2    2    8 2
     3    3    8 2
     4    4    9 2
     5    5    9 2
     6    6    7 1
     7    7   21 1
     8    8   22 1
     9    9   24 1
    10   10   11 1
    11   11   12 1
    12   12   13 1
    13   13   14 1
    14   14    6 2
    15   15   10 1
    16   16   15 1
    17   17   16 1
    18   18    1 1
    19   19   17 1
    20   20   19 1
    21   21   22 ar
    22   22   23 ar
    23   23   24 ar
    24   24   25 ar
    25   25   26 ar
    26   26   21 ar
    27   28   11 1
    28   29   11 1
    29   30   12 1
    30   31   12 1
    31   32   13 1
    32   33   13 1
    33   34   15 1
    34   35   15 1
    35   36   16 1
    36   37   16 1
    37   38   17 1
    38   39   18 1
    39   40   18 1
    40   41   23 1
    41   42   25 1
    42   43   26 1
    43   44    7 1
    44   45   19 1
    45   46   19 1
    46   52   20 1
    47   53   20 1
    48   54   20 1
    49   10   14 1
    50   17   18 1
@<TRIPOS>SUBSTRUCTURE
     1 RES1 1
     2 SUP2 27

@<TRIPOS>CRYSIN
  25.9020    8.9830   15.9280  90.0000 102.4610  90.0000  15 1

