# MOL2 file generated by ConQuest
# Please check atom types

@<TRIPOS>MOLECULE
RIPNEJ
    48    50     1
SMALL
NO_CHARGES
****
Generated from CSD

@<TRIPOS>ATOM
      1 O1        11.5594    3.5945    4.8135 O.3       1 RES1    0.0000
      2 O2        10.9921    2.2000    7.4762 O.2       1 RES1    0.0000
      3 O3        10.8663    1.0197    9.2710 O.2       1 RES1    0.0000
      4 O4        10.3532   -3.6480    9.2232 O.2       1 RES1    0.0000
      5 O5         9.9979   -4.7111    7.3872 O.2       1 RES1    0.0000
      6 N1        10.8761    0.9458    3.7175 N.2       1 RES1    0.0000
      7 N2        10.8478    1.0758    5.1028 N.3       1 RES1    0.0000
      8 N3        10.8428    1.1064    8.0448 N.pl3     1 RES1    0.0000
      9 N4        10.2187   -3.6863    8.0237 N.pl3     1 RES1    0.0000
     10 C1        11.3584    3.4365    3.3793 C.3       1 RES1    0.0000
     11 C2        10.1299    4.3032    3.0688 C.3       1 RES1    0.0000
     12 C3        10.0941    5.3204    4.1726 C.3       1 RES1    0.0000
     13 C4        10.6307    4.5556    5.3666 C.3       1 RES1    0.0000
     14 C5        12.6411    3.9259    2.6905 C.3       1 RES1    0.0000
     15 C6        12.7040    3.6506    1.1995 C.3       1 RES1    0.0000
     16 C7        12.4832    2.1797    0.9158 C.3       1 RES1    0.0000
     17 C8        11.1524    1.7208    1.5166 C.3       1 RES1    0.0000
     18 C9        11.1092    1.9834    3.0043 C.2       1 RES1    0.0000
     19 C10        8.7473    5.9628    4.4397 C.3       1 RES1    0.0000
     20 C11       11.3201    5.3637    6.4203 C.3       1 RES1    0.0000
     21 C12       10.6220   -0.0408    5.8294 C.ar      1 RES1    0.0000
     22 C13       10.6578   -0.0841    7.2448 C.ar      1 RES1    0.0000
     23 C14       10.5061   -1.2645    7.9447 C.ar      1 RES1    0.0000
     24 C15       10.3310   -2.4371    7.2604 C.ar      1 RES1    0.0000
     25 C16       10.2335   -2.4499    5.8806 C.ar      1 RES1    0.0000
     26 C17       10.3988   -1.2874    5.2019 C.ar      1 RES1    0.0000
     27 H1        10.5258   -1.2619    8.9239 H         1 RES1    0.0000
     28 H2        10.0497   -3.2835    5.4010 H         1 RES1    0.0000
     29 H3        10.3606   -1.3129    4.2227 H         1 RES1    0.0000
     30 H4        10.2261    4.7391    2.1976 H         1 RES1    0.0000
     31 H5         9.3134    3.7602    3.0733 H         1 RES1    0.0000
     32 H6        12.7102    4.8947    2.8263 H         1 RES1    0.0000
     33 H7        13.4046    3.4823    3.1156 H         1 RES1    0.0000
     34 H8        12.0108    4.1758    0.7466 H         1 RES1    0.0000
     35 H9        13.5859    3.9157    0.8612 H         1 RES1    0.0000
     36 H10       12.4672    2.0343   -0.0534 H         1 RES1    0.0000
     37 H11       13.2134    1.6596    1.3130 H         1 RES1    0.0000
     38 H12       10.4210    2.2102    1.0849 H         1 RES1    0.0000
     39 H13       11.0426    0.7622    1.3564 H         1 RES1    0.0000
     40 H14       10.7330    6.0316    3.9523 H         1 RES1    0.0000
     41 H15        9.8894    4.0687    5.7827 H         1 RES1    0.0000
     42 H16        8.8311    6.5950    5.1885 H         1 RES1    0.0000
     43 H17        8.4451    6.4421    3.6430 H         1 RES1    0.0000
     44 H18        8.0960    5.2694    4.6756 H         1 RES1    0.0000
     45 H19       11.6692    4.7672    7.1168 H         1 RES1    0.0000
     46 H20       12.0602    5.8659    6.0197 H         1 RES1    0.0000
     47 H21       10.6812    5.9909    6.8231 H         1 RES1    0.0000
     48 H22       11.0019    1.8865    5.5301 H         1 RES1    0.0000
@<TRIPOS>BOND
     1    1   10 1
     2    2    8 2
     3    3    8 2
     4    4    9 2
     5    5    9 2
     6    6    7 1
     7    7   21 1
     8    8   22 1
     9    9   24 1
    10   10   11 1
    11   11   12 1
    12   12   13 1
    13   13    1 1
    14   14   10 1
    15   15   14 1
    16   16   15 1
    17   17   16 1
    18   18    6 2
    19   19   12 1
    20   20   13 1
    21   21   22 ar
    22   22   23 ar
    23   23   24 ar
    24   24   25 ar
    25   25   26 ar
    26   26   21 ar
    27   27   23 1
    28   28   25 1
    29   29   26 1
    30   30   11 1
    31   31   11 1
    32   32   14 1
    33   33   14 1
    34   34   15 1
    35   35   15 1
    36   36   16 1
    37   37   16 1
    38   38   17 1
    39   39   17 1
    40   40   12 1
    41   41   13 1
    42   42   19 1
    43   43   19 1
    44   44   19 1
    45   45   20 1
    46   46   20 1
    47   47   20 1
    48   48    7 1
    49   10   18 1
    50   17   18 1
@<TRIPOS>SUBSTRUCTURE
     1 RES1 1

@<TRIPOS>CRYSIN
  12.3340   25.4930   11.1270  90.0000  90.0000  90.0000  41 1

