# MOL2 file generated by ConQuest
# Please check atom types

@<TRIPOS>MOLECULE
RIRMAH02
    18    18     1
SMALL
NO_CHARGES
****
Generated from CSD

@<TRIPOS>ATOM
      1 C1         3.8043    9.0370    0.4280 C.ar      1 RES1    0.0000
      2 H1         4.1337    8.4774   -0.2305 H         1 RES1    0.0000
      3 C2         3.8909    8.6839    1.7607 C.ar      1 RES1    0.0000
      4 H2         4.3171    7.8464    2.0162 H         1 RES1    0.0000
      5 C3         3.3968    9.5350    2.7738 C.ar      1 RES1    0.0000
      6 C4         2.7949   10.7753    2.4117 C.ar      1 RES1    0.0000
      7 C5         2.7146   11.1279    1.0738 C.ar      1 RES1    0.0000
      8 H3         2.3328   11.9070    0.7999 H         1 RES1    0.0000
      9 C6         3.2112   10.2551    0.0975 C.ar      1 RES1    0.0000
     10 N1         3.5006    9.1735    4.0783 N.3       1 RES1    0.0000
     11 H4         3.1911    9.5052    4.6431 H         1 RES1    0.0000
     12 H5         3.8146    8.4977    4.2870 H         1 RES1    0.0000
     13 N2         2.3339   11.6485    3.4261 N.3       1 RES1    0.0000
     14 H6         1.8890   11.1875    4.0565 H         1 RES1    0.0000
     15 H7         1.7899   12.2428    3.0518 H         1 RES1    0.0000
     16 N3         3.0700   10.6030   -1.2811 N.pl3     1 RES1    0.0000
     17 O1         3.4816    9.8109   -2.1559 O.2       1 RES1    0.0000
     18 O2         2.5231   11.6835   -1.5806 O.2       1 RES1    0.0000
@<TRIPOS>BOND
     1    1    2 1
     2    3    1 ar
     3    4    3 1
     4    5    3 ar
     5    6    5 ar
     6    7    6 ar
     7    8    7 1
     8    9    1 ar
     9   10    5 1
    10   11   10 1
    11   12   10 1
    12   13    6 1
    13   14   13 1
    14   15   13 1
    15   16    9 1
    16   17   16 2
    17   18   16 2
    18    7    9 ar
@<TRIPOS>SUBSTRUCTURE
     1 RES1 1

@<TRIPOS>CRYSIN
   3.6679   10.1769   17.2030  90.0000  90.0000  90.0000  19 1

