# MOL2 file generated by ConQuest
# Please check atom types

@<TRIPOS>MOLECULE
RIRRIT
   136   138     3
SMALL
NO_CHARGES
****
Generated from CSD

@<TRIPOS>ATOM
      1 N1         4.4124    1.7816    8.3148 N.2       1 RES1    0.0000
      2 N2         4.5145    1.3709    8.2582 Du        3 SUP3    0.0000
      3 O1         3.8209    0.8408    7.7934 O.2       1 RES1    0.0000
      4 O2         4.0222    2.4254    7.8525 Du        3 SUP3    0.0000
      5 N3         8.4693    0.7368   10.1974 N.2       1 RES1    0.0000
      6 N4         8.5317    1.0670   10.2293 Du        3 SUP3    0.0000
      7 O3         9.1069    1.7108    9.8089 O.2       1 RES1    0.0000
      8 O4         8.9588   -0.0486    9.9226 Du        3 SUP3    0.0000
      9 O5         4.1915    1.3885   13.2205 O.2       1 RES1    0.0000
     10 C1         5.6765    2.5142   11.6985 C.3       1 RES1    0.0000
     11 H1         5.4776    3.2787   12.2432 H         1 RES1    0.0000
     12 C2         4.9708    2.7140   10.3280 C.3       1 RES1    0.0000
     13 H2         4.0454    2.8846   10.5165 H         1 RES1    0.0000
     14 N5         5.0012    1.4624    9.5131 N.3       1 RES1    0.0000
     15 C3         4.6725    0.1707   10.1606 C.3       1 RES1    0.0000
     16 H3         3.7225    0.1748   10.2935 H         1 RES1    0.0000
     17 C4         5.3207    0.0513   11.5762 C.3       1 RES1    0.0000
     18 H4         4.8923   -0.6743   12.0346 H         1 RES1    0.0000
     19 C5         6.8311   -0.1718   11.6308 C.3       1 RES1    0.0000
     20 H5         7.0349   -0.9076   11.0491 H         1 RES1    0.0000
     21 N6         7.5035    1.0123   11.0947 N.3       1 RES1    0.0000
     22 C6         7.1961    2.3651   11.6193 C.3       1 RES1    0.0000
     23 H6         7.5157    2.9970   10.9708 H         1 RES1    0.0000
     24 C7         4.9832    1.3223   12.3196 C.2       1 RES1    0.0000
     25 C8         5.4772    3.9308    9.5814 C.ar      1 RES1    0.0000
     26 C9         4.8320    5.1282    9.8003 C.ar      1 RES1    0.0000
     27 H7         4.0301    5.1365   10.3274 H         1 RES1    0.0000
     28 C10        5.3024    6.3187    9.2447 C.ar      1 RES1    0.0000
     29 H8         4.8640    7.1540    9.4201 H         1 RES1    0.0000
     30 C11        6.4305    6.2923    8.4681 C.ar      1 RES1    0.0000
     31 H9         6.7818    7.1026    8.0937 H         1 RES1    0.0000
     32 C12        7.0565    5.1046    8.2192 C.ar      1 RES1    0.0000
     33 H10        7.8270    5.0894    7.6461 H         1 RES1    0.0000
     34 C13        6.5931    3.9114    8.7694 C.ar      1 RES1    0.0000
     35 H11        7.0519    3.0858    8.5949 H         1 RES1    0.0000
     36 C14        4.9804   -1.0351    9.2923 C.ar      1 RES1    0.0000
     37 C15        4.0929   -2.1007    9.3262 C.ar      1 RES1    0.0000
     38 H12        3.3045   -2.0424    9.8712 H         1 RES1    0.0000
     39 C16        4.3323   -3.2440    8.5917 C.ar      1 RES1    0.0000
     40 H13        3.7095   -3.9738    8.6189 H         1 RES1    0.0000
     41 C17        5.4490   -3.3397    7.8215 C.ar      1 RES1    0.0000
     42 H14        5.6246   -4.1431    7.3270 H         1 RES1    0.0000
     43 C18        6.3288   -2.2880    7.7560 C.ar      1 RES1    0.0000
     44 H15        7.1082   -2.3504    7.1998 H         1 RES1    0.0000
     45 C19        6.0996   -1.1364    8.4933 C.ar      1 RES1    0.0000
     46 H16        6.7090   -0.3968    8.4339 H         1 RES1    0.0000
     47 C20        7.3781   -0.5105   13.0256 C.ar      1 RES1    0.0000
     48 C21        8.7471   -0.5814   13.1997 C.ar      1 RES1    0.0000
     49 H17        9.3243   -0.4398   12.4458 H         1 RES1    0.0000
     50 C22        9.2898   -0.8339   14.4498 C.ar      1 RES1    0.0000
     51 H18       10.2433   -0.8755   14.5475 H         1 RES1    0.0000
     52 C23        8.4724   -1.0240   15.5337 C.ar      1 RES1    0.0000
     53 H19        8.8601   -1.1905   16.3963 H         1 RES1    0.0000
     54 C24        7.1227   -0.9879   15.3676 C.ar      1 RES1    0.0000
     55 H20        6.5490   -1.1253   16.1251 H         1 RES1    0.0000
     56 C25        6.5607   -0.7395   14.1191 C.ar      1 RES1    0.0000
     57 H21        5.6060   -0.7159   14.0198 H         1 RES1    0.0000
     58 C26        7.9469    2.6418   12.9234 C.ar      1 RES1    0.0000
     59 C27        7.3607    2.5627   14.1677 C.ar      1 RES1    0.0000
     60 H22        6.4194    2.3851   14.2290 H         1 RES1    0.0000
     61 C28        8.1118    2.7306   15.3133 C.ar      1 RES1    0.0000
     62 H23        7.6798    2.6390   16.1653 H         1 RES1    0.0000
     63 C29        9.4444    3.0137   15.2344 C.ar      1 RES1    0.0000
     64 H24        9.9719    3.1247   16.0289 H         1 RES1    0.0000
     65 C30       10.0293    3.1455   14.0108 C.ar      1 RES1    0.0000
     66 H25       10.9603    3.3716   13.9549 H         1 RES1    0.0000
     67 C31        9.2932    2.9568   12.8509 C.ar      1 RES1    0.0000
     68 H26        9.7218    3.0525   11.9969 H         1 RES1    0.0000
     69 N7         3.2077    1.9647    4.7984 N.2       2 RES2    0.0000
     70 N8         3.1976    1.5623    4.7824 Du        3 SUP3    0.0000
     71 O6         2.5051    0.9615    4.9482 O.2       2 RES2    0.0000
     72 O7         2.7023    2.6016    5.2041 Du        3 SUP3    0.0000
     73 N9         6.2237    1.7968    1.3641 Du        3 SUP3    0.0000
     74 N10        6.2092    2.1423    1.4472 N.2       2 RES2    0.0000
     75 O8         6.2656    2.9332    0.9025 Du        3 SUP3    0.0000
     76 O9         5.7609    1.2432    0.7319 O.2       2 RES2    0.0000
     77 O10        7.7483    1.0582    6.3874 O.2       2 RES2    0.0000
     78 C32        6.8474    2.6363    4.8150 C.3       2 RES2    0.0000
     79 H27        7.3145    3.2731    5.3597 H         2 RES2    0.0000
     80 C33        5.3165    2.8277    5.0035 C.3       2 RES2    0.0000
     81 H28        5.1710    2.8874    5.9504 H         2 RES2    0.0000
     82 N11        4.5238    1.6532    4.5319 N.3       2 RES2    0.0000
     83 C34        5.0272    0.2678    4.7265 C.3       2 RES2    0.0000
     84 H29        4.8750    0.0402    5.6466 H         2 RES2    0.0000
     85 C35        6.5666    0.1859    4.4805 C.3       2 RES2    0.0000
     86 H30        6.8806   -0.6618    4.8048 H         2 RES2    0.0000
     87 C36        6.9543    0.2950    3.0014 C.3       2 RES2    0.0000
     88 H31        6.3089   -0.2185    2.5100 H         2 RES2    0.0000
     89 N12        6.7919    1.6972    2.5784 N.3       2 RES2    0.0000
     90 C37        7.3488    2.7930    3.3752 C.3       2 RES2    0.0000
     91 H32        6.9859    3.6131    3.0314 H         2 RES2    0.0000
     92 C38        7.1778    1.2571    5.3399 C.2       2 RES2    0.0000
     93 C39        4.8543    4.1472    4.4288 C.ar      2 RES2    0.0000
     94 C40        5.1155    5.2864    5.1664 C.ar      2 RES2    0.0000
     95 H33        5.5088    5.1990    6.0379 H         2 RES2    0.0000
     96 C41        4.8043    6.5407    4.6652 C.ar      2 RES2    0.0000
     97 H34        5.0265    7.3218    5.1757 H         2 RES2    0.0000
     98 C42        4.1929    6.6669    3.4451 C.ar      2 RES2    0.0000
     99 H35        3.9508    7.5369    3.1212 H         2 RES2    0.0000
    100 C43        3.9089    5.5417    2.7177 C.ar      2 RES2    0.0000
    101 H36        3.5030    5.6360    1.8529 H         2 RES2    0.0000
    102 C44        4.2409    4.2902    3.1902 C.ar      2 RES2    0.0000
    103 H37        4.0302    3.5104    2.6711 H         2 RES2    0.0000
    104 C45        4.2926   -0.7590    3.8863 C.ar      2 RES2    0.0000
    105 C46        4.2242   -2.0549    4.3789 C.ar      2 RES2    0.0000
    106 H38        4.5673   -2.2561    5.2523 H         2 RES2    0.0000
    107 C47        3.6270   -3.0553    3.6020 C.ar      2 RES2    0.0000
    108 H39        3.5875   -3.9571    3.9285 H         2 RES2    0.0000
    109 C48        3.1173   -2.7736    2.3765 C.ar      2 RES2    0.0000
    110 H40        2.7024   -3.4729    1.8650 H         2 RES2    0.0000
    111 C49        3.1879   -1.4985    1.8884 C.ar      2 RES2    0.0000
    112 H41        2.8494   -1.3015    1.0121 H         2 RES2    0.0000
    113 C50        3.7614   -0.4939    2.6394 C.ar      2 RES2    0.0000
    114 H42        3.7872    0.4093    2.3139 H         2 RES2    0.0000
    115 C51        8.3307   -0.2327    2.6212 C.ar      2 RES2    0.0000
    116 C52        8.5278   -0.5508    1.2823 C.ar      2 RES2    0.0000
    117 H43        7.7831   -0.5162    0.6776 H         2 RES2    0.0000
    118 C53        9.7739   -0.9158    0.8220 C.ar      2 RES2    0.0000
    119 H44        9.9033   -1.1253   -0.1057 H         2 RES2    0.0000
    120 C54       10.8298   -0.9726    1.6858 C.ar      2 RES2    0.0000
    121 H45       11.7051   -1.2030    1.3654 H         2 RES2    0.0000
    122 C55       10.6568   -0.6993    3.0065 C.ar      2 RES2    0.0000
    123 H46       11.4062   -0.7701    3.6033 H         2 RES2    0.0000
    124 C56        9.3957   -0.3358    3.4927 C.ar      2 RES2    0.0000
    125 H47        9.2650   -0.1596    4.4272 H         2 RES2    0.0000
    126 C57        8.8668    2.8592    3.2212 C.ar      2 RES2    0.0000
    127 C58        9.7452    2.9526    4.2955 C.ar      2 RES2    0.0000
    128 H48        9.3880    3.0137    5.1846 H         2 RES2    0.0000
    129 C59       11.1237    2.9679    4.0646 C.ar      2 RES2    0.0000
    130 H49       11.7314    3.0109    4.8067 H         2 RES2    0.0000
    131 C60       11.6143    2.9082    2.7931 C.ar      2 RES2    0.0000
    132 H50       12.5644    2.9207    2.6513 H         2 RES2    0.0000
    133 C61       10.7564    2.8388    1.7328 C.ar      2 RES2    0.0000
    134 H51       11.1158    2.8041    0.8431 H         2 RES2    0.0000
    135 C62        9.3941    2.8222    1.9417 C.ar      2 RES2    0.0000
    136 H52        8.7978    2.7862    1.1903 H         2 RES2    0.0000
@<TRIPOS>BOND
     1    1    3 2
     2    5    7 2
     3    9   24 2
     4   10   11 1
     5   12   10 1
     6   13   12 1
     7   14    1 1
     8   15   14 1
     9   16   15 1
    10   17   15 1
    11   18   17 1
    12   19   17 1
    13   20   19 1
    14   21    5 1
    15   22   10 1
    16   23   22 1
    17   24   10 1
    18   25   12 1
    19   26   25 ar
    20   27   26 1
    21   28   26 ar
    22   29   28 1
    23   30   28 ar
    24   31   30 1
    25   32   30 ar
    26   33   32 1
    27   34   25 ar
    28   35   34 1
    29   36   15 1
    30   37   36 ar
    31   38   37 1
    32   39   37 ar
    33   40   39 1
    34   41   39 ar
    35   42   41 1
    36   43   41 ar
    37   44   43 1
    38   45   36 ar
    39   46   45 1
    40   47   19 1
    41   48   47 ar
    42   49   48 1
    43   50   48 ar
    44   51   50 1
    45   52   50 ar
    46   53   52 1
    47   54   52 ar
    48   55   54 1
    49   56   47 ar
    50   57   56 1
    51   58   22 1
    52   59   58 ar
    53   60   59 1
    54   61   59 ar
    55   62   61 1
    56   63   61 ar
    57   64   63 1
    58   65   63 ar
    59   66   65 1
    60   67   58 ar
    61   68   67 1
    62   69   71 2
    63   74   76 2
    64   77   92 2
    65   78   79 1
    66   80   78 1
    67   81   80 1
    68   82   69 1
    69   83   82 1
    70   84   83 1
    71   85   83 1
    72   86   85 1
    73   87   85 1
    74   88   87 1
    75   89   74 1
    76   90   78 1
    77   91   90 1
    78   92   78 1
    79   93   80 1
    80   94   93 ar
    81   95   94 1
    82   96   94 ar
    83   97   96 1
    84   98   96 ar
    85   99   98 1
    86  100   98 ar
    87  101  100 1
    88  102   93 ar
    89  103  102 1
    90  104   83 1
    91  105  104 ar
    92  106  105 1
    93  107  105 ar
    94  108  107 1
    95  109  107 ar
    96  110  109 1
    97  111  109 ar
    98  112  111 1
    99  113  104 ar
   100  114  113 1
   101  115   87 1
   102  116  115 ar
   103  117  116 1
   104  118  116 ar
   105  119  118 1
   106  120  118 ar
   107  121  120 1
   108  122  120 ar
   109  123  122 1
   110  124  115 ar
   111  125  124 1
   112  126   90 1
   113  127  126 ar
   114  128  127 1
   115  129  127 ar
   116  130  129 1
   117  131  129 ar
   118  132  131 1
   119  133  131 ar
   120  134  133 1
   121  135  126 ar
   122  136  135 1
   123   12   14 1
   124   17   24 1
   125   19   21 1
   126   21   22 1
   127   32   34 ar
   128   43   45 ar
   129   54   56 ar
   130   65   67 ar
   131   80   82 1
   132   85   92 1
   133   87   89 1
   134   89   90 1
   135  100  102 ar
   136  111  113 ar
   137  122  124 ar
   138  133  135 ar
@<TRIPOS>SUBSTRUCTURE
     1 RES1 1
     2 RES2 69
     3 SUP3 2

@<TRIPOS>CRYSIN
  11.4030   13.8750   31.9480  90.0000  90.5300  90.0000 231 1

