# MOL2 file generated by ConQuest
# Please check atom types

@<TRIPOS>MOLECULE
RIRXAS
    72    75     1
SMALL
NO_CHARGES
****
Generated from CSD

@<TRIPOS>ATOM
      1 C1         2.1636    0.6658    9.7026 C.2       1 RES1    0.0000
      2 C2         0.9011    0.9786    9.3707 C.2       1 RES1    0.0000
      3 C3        -0.1384   -0.1171    9.3130 C.3       1 RES1    0.0000
      4 H1        -1.0120    0.2965    9.4771 H         1 RES1    0.0000
      5 C4         0.1116   -1.1038   10.4240 C.2       1 RES1    0.0000
      6 C5         1.3900   -1.3631   10.7866 C.2       1 RES1    0.0000
      7 C6         1.8977   -2.4207   11.7233 C.3       1 RES1    0.0000
      8 H2         1.7517   -2.1411   12.6292 H         1 RES1    0.0000
      9 H3         2.8371   -2.5531   11.5759 H         1 RES1    0.0000
     10 H4         1.4288   -3.2423   11.5619 H         1 RES1    0.0000
     11 C7         3.4078    1.4994    9.5885 C.3       1 RES1    0.0000
     12 H5         3.5046    1.8076    8.6839 H         1 RES1    0.0000
     13 H6         4.1717    0.9709    9.8294 H         1 RES1    0.0000
     14 H7         3.3420    2.2544   10.1780 H         1 RES1    0.0000
     15 C8        -1.0646   -1.7104   11.0250 C.2       1 RES1    0.0000
     16 C9        -1.9385   -3.1989   12.6561 C.3       1 RES1    0.0000
     17 H8        -2.5032   -3.6806   12.0308 H         1 RES1    0.0000
     18 H9        -2.4691   -2.5058   13.0790 H         1 RES1    0.0000
     19 C10       -1.4060   -4.1181   13.6697 C.3       1 RES1    0.0000
     20 H10       -0.9478   -4.8419   13.2353 H         1 RES1    0.0000
     21 H11       -2.1281   -4.4662   14.1964 H         1 RES1    0.0000
     22 H12       -0.7925   -3.6463   14.2374 H         1 RES1    0.0000
     23 C11        0.4311    2.3357    9.0068 C.2       1 RES1    0.0000
     24 C12        1.0714    4.4732    8.3328 C.3       1 RES1    0.0000
     25 H13        1.6863    5.1762    8.5929 H         1 RES1    0.0000
     26 H14        0.1717    4.7621    8.5519 H         1 RES1    0.0000
     27 C13        1.1772    4.2327    6.8554 C.2       1 RES1    0.0000
     28 C14        0.9159    5.3517    5.9417 C.ar      1 RES1    0.0000
     29 C15        0.6257    6.6419    6.3697 C.ar      1 RES1    0.0000
     30 H15        0.5915    6.8221    7.2821 H         1 RES1    0.0000
     31 C16        0.3872    7.6598    5.4702 C.ar      1 RES1    0.0000
     32 H16        0.1678    8.5089    5.7790 H         1 RES1    0.0000
     33 C17        0.4725    7.4225    4.1171 C.ar      1 RES1    0.0000
     34 C18        0.7722    6.1218    3.6699 C.ar      1 RES1    0.0000
     35 H17        0.8238    5.9403    2.7601 H         1 RES1    0.0000
     36 C19        0.9853    5.1300    4.5809 C.ar      1 RES1    0.0000
     37 H18        1.1847    4.2749    4.2747 H         1 RES1    0.0000
     38 C20       -0.0458    9.6667    3.5058 C.3       1 RES1    0.0000
     39 H19        0.7218   10.0838    3.9274 H         1 RES1    0.0000
     40 H20       -0.7888    9.6829    4.1286 H         1 RES1    0.0000
     41 C21       -0.4085   10.3972    2.2347 C.ar      1 RES1    0.0000
     42 C22        0.5316   11.0313    1.4928 C.ar      1 RES1    0.0000
     43 H21        1.4265   11.0074    1.7452 H         1 RES1    0.0000
     44 C23        0.1329   11.7346    0.3216 C.ar      1 RES1    0.0000
     45 H22        0.7600   12.1980   -0.1845 H         1 RES1    0.0000
     46 C24       -1.1578   11.7208   -0.0448 C.ar      1 RES1    0.0000
     47 H23       -1.4154   12.1638   -0.8201 H         1 RES1    0.0000
     48 C25       -2.0895   11.0801    0.6881 C.ar      1 RES1    0.0000
     49 H24       -2.9807   11.0883    0.4229 H         1 RES1    0.0000
     50 C26       -1.7141   10.4167    1.8247 C.ar      1 RES1    0.0000
     51 H25       -2.3574    9.9712    2.3270 H         1 RES1    0.0000
     52 C27       -0.1916   -0.7713    7.9356 C.ar      1 RES1    0.0000
     53 C28       -0.5043    0.0027    6.8336 C.ar      1 RES1    0.0000
     54 H26       -0.7045    0.9035    6.9502 H         1 RES1    0.0000
     55 C29       -0.5232   -0.5273    5.5804 C.ar      1 RES1    0.0000
     56 C30       -0.2390   -1.8490    5.3549 C.ar      1 RES1    0.0000
     57 H27       -0.2490   -2.1975    4.4925 H         1 RES1    0.0000
     58 C31        0.0626   -2.6515    6.4389 C.ar      1 RES1    0.0000
     59 H28        0.2572   -3.5511    6.3057 H         1 RES1    0.0000
     60 C32        0.0784   -2.1267    7.7190 C.ar      1 RES1    0.0000
     61 H29        0.2698   -2.6794    8.4417 H         1 RES1    0.0000
     62 N1         2.3842   -0.5962   10.2331 N.pl3     1 RES1    0.0000
     63 H30        3.1837   -0.9141   10.2151 H         1 RES1    0.0000
     64 N2        -0.8556    0.3142    4.4272 N.pl3     1 RES1    0.0000
     65 O1        -2.1955   -1.4207   10.7110 O.2       1 RES1    0.0000
     66 O2        -0.8176   -2.6153   11.9655 O.3       1 RES1    0.0000
     67 O3        -0.6980    2.5809    8.7198 O.2       1 RES1    0.0000
     68 O4         1.3801    3.2766    9.0491 O.3       1 RES1    0.0000
     69 O5         1.4741    3.1251    6.4645 O.2       1 RES1    0.0000
     70 O6         0.2620    8.3187    3.1278 O.3       1 RES1    0.0000
     71 O7        -1.1778    1.4512    4.6540 O.2       1 RES1    0.0000
     72 O8        -0.8166   -0.1436    3.3252 O.2       1 RES1    0.0000
@<TRIPOS>BOND
     1    1    2 2
     2    2    3 1
     3    3    4 1
     4    5    3 1
     5    6    5 2
     6    7    6 1
     7    8    7 1
     8    9    7 1
     9   10    7 1
    10   11    1 1
    11   12   11 1
    12   13   11 1
    13   14   11 1
    14   15    5 1
    15   16   17 1
    16   18   16 1
    17   19   16 1
    18   20   19 1
    19   21   19 1
    20   22   19 1
    21   23    2 1
    22   24   25 1
    23   26   24 1
    24   27   24 1
    25   28   27 1
    26   29   28 ar
    27   30   29 1
    28   31   29 ar
    29   32   31 1
    30   33   31 ar
    31   34   33 ar
    32   35   34 1
    33   36   28 ar
    34   37   36 1
    35   38   39 1
    36   40   38 1
    37   41   38 1
    38   42   41 ar
    39   43   42 1
    40   44   42 ar
    41   45   44 1
    42   46   44 ar
    43   47   46 1
    44   48   46 ar
    45   49   48 1
    46   50   41 ar
    47   51   50 1
    48   52    3 1
    49   53   52 ar
    50   54   53 1
    51   55   53 ar
    52   56   55 ar
    53   57   56 1
    54   58   56 ar
    55   59   58 1
    56   60   52 ar
    57   61   60 1
    58   62    1 1
    59   63   62 1
    60   64   55 1
    61   65   15 2
    62   66   15 1
    63   67   23 2
    64   68   23 1
    65   69   27 2
    66   70   33 1
    67   71   64 2
    68   72   64 2
    69    6   62 1
    70   16   66 1
    71   24   68 1
    72   34   36 ar
    73   38   70 1
    74   48   50 ar
    75   58   60 ar
@<TRIPOS>SUBSTRUCTURE
     1 RES1 1

@<TRIPOS>CRYSIN
   7.3646    8.1772   13.3290  97.9050 100.3520 109.2960   1 1

