# MOL2 file generated by ConQuest
# Please check atom types

@<TRIPOS>MOLECULE
RIRZAU
    39    40     1
SMALL
NO_CHARGES
****
Generated from CSD

@<TRIPOS>ATOM
      1 O1         0.2683    1.2249    3.8454 O.2       1 RES1    0.0000
      2 O2         2.4484    0.9950    1.7215 O.3       1 RES1    0.0000
      3 H1         3.1986    1.1407    1.4225 H         1 RES1    0.0000
      4 O3         2.9134   -0.5341    4.8979 O.3       1 RES1    0.0000
      5 O4         3.4453    1.4936    4.1117 O.2       1 RES1    0.0000
      6 O5         5.0685    2.0515    0.0471 O.2       1 RES1    0.0000
      7 O6         4.2596    0.1529   -0.5418 O.2       1 RES1    0.0000
      8 N1         4.8983    0.8454    0.2247 N.pl3     1 RES1    0.0000
      9 C1         0.0675    0.2892    3.1133 C.2       1 RES1    0.0000
     10 C2        -1.2316   -0.0371    2.4555 C.3       1 RES1    0.0000
     11 H2        -1.4875    0.6620    1.8339 H         1 RES1    0.0000
     12 H3        -1.9343   -0.1396    3.1169 H         1 RES1    0.0000
     13 C3        -0.9898   -1.3462    1.7215 C.3       1 RES1    0.0000
     14 H4        -1.2415   -2.1035    2.2724 H         1 RES1    0.0000
     15 H5        -1.4965   -1.3778    0.8952 H         1 RES1    0.0000
     16 C4         0.4938   -1.3540    1.4425 C.3       1 RES1    0.0000
     17 H6         0.7023   -0.8249    0.6578 H         1 RES1    0.0000
     18 H7         0.8186   -2.2587    1.3102 H         1 RES1    0.0000
     19 C5         1.0984   -0.7318    2.7037 C.3       1 RES1    0.0000
     20 H8         1.1237   -1.4249    3.3960 H         1 RES1    0.0000
     21 C6         2.4963   -0.1258    2.6004 C.3       1 RES1    0.0000
     22 C7         2.9989    0.3850    3.9432 C.2       1 RES1    0.0000
     23 C8         3.5089   -1.1423    2.0368 C.3       1 RES1    0.0000
     24 H9         3.3928   -1.9839    2.5044 H         1 RES1    0.0000
     25 H10        3.2987   -1.2975    1.1018 H         1 RES1    0.0000
     26 C9         4.9470   -0.7429    2.1347 C.ar      1 RES1    0.0000
     27 C10        5.7207   -1.2997    3.1332 C.ar      1 RES1    0.0000
     28 H11        5.3283   -1.9274    3.6950 H         1 RES1    0.0000
     29 C11        7.0325   -0.9795    3.3416 C.ar      1 RES1    0.0000
     30 H12        7.5207   -1.4155    4.0012 H         1 RES1    0.0000
     31 C12        7.6258   -0.0105    2.5678 C.ar      1 RES1    0.0000
     32 H13        8.5138    0.2260    2.7128 H         1 RES1    0.0000
     33 C13        6.9080    0.5972    1.5947 C.ar      1 RES1    0.0000
     34 H14        7.3022    1.2615    1.0782 H         1 RES1    0.0000
     35 C14        5.6026    0.2404    1.3645 C.ar      1 RES1    0.0000
     36 C15        3.3688   -0.1363    6.2156 C.3       1 RES1    0.0000
     37 H15        4.3268   -0.0609    6.2138 H         1 RES1    0.0000
     38 H16        3.1016   -0.7961    6.8590 H         1 RES1    0.0000
     39 H17        2.9814    0.7113    6.4458 H         1 RES1    0.0000
@<TRIPOS>BOND
     1    1    9 2
     2    2    3 1
     3    4   22 1
     4    5   22 2
     5    6    8 2
     6    7    8 2
     7    8   35 1
     8    9   10 1
     9   10   11 1
    10   12   10 1
    11   13   10 1
    12   14   13 1
    13   15   13 1
    14   16   13 1
    15   17   16 1
    16   18   16 1
    17   19    9 1
    18   20   19 1
    19   21    2 1
    20   22   21 1
    21   23   21 1
    22   24   23 1
    23   25   23 1
    24   26   23 1
    25   27   26 ar
    26   28   27 1
    27   29   27 ar
    28   30   29 1
    29   31   29 ar
    30   32   31 1
    31   33   31 ar
    32   34   33 1
    33   35   26 ar
    34   36    4 1
    35   37   36 1
    36   38   36 1
    37   39   36 1
    38   16   19 1
    39   19   21 1
    40   33   35 ar
@<TRIPOS>SUBSTRUCTURE
     1 RES1 1

@<TRIPOS>CRYSIN
  14.5560    5.5400   18.1940  90.0000  95.1200  90.0000  14 1

