# MOL2 file generated by ConQuest
# Please check atom types

@<TRIPOS>MOLECULE
RISFEF
    39    40     1
SMALL
NO_CHARGES
****
Generated from CSD

@<TRIPOS>ATOM
      1 O1         8.8393    5.8985   -1.9984 O.2       1 RES1    0.0000
      2 O2         8.3097    5.6513   -4.0706 O.2       1 RES1    0.0000
      3 O3         6.6924    3.7876   -4.8263 O.3       1 RES1    0.0000
      4 H1         7.2414    4.4645   -4.9239 H         1 RES1    0.0000
      5 O4         5.2157    1.7783   -4.1035 O.3       1 RES1    0.0000
      6 H2         4.7338    1.1981   -3.7684 H         1 RES1    0.0000
      7 O5         4.8587    0.0897    2.8283 O.2       1 RES1    0.0000
      8 O6         6.2128    1.7842    3.3363 O.3       1 RES1    0.0000
      9 N1         8.2260    5.3177   -2.8771 N.pl3     1 RES1    0.0000
     10 C1         6.4885    2.7996   -0.7974 C.ar      1 RES1    0.0000
     11 C2         7.2800    3.8591   -1.1813 C.ar      1 RES1    0.0000
     12 H3         7.7500    4.3447   -0.5422 H         1 RES1    0.0000
     13 C3         7.3758    4.2013   -2.5264 C.ar      1 RES1    0.0000
     14 C4         6.6798    3.5120   -3.5183 C.ar      1 RES1    0.0000
     15 C5         5.8764    2.4273   -3.1153 C.ar      1 RES1    0.0000
     16 C6         5.7904    2.0958   -1.7920 C.ar      1 RES1    0.0000
     17 H4         5.2518    1.3797   -1.5419 H         1 RES1    0.0000
     18 C7         6.3765    2.4262    0.6144 C.2       1 RES1    0.0000
     19 H5         6.7975    2.9758    1.2369 H         1 RES1    0.0000
     20 C8         5.7285    1.3743    1.0793 C.2       1 RES1    0.0000
     21 H6         5.3426    0.8075    0.4507 H         1 RES1    0.0000
     22 C9         5.5584    1.0154    2.4820 C.2       1 RES1    0.0000
     23 C10        5.9850    1.5054    4.7481 C.3       1 RES1    0.0000
     24 H7         6.2686    0.6017    4.9612 H         1 RES1    0.0000
     25 H8         5.0421    1.5876    4.9578 H         1 RES1    0.0000
     26 C11        6.7778    2.4939    5.5444 C.3       1 RES1    0.0000
     27 H9         6.5343    3.3954    5.2831 H         1 RES1    0.0000
     28 H10        7.7240    2.3725    5.3679 H         1 RES1    0.0000
     29 C12        6.5026    2.2978    7.0175 C.ar      1 RES1    0.0000
     30 C13        5.6382    3.1306    7.6889 C.ar      1 RES1    0.0000
     31 H11        5.2485    3.8446    7.2385 H         1 RES1    0.0000
     32 C14        5.3382    2.9253    9.0183 C.ar      1 RES1    0.0000
     33 H12        4.7555    3.5023    9.4582 H         1 RES1    0.0000
     34 C15        5.8910    1.8825    9.6903 C.ar      1 RES1    0.0000
     35 H13        5.6815    1.7402   10.5866 H         1 RES1    0.0000
     36 C16        6.7572    1.0423    9.0437 C.ar      1 RES1    0.0000
     37 H14        7.1414    0.3293    9.5022 H         1 RES1    0.0000
     38 C17        7.0597    1.2529    7.7150 C.ar      1 RES1    0.0000
     39 H15        7.6507    0.6785    7.2825 H         1 RES1    0.0000
@<TRIPOS>BOND
     1    1    9 2
     2    2    9 2
     3    3    4 1
     4    5    6 1
     5    7   22 2
     6    8   22 1
     7    9   13 1
     8   10   11 ar
     9   11   12 1
    10   13   11 ar
    11   14    3 1
    12   15    5 1
    13   16   10 ar
    14   17   16 1
    15   18   10 1
    16   19   18 1
    17   20   18 2
    18   21   20 1
    19   22   20 1
    20   23    8 1
    21   24   23 1
    22   25   23 1
    23   26   23 1
    24   27   26 1
    25   28   26 1
    26   29   26 1
    27   30   29 ar
    28   31   30 1
    29   32   30 ar
    30   33   32 1
    31   34   32 ar
    32   35   34 1
    33   36   34 ar
    34   37   36 1
    35   38   29 ar
    36   39   38 1
    37   13   14 ar
    38   14   15 ar
    39   15   16 ar
    40   36   38 ar
@<TRIPOS>SUBSTRUCTURE
     1 RES1 1

@<TRIPOS>CRYSIN
   8.5840    5.3725   33.9040  90.0000  91.7570  90.0000  14 1

