# MOL2 file generated by ConQuest
# Please check atom types

@<TRIPOS>MOLECULE
RITCAZ
    58    60     1
SMALL
NO_CHARGES
****
Generated from CSD

@<TRIPOS>ATOM
      1 O1         5.6776   11.2277   -0.0469 O.3       1 RES1    0.0000
      2 O2         6.3741    6.8149    2.3730 O.3       1 RES1    0.0000
      3 O3        12.7978    4.5286    4.1326 O.2       1 RES1    0.0000
      4 O4        11.9470    3.7885    6.0624 O.3       1 RES1    0.0000
      5 N1         7.2050   12.4149    1.2904 N.pl3     1 RES1    0.0000
      6 N2         8.1450   12.2020    2.2417 N.2       1 RES1    0.0000
      7 N3         6.8631    8.1062    2.6804 N.2       1 RES1    0.0000
      8 C1         4.3322   11.4325    0.2175 C.ar      1 RES1    0.0000
      9 C2         3.4918   11.1725   -0.8335 C.ar      1 RES1    0.0000
     10 H1         3.8292   10.8757   -1.6476 H         1 RES1    0.0000
     11 C3         2.1357   11.3606   -0.6610 C.ar      1 RES1    0.0000
     12 H2         1.5551   11.1850   -1.3657 H         1 RES1    0.0000
     13 C4         1.6381   11.7974    0.5237 C.ar      1 RES1    0.0000
     14 H3         0.7224   11.9145    0.6318 H         1 RES1    0.0000
     15 C5         2.4879   12.0630    1.5540 C.ar      1 RES1    0.0000
     16 H4         2.1451   12.3662    2.3632 H         1 RES1    0.0000
     17 C6         3.8486   11.8882    1.4167 C.ar      1 RES1    0.0000
     18 H5         4.4257   12.0753    2.1214 H         1 RES1    0.0000
     19 C7         6.5690   11.2879    0.9793 C.2       1 RES1    0.0000
     20 C8         7.0694   10.2710    1.7618 C.2       1 RES1    0.0000
     21 C9         8.0733   10.9044    2.5273 C.2       1 RES1    0.0000
     22 C10        9.0116   10.2960    3.5090 C.3       1 RES1    0.0000
     23 H6         9.6397   10.9592    3.8055 H         1 RES1    0.0000
     24 H7         9.4843    9.5709    3.0923 H         1 RES1    0.0000
     25 H8         8.5165    9.9638    4.2611 H         1 RES1    0.0000
     26 C11        6.9586   13.7565    0.7740 C.3       1 RES1    0.0000
     27 H9         7.4464   13.8798   -0.0437 H         1 RES1    0.0000
     28 H10        7.2484   14.4064    1.4192 H         1 RES1    0.0000
     29 H11        6.0197   13.8674    0.6063 H         1 RES1    0.0000
     30 C12        6.6467    8.8989    1.7144 C.2       1 RES1    0.0000
     31 H12        6.2056    8.5851    0.9599 H         1 RES1    0.0000
     32 C13        6.4877    6.0042    3.5394 C.3       1 RES1    0.0000
     33 H13        5.9438    5.2098    3.4215 H         1 RES1    0.0000
     34 H14        6.1324    6.4952    4.2964 H         1 RES1    0.0000
     35 C14        7.8998    5.5822    3.8565 C.ar      1 RES1    0.0000
     36 C15        8.1259    4.8484    5.0132 C.ar      1 RES1    0.0000
     37 H15        7.4102    4.6306    5.5649 H         1 RES1    0.0000
     38 C16        9.3907    4.4377    5.3534 C.ar      1 RES1    0.0000
     39 H16        9.5256    3.9626    6.1420 H         1 RES1    0.0000
     40 C17       10.4615    4.7265    4.5369 C.ar      1 RES1    0.0000
     41 C18       10.2347    5.4509    3.3766 C.ar      1 RES1    0.0000
     42 H17       10.9478    5.6504    2.8128 H         1 RES1    0.0000
     43 C19        8.9721    5.8772    3.0497 C.ar      1 RES1    0.0000
     44 H18        8.8404    6.3718    2.2745 H         1 RES1    0.0000
     45 C20       11.8558    4.3272    4.8650 C.2       1 RES1    0.0000
     46 C21       13.2305    3.4053    6.6717 C.3       1 RES1    0.0000
     47 C22       13.9632    2.4067    5.8261 C.3       1 RES1    0.0000
     48 H19       13.4015    1.6435    5.6718 H         1 RES1    0.0000
     49 H20       14.7625    2.1283    6.2781 H         1 RES1    0.0000
     50 H21       14.1948    2.8080    4.9853 H         1 RES1    0.0000
     51 C23       12.8018    2.7662    7.9585 C.3       1 RES1    0.0000
     52 H22       12.3033    3.3993    8.4797 H         1 RES1    0.0000
     53 H23       13.5778    2.4861    8.4506 H         1 RES1    0.0000
     54 H24       12.2501    2.0039    7.7689 H         1 RES1    0.0000
     55 C24       14.0323    4.6339    6.9099 C.3       1 RES1    0.0000
     56 H25       14.2925    5.0138    6.0679 H         1 RES1    0.0000
     57 H26       14.8165    4.4108    7.4166 H         1 RES1    0.0000
     58 H27       13.5055    5.2698    7.3996 H         1 RES1    0.0000
@<TRIPOS>BOND
     1    1    8 1
     2    2    7 1
     3    3   45 2
     4    4   45 1
     5    5    6 1
     6    6   21 2
     7    7   30 2
     8    8    9 ar
     9    9   10 1
    10   11    9 ar
    11   12   11 1
    12   13   11 ar
    13   14   13 1
    14   15   13 ar
    15   16   15 1
    16   17    8 ar
    17   18   17 1
    18   19    1 1
    19   20   19 2
    20   21   20 1
    21   22   21 1
    22   23   22 1
    23   24   22 1
    24   25   22 1
    25   26    5 1
    26   27   26 1
    27   28   26 1
    28   29   26 1
    29   30   20 1
    30   31   30 1
    31   32    2 1
    32   33   32 1
    33   34   32 1
    34   35   32 1
    35   36   35 ar
    36   37   36 1
    37   38   36 ar
    38   39   38 1
    39   40   38 ar
    40   41   40 ar
    41   42   41 1
    42   43   35 ar
    43   44   43 1
    44   45   40 1
    45   46    4 1
    46   47   46 1
    47   48   47 1
    48   49   47 1
    49   50   47 1
    50   51   46 1
    51   52   51 1
    52   53   51 1
    53   54   51 1
    54   55   46 1
    55   56   55 1
    56   57   55 1
    57   58   55 1
    58    5   19 1
    59   15   17 ar
    60   41   43 ar
@<TRIPOS>SUBSTRUCTURE
     1 RES1 1

@<TRIPOS>CRYSIN
   9.6720    9.9080   13.1790  72.4870  71.6140  74.4940   2 1

