# MOL2 file generated by ConQuest
# Please check atom types

@<TRIPOS>MOLECULE
RITMAK01
    24    26     1
SMALL
NO_CHARGES
****
Generated from CSD

@<TRIPOS>ATOM
      1 C1         7.6078    0.3706    0.2957 C.ar      1 RES1    0.0000
      2 C2         8.7146   -0.4524    0.1900 C.ar      1 RES1    0.0000
      3 H1         9.3441   -0.2995   -0.4776 H         1 RES1    0.0000
      4 C3         8.8881   -1.5033    1.0744 C.ar      1 RES1    0.0000
      5 H2         9.6475   -2.0375    1.0164 H         1 RES1    0.0000
      6 C4         7.9338   -1.7630    2.0476 C.ar      1 RES1    0.0000
      7 H3         8.0505   -2.4777    2.6311 H         1 RES1    0.0000
      8 C5         6.8123   -0.9643    2.1533 C.ar      1 RES1    0.0000
      9 C6         5.6735   -0.9542    3.0421 C.ar      1 RES1    0.0000
     10 C7         5.2306   -1.7757    4.0800 C.ar      1 RES1    0.0000
     11 H4         5.7214   -2.5255    4.3274 H         1 RES1    0.0000
     12 C8         4.0611   -1.4661    4.7333 C.ar      1 RES1    0.0000
     13 H5         3.7572   -2.0168    5.4186 H         1 RES1    0.0000
     14 C9         3.3260   -0.3329    4.3794 C.ar      1 RES1    0.0000
     15 H6         2.5504   -0.1280    4.8509 H         1 RES1    0.0000
     16 C10        3.7256    0.4880    3.3447 C.ar      1 RES1    0.0000
     17 H7         3.2252    1.2325    3.0986 H         1 RES1    0.0000
     18 C11        4.8913    0.1651    2.6894 C.ar      1 RES1    0.0000
     19 N1         5.5046    0.7981    1.6152 N.pl3     1 RES1    0.0000
     20 H8         5.2048    1.5022    1.2238 H         1 RES1    0.0000
     21 C12        6.6476    0.1444    1.2722 C.ar      1 RES1    0.0000
     22 N2         7.4657    1.4863   -0.6248 N.pl3     1 RES1    0.0000
     23 O1         6.4276    2.1437   -0.5381 O.2       1 RES1    0.0000
     24 O2         8.3674    1.7199   -1.4298 O.2       1 RES1    0.0000
@<TRIPOS>BOND
     1    1    2 ar
     2    2    3 1
     3    4    2 ar
     4    5    4 1
     5    6    4 ar
     6    7    6 1
     7    8    6 ar
     8    9    8 1
     9   10    9 ar
    10   11   10 1
    11   12   10 ar
    12   13   12 1
    13   14   12 ar
    14   15   14 1
    15   16   14 ar
    16   17   16 1
    17   18    9 ar
    18   19   18 1
    19   20   19 1
    20   21    1 ar
    21   22    1 1
    22   23   22 2
    23   24   22 2
    24    8   21 ar
    25   16   18 ar
    26   19   21 1
@<TRIPOS>SUBSTRUCTURE
     1 RES1 1

@<TRIPOS>CRYSIN
  10.4341    5.3101   17.2566  90.0000  99.9510  90.0000 231 1

