# MOL2 file generated by ConQuest
# Please check atom types

@<TRIPOS>MOLECULE
RIVBED
    45    32     3
SMALL
NO_CHARGES
****
Generated from CSD

@<TRIPOS>ATOM
      1 O1         0.0000    2.0216    1.6868 O.2       1 RES1    0.0000
      2 O2         0.0000    0.2187    2.3321 Du        3 SUP3    0.0000
      3 N1         0.0000    1.3620    2.6996 N.2       1 RES1    0.0000
      4 N2         0.0000    2.2728    6.0731 N.3       1 RES1    0.0000
      5 N3         0.0000    3.5220    5.5147 N.2       1 RES1    0.0000
      6 N4         0.0000    7.2816   12.5072 N.2       2 RES2    0.0000
      7 O3         0.0000    6.6032   13.5057 O.2       2 RES2    0.0000
      8 N5         0.0000    5.0225    9.6647 N.2       2 RES2    0.0000
      9 N6         0.0000    6.3298    9.1804 N.3       2 RES2    0.0000
     10 C1         0.0000    2.0558    3.9085 C.2       1 RES1    0.0000
     11 C2         0.0000    1.3534    5.1524 C.2       1 RES1    0.0000
     12 C3         0.0000    3.3939    4.2409 C.2       1 RES1    0.0000
     13 C4         0.0000   -0.1623    5.3628 C.3       1 RES1    0.0000
     14 C5         0.0000    2.0678    7.4988 C.3       1 RES1    0.0000
     15 C6         0.0000    4.5286    3.3514 C.3       1 RES1    0.0000
     16 C7         0.0000    6.5981   11.2840 C.2       2 RES2    0.0000
     17 C8         0.0000    5.1694   11.0113 C.2       2 RES2    0.0000
     18 C9         0.0000    7.2680   10.1283 C.2       2 RES2    0.0000
     19 C10        0.0000    3.9698   11.9475 C.3       2 RES2    0.0000
     20 C11        0.0000    6.4152    7.6728 C.3       2 RES2    0.0000
     21 C12        0.0000    8.6880    9.7881 C.3       2 RES2    0.0000
     22 H1         0.5330   -0.3794    6.1302 Du        3 SUP3    0.0000
     23 H2         0.3621   -0.5930    4.5863 Du        3 SUP3    0.0000
     24 H3        -0.8999   -0.4665    5.5043 H         1 RES1    0.0000
     25 H4         0.3949    2.8282    7.9312 Du        3 SUP3    0.0000
     26 H5         0.5077    1.2800    7.7092 Du        3 SUP3    0.0000
     27 H6        -0.9026    1.9584    7.8066 H         1 RES1    0.0000
     28 H7        -0.9047    4.7610    3.1307 Du        3 SUP3    0.0000
     29 H8         0.4776    4.3047    2.5490 H         1 RES1    0.0000
     30 H9         0.4271    5.2720    3.7825 Du        3 SUP3    0.0000
     31 H10       -0.5808    4.1441   12.6902 H         2 RES2    0.0000
     32 H11        0.8910    3.8160   12.2682 Du        3 SUP3    0.0000
     33 H12       -0.3075    3.1939   11.4735 Du        3 SUP3    0.0000
     34 H13       -0.2118    7.3124    7.4027 Du        3 SUP3    0.0000
     35 H14       -0.6560    5.8103    7.3170 Du        3 SUP3    0.0000
     36 H15        0.8685    6.1794    7.3378 H         2 RES2    0.0000
     37 H16        0.3963    9.1905   10.5062 Du        3 SUP3    0.0000
     38 H17       -0.9026    8.9837    9.6479 Du        3 SUP3    0.0000
     39 H18        0.5125    8.8248    8.9856 H         2 RES2    0.0000
     40 H8B       -0.4776    4.3047    2.5490 H         1 RES1    0.0000
     41 H6B        0.9026    1.9584    7.8066 H         1 RES1    0.0000
     42 H3B        0.8999   -0.4665    5.5043 H         1 RES1    0.0000
     43 H18B      -0.5125    8.8248    8.9856 H         2 RES2    0.0000
     44 H15B      -0.8685    6.1794    7.3378 H         2 RES2    0.0000
     45 H10B       0.5808    4.1441   12.6902 H         2 RES2    0.0000
@<TRIPOS>BOND
     1    1    3 2
     2    3   10 1
     3    4    5 1
     4    5   12 2
     5    6    7 2
     6    8    9 1
     7    9   18 1
     8   10   11 2
     9   11    4 1
    10   12   10 1
    11   13   11 1
    12   14    4 1
    13   15   12 1
    14   16    6 1
    15   17    8 2
    16   18   16 2
    17   19   17 1
    18   20    9 1
    19   21   18 1
    20   24   13 1
    21   27   14 1
    22   29   15 1
    23   31   19 1
    24   36   20 1
    25   39   21 1
    26   40   15 1
    27   41   14 1
    28   42   13 1
    29   43   21 1
    30   44   20 1
    31   45   19 1
    32   16   17 1
@<TRIPOS>SUBSTRUCTURE
     1 RES1 1
     2 RES2 6
     3 SUP3 2

@<TRIPOS>CRYSIN
   6.8330   17.0890   12.9850  90.0000  90.0000  90.0000  36 1

