# MOL2 file generated by ConQuest
# Please check atom types

@<TRIPOS>MOLECULE
RIWCOQ
    76    84     2
SMALL
NO_CHARGES
****
Generated from CSD

@<TRIPOS>ATOM
      1 N1        -1.9885    5.8567    7.5083 N.2       1 RES1    0.0000
      2 O1        -2.5883    6.8854    6.6536 O.3       1 RES1    0.0000
      3 C1        -1.7478    7.9882    6.8497 C.3       1 RES1    0.0000
      4 H1        -1.0255    7.9437    6.1896 H         1 RES1    0.0000
      5 C2        -2.5271    9.3504    6.6448 C.ar      1 RES1    0.0000
      6 C3        -2.1337   10.2493    5.7374 C.ar      1 RES1    0.0000
      7 H2        -1.3546   10.1279    5.2529 H         1 RES1    0.0000
      8 C4        -2.9328   11.4169    5.5325 C.ar      1 RES1    0.0000
      9 H3        -2.6843   12.0332    4.8943 H         1 RES1    0.0000
     10 C5        -4.0619   11.6301    6.2643 C.ar      1 RES1    0.0000
     11 H4        -4.5326   12.4298    6.1896 H         1 RES1    0.0000
     12 C6        -4.4600   10.6385    7.0927 C.ar      1 RES1    0.0000
     13 H5        -5.2652   10.7423    7.5449 H         1 RES1    0.0000
     14 C7        -3.7531    9.4987    7.3034 C.ar      1 RES1    0.0000
     15 H6        -4.0732    8.8305    7.8698 H         1 RES1    0.0000
     16 C8        -1.1315    7.8491    8.2401 C.3       1 RES1    0.0000
     17 H7        -1.7013    8.2884    8.9061 H         1 RES1    0.0000
     18 C9         0.3574    8.2754    8.4421 C.3       1 RES1    0.0000
     19 H8         0.9078    7.8862    7.7469 H         1 RES1    0.0000
     20 H9         0.4307    9.2448    8.3777 H         1 RES1    0.0000
     21 O2         0.8008    7.8584    9.6877 O.3       1 RES1    0.0000
     22 C10        0.5548    6.4962    9.9979 C.ar      1 RES1    0.0000
     23 C11        1.4507    6.0792   10.9947 C.ar      1 RES1    0.0000
     24 H10        2.1031    6.6241   11.3635 H         1 RES1    0.0000
     25 C12        1.2514    4.7169   11.3869 C.ar      1 RES1    0.0000
     26 H11        1.7993    4.3750   12.0558 H         1 RES1    0.0000
     27 C13        0.3154    3.8643   10.8454 C.ar      1 RES1    0.0000
     28 C14        0.0964    2.5206   11.2947 C.ar      1 RES1    0.0000
     29 H12        0.6237    2.1870   11.9870 H         1 RES1    0.0000
     30 C15       -0.8317    1.7144   10.7576 C.ar      1 RES1    0.0000
     31 H13       -0.9042    0.8192   11.0020 H         1 RES1    0.0000
     32 C16       -1.7202    2.3075    9.7916 C.ar      1 RES1    0.0000
     33 H14       -2.4332    1.8080    9.4784 H         1 RES1    0.0000
     34 C17       -1.5421    3.5585    9.3408 C.ar      1 RES1    0.0000
     35 H15       -2.1022    3.8764    8.6704 H         1 RES1    0.0000
     36 C18       -0.5398    4.4018    9.8472 C.ar      1 RES1    0.0000
     37 C19       -0.4056    5.7733    9.3613 C.ar      1 RES1    0.0000
     38 C20       -1.2067    6.4313    8.3836 C.2       1 RES1    0.0000
     39 N2         2.8945    5.9216    7.0912 N.2       2 RES2    0.0000
     40 O3         3.3937    4.8930    7.9035 O.3       2 RES2    0.0000
     41 C21        2.6160    3.6049    7.7630 C.3       2 RES2    0.0000
     42 H16        1.8951    3.6039    8.4275 H         2 RES2    0.0000
     43 C22        3.4685    2.4743    7.9928 C.ar      2 RES2    0.0000
     44 C23        2.9927    1.4549    8.8695 C.ar      2 RES2    0.0000
     45 H17        2.1894    1.5837    9.3159 H         2 RES2    0.0000
     46 C24        3.6918    0.3058    9.0598 C.ar      2 RES2    0.0000
     47 H18        3.3813   -0.3503    9.6379 H         2 RES2    0.0000
     48 C25        4.8830    0.1483    8.3719 C.ar      2 RES2    0.0000
     49 H19        5.3719   -0.6348    8.4933 H         2 RES2    0.0000
     50 C26        5.3827    1.0935    7.5083 C.ar      2 RES2    0.0000
     51 H20        6.1986    0.9675    7.0692 H         2 RES2    0.0000
     52 C27        4.6232    2.2426    7.3034 C.ar      2 RES2    0.0000
     53 H21        4.9135    2.8783    6.6814 H         2 RES2    0.0000
     54 C28        2.0018    3.8458    6.3696 C.3       2 RES2    0.0000
     55 H22        2.5617    3.4214    5.6861 H         2 RES2    0.0000
     56 C29        0.5901    3.4010    6.2057 C.3       2 RES2    0.0000
     57 H23        0.5467    2.4363    6.2174 H         2 RES2    0.0000
     58 H24        0.0514    3.7466    6.9317 H         2 RES2    0.0000
     59 O4         0.0774    3.9107    4.9265 O.3       2 RES2    0.0000
     60 C30        0.2940    5.2173    4.6397 C.ar      2 RES2    0.0000
     61 C31       -0.5509    5.8382    3.6298 C.ar      2 RES2    0.0000
     62 H25       -1.2194    5.3313    3.2302 H         2 RES2    0.0000
     63 C32       -0.4048    7.0059    3.2697 C.ar      2 RES2    0.0000
     64 H26       -0.9903    7.3487    2.6360 H         2 RES2    0.0000
     65 C33        0.6611    7.8770    3.8083 C.ar      2 RES2    0.0000
     66 C34        0.7291    9.2114    3.3956 C.ar      2 RES2    0.0000
     67 H27        0.0957    9.5552    2.8087 H         2 RES2    0.0000
     68 C35        1.7335    9.9898    3.8639 C.ar      2 RES2    0.0000
     69 H28        1.8364   10.8489    3.5185 H         2 RES2    0.0000
     70 C36        2.5943    9.5635    4.8446 C.ar      2 RES2    0.0000
     71 H29        3.2238   10.1344    5.2178 H         2 RES2    0.0000
     72 C37        2.4873    8.2662    5.2690 C.ar      2 RES2    0.0000
     73 H30        3.1443    7.9465    5.8442 H         2 RES2    0.0000
     74 C38        1.4505    7.3673    4.8665 C.ar      2 RES2    0.0000
     75 C39        1.3322    6.0143    5.2119 C.ar      2 RES2    0.0000
     76 C40        2.1203    5.3656    6.2496 C.2       2 RES2    0.0000
@<TRIPOS>BOND
     1    1    2 1
     2    2    3 1
     3    3    4 1
     4    5    3 1
     5    6    5 ar
     6    7    6 1
     7    8    6 ar
     8    9    8 1
     9   10    8 ar
    10   11   10 1
    11   12   10 ar
    12   13   12 1
    13   14    5 ar
    14   15   14 1
    15   16    3 1
    16   17   16 1
    17   18   16 1
    18   19   18 1
    19   20   18 1
    20   21   18 1
    21   22   21 1
    22   23   22 ar
    23   24   23 1
    24   25   23 ar
    25   26   25 1
    26   27   25 ar
    27   28   27 ar
    28   29   28 1
    29   30   28 ar
    30   31   30 1
    31   32   30 ar
    32   33   32 1
    33   34   32 ar
    34   35   34 1
    35   36   27 ar
    36   37   22 ar
    37   38    1 2
    38   39   40 1
    39   40   41 1
    40   41   42 1
    41   43   41 1
    42   44   43 ar
    43   45   44 1
    44   46   44 ar
    45   47   46 1
    46   48   46 ar
    47   49   48 1
    48   50   48 ar
    49   51   50 1
    50   52   43 ar
    51   53   52 1
    52   54   41 1
    53   55   54 1
    54   56   54 1
    55   57   56 1
    56   58   56 1
    57   59   56 1
    58   60   59 1
    59   61   60 ar
    60   62   61 1
    61   63   61 ar
    62   64   63 1
    63   65   63 ar
    64   66   65 ar
    65   67   66 1
    66   68   66 ar
    67   69   68 1
    68   70   68 ar
    69   71   70 1
    70   72   70 ar
    71   73   72 1
    72   74   65 ar
    73   75   60 ar
    74   76   39 2
    75   12   14 ar
    76   16   38 1
    77   34   36 ar
    78   36   37 ar
    79   37   38 1
    80   50   52 ar
    81   54   76 1
    82   72   74 ar
    83   74   75 ar
    84   75   76 1
@<TRIPOS>SUBSTRUCTURE
     1 RES1 1
     2 RES2 39

@<TRIPOS>CRYSIN
  22.0430    9.2670   17.8110  90.0000 124.7400  90.0000   9 1

