# MOL2 file generated by ConQuest
# Please check atom types

@<TRIPOS>MOLECULE
RIWCOQ01
    38    42     1
SMALL
NO_CHARGES
****
Generated from CSD

@<TRIPOS>ATOM
      1 O1         8.4958   -1.3161    0.6227 O.3       1 RES1    0.0000
      2 O2         5.1586   -0.3401   -2.3750 O.3       1 RES1    0.0000
      3 N1         7.9615   -2.3420   -0.2156 N.2       1 RES1    0.0000
      4 C1         7.1804   -1.7866   -1.0682 C.2       1 RES1    0.0000
      5 C2         6.3659   -2.4399   -2.0800 C.ar      1 RES1    0.0000
      6 C3         6.5282   -3.8011   -2.5231 C.ar      1 RES1    0.0000
      7 C4         7.5306   -4.6669   -2.0292 C.ar      1 RES1    0.0000
      8 H1         8.1236   -4.3587   -1.3824 H         1 RES1    0.0000
      9 C5         7.6414   -5.9454   -2.4861 C.ar      1 RES1    0.0000
     10 H2         8.3115   -6.4950   -2.1489 H         1 RES1    0.0000
     11 C6         6.7682   -6.4440   -3.4508 C.ar      1 RES1    0.0000
     12 H3         6.8483   -7.3226   -3.7448 H         1 RES1    0.0000
     13 C7         5.7998   -5.6396   -3.9587 C.ar      1 RES1    0.0000
     14 H4         5.2196   -5.9742   -4.6035 H         1 RES1    0.0000
     15 C8         5.6598   -4.3067   -3.5272 C.ar      1 RES1    0.0000
     16 C9         4.6709   -3.4570   -4.0750 C.ar      1 RES1    0.0000
     17 H5         4.0958   -3.7897   -4.7249 H         1 RES1    0.0000
     18 C10        4.5439   -2.1761   -3.6781 C.ar      1 RES1    0.0000
     19 H6         3.8970   -1.6321   -4.0667 H         1 RES1    0.0000
     20 C11        5.3868   -1.6603   -2.6777 C.ar      1 RES1    0.0000
     21 C12        5.6605    0.1357   -1.1185 C.3       1 RES1    0.0000
     22 H7         5.1161   -0.2159   -0.3964 H         1 RES1    0.0000
     23 H8         5.6058    1.1038   -1.0927 H         1 RES1    0.0000
     24 C13        7.0935   -0.2957   -0.9270 C.3       1 RES1    0.0000
     25 H9         7.6669    0.1390   -1.5916 H         1 RES1    0.0000
     26 C14        7.6792   -0.1196    0.4579 C.3       1 RES1    0.0000
     27 H10        6.9513   -0.1381    1.1147 H         1 RES1    0.0000
     28 C15        8.5133    1.1072    0.6906 C.ar      1 RES1    0.0000
     29 C16        8.0849    2.0867    1.5658 C.ar      1 RES1    0.0000
     30 H11        7.2967    1.9657    2.0436 H         1 RES1    0.0000
     31 C17        8.8137    3.2382    1.7352 C.ar      1 RES1    0.0000
     32 H12        8.5101    3.8944    2.3186 H         1 RES1    0.0000
     33 C18        9.9829    3.4262    1.0537 C.ar      1 RES1    0.0000
     34 H13       10.4721    4.2077    1.1746 H         1 RES1    0.0000
     35 C19       10.4348    2.4585    0.1881 C.ar      1 RES1    0.0000
     36 H14       11.2345    2.5784   -0.2706 H         1 RES1    0.0000
     37 C20        9.6984    1.3127    0.0039 C.ar      1 RES1    0.0000
     38 H15        9.9996    0.6654   -0.5910 H         1 RES1    0.0000
@<TRIPOS>BOND
     1    1    3 1
     2    2   20 1
     3    3    4 2
     4    4    5 1
     5    5    6 ar
     6    6    7 ar
     7    7    8 1
     8    9    7 ar
     9   10    9 1
    10   11    9 ar
    11   12   11 1
    12   13   11 ar
    13   14   13 1
    14   15    6 ar
    15   16   15 ar
    16   17   16 1
    17   18   16 ar
    18   19   18 1
    19   20    5 ar
    20   21    2 1
    21   22   21 1
    22   23   21 1
    23   24    4 1
    24   25   24 1
    25   26    1 1
    26   27   26 1
    27   28   26 1
    28   29   28 ar
    29   30   29 1
    30   31   29 ar
    31   32   31 1
    32   33   31 ar
    33   34   33 1
    34   35   33 ar
    35   36   35 1
    36   37   28 ar
    37   38   37 1
    38   13   15 ar
    39   18   20 ar
    40   21   24 1
    41   24   26 1
    42   35   37 ar
@<TRIPOS>SUBSTRUCTURE
     1 RES1 1

@<TRIPOS>CRYSIN
  22.0450    9.2680   17.8038  90.0000 124.7510  90.0000  15 1

