# MOL2 file generated by ConQuest
# Please check atom types

@<TRIPOS>MOLECULE
RIWPIW02
    19    20     1
SMALL
NO_CHARGES
****
Generated from CSD

@<TRIPOS>ATOM
      1 O1        -0.6312    6.6063    4.2295 O.2       1 RES1    0.0000
      2 O2        -2.9214    5.8642   -1.3549 O.3       1 RES1    0.0000
      3 H1        -3.0269    5.6463   -2.1377 H         1 RES1    0.0000
      4 N1         1.3393    5.4291    2.7343 N.ar      1 RES1    0.0000
      5 N2        -1.6359    5.6096   -0.9817 N.2       1 RES1    0.0000
      6 C1        -0.8741    6.3395    3.0621 C.2       1 RES1    0.0000
      7 C2        -2.1875    6.5818    2.4821 C.2       1 RES1    0.0000
      8 H2        -2.8697    6.8961    3.0297 H         1 RES1    0.0000
      9 C3        -2.4430    6.3690    1.1897 C.2       1 RES1    0.0000
     10 H3        -3.2947    6.5516    0.8635 H         1 RES1    0.0000
     11 C4        -1.4387    5.8620    0.2802 C.2       1 RES1    0.0000
     12 C5        -0.0960    5.5679    0.8041 C.ar      1 RES1    0.0000
     13 C6         0.9451    5.0775    0.0041 C.ar      1 RES1    0.0000
     14 H4         0.8197    4.9552   -0.9096 H         1 RES1    0.0000
     15 C7         2.1473    4.7819    0.5821 C.ar      1 RES1    0.0000
     16 H5         2.8568    4.4763    0.0637 H         1 RES1    0.0000
     17 C8         2.2957    4.9437    1.9539 C.ar      1 RES1    0.0000
     18 H6         3.1039    4.7007    2.3438 H         1 RES1    0.0000
     19 C9         0.1589    5.7563    2.1635 C.ar      1 RES1    0.0000
@<TRIPOS>BOND
     1    1    6 2
     2    2    3 1
     3    4   17 ar
     4    5    2 1
     5    6    7 1
     6    7    8 1
     7    9    7 2
     8   10    9 1
     9   11    5 2
    10   12   11 1
    11   13   12 ar
    12   14   13 1
    13   15   13 ar
    14   16   15 1
    15   17   15 ar
    16   18   17 1
    17   19    4 ar
    18    6   19 1
    19    9   11 1
    20   12   19 ar
@<TRIPOS>SUBSTRUCTURE
     1 RES1 1

@<TRIPOS>CRYSIN
   7.9591    7.1909   15.2010  90.0000 116.9040  90.0000  14 1

