# MOL2 file generated by ConQuest
# Please check atom types

@<TRIPOS>MOLECULE
RIWQET
    33    34     1
SMALL
NO_CHARGES
****
Generated from CSD

@<TRIPOS>ATOM
      1 O1        -1.7333    8.2788    6.5074 O.2       1 RES1    0.0000
      2 O2        -0.4741    9.1669    4.9855 O.2       1 RES1    0.0000
      3 O3         4.0387    7.6422    4.4069 O.2       1 RES1    0.0000
      4 O4         4.7578    5.9751    5.6016 O.2       1 RES1    0.0000
      5 N1        -1.1575    5.7855    7.3357 N.pl3     1 RES1    0.0000
      6 H1        -1.7277    6.3406    7.2010 H         1 RES1    0.0000
      7 N2         1.0341    5.1806    7.0308 N.ar      1 RES1    0.0000
      8 N3        -0.7033    8.2866    5.8200 N.pl3     1 RES1    0.0000
      9 N4         3.8553    6.7293    5.2093 N.pl3     1 RES1    0.0000
     10 C1        -2.6345    4.7713    8.9708 C.ar      1 RES1    0.0000
     11 C2        -3.8132    4.0566    8.9191 C.ar      1 RES1    0.0000
     12 H2        -3.9242    3.4054    8.3253 H         1 RES1    0.0000
     13 C3        -4.8690    4.3243    9.7981 C.ar      1 RES1    0.0000
     14 H3        -5.7399    3.7512    9.7081 H         1 RES1    0.0000
     15 C4        -4.7166    5.3042   10.7646 C.ar      1 RES1    0.0000
     16 H4        -5.5101    5.5195   11.4395 H         1 RES1    0.0000
     17 C5        -3.5273    6.0266   10.8475 C.ar      1 RES1    0.0000
     18 H5        -3.3357    6.6907   11.5714 H         1 RES1    0.0000
     19 C6        -2.5065    5.7752    9.9381 C.ar      1 RES1    0.0000
     20 H6        -1.7216    6.2840    9.9952 H         1 RES1    0.0000
     21 C7        -1.4655    4.5122    8.0141 C.3       1 RES1    0.0000
     22 H7        -0.6757    4.3338    8.5678 H         1 RES1    0.0000
     23 C8        -1.7307    3.4157    6.9880 C.3       1 RES1    0.0000
     24 H8        -1.8369    2.5191    7.5425 H         1 RES1    0.0000
     25 H9        -0.9844    3.2990    6.3550 H         1 RES1    0.0000
     26 H10       -2.5398    3.6251    6.4209 H         1 RES1    0.0000
     27 C9         0.0427    6.0832    6.8070 C.ar      1 RES1    0.0000
     28 C10        0.3027    7.2604    6.0269 C.ar      1 RES1    0.0000
     29 C11        1.5292    7.4603    5.4670 C.ar      1 RES1    0.0000
     30 H11        1.7198    8.3140    4.9820 H         1 RES1    0.0000
     31 C12        2.5143    6.5148    5.7237 C.ar      1 RES1    0.0000
     32 C13        2.2349    5.4183    6.5172 C.ar      1 RES1    0.0000
     33 H12        2.9862    4.7001    6.7053 H         1 RES1    0.0000
@<TRIPOS>BOND
     1    1    8 2
     2    2    8 2
     3    3    9 2
     4    4    9 2
     5    5    6 1
     6    7   27 ar
     7    8   28 1
     8    9   31 1
     9   10   11 ar
    10   11   12 1
    11   13   11 ar
    12   14   13 1
    13   15   13 ar
    14   16   15 1
    15   17   15 ar
    16   18   17 1
    17   19   10 ar
    18   20   19 1
    19   21    5 1
    20   22   21 1
    21   23   21 1
    22   24   23 1
    23   25   23 1
    24   26   23 1
    25   27    5 1
    26   28   27 ar
    27   29   28 ar
    28   30   29 1
    29   31   29 ar
    30   32    7 ar
    31   33   32 1
    32   10   21 1
    33   17   19 ar
    34   31   32 ar
@<TRIPOS>SUBSTRUCTURE
     1 RES1 1

@<TRIPOS>CRYSIN
   8.3890    8.5800    8.9340  90.0000  93.6890  90.0000   4 1

