# MOL2 file generated by ConQuest
# Please check atom types

@<TRIPOS>MOLECULE
RIWQET02
    33    34     1
SMALL
NO_CHARGES
****
Generated from CSD

@<TRIPOS>ATOM
      1 O1        -1.7596    8.2744    6.5066 O.2       1 RES1    0.0000
      2 O2        -0.5071    9.1591    4.9666 O.2       1 RES1    0.0000
      3 O3         4.0043    7.6471    4.3850 O.2       1 RES1    0.0000
      4 O4         4.7225    5.9669    5.5724 O.2       1 RES1    0.0000
      5 N1        -1.1869    5.7827    7.3278 N.pl3     1 RES1    0.0000
      6 H1        -1.8682    6.3589    7.1642 H         1 RES1    0.0000
      7 N2         1.0045    5.1696    6.9995 N.ar      1 RES1    0.0000
      8 N3        -0.7328    8.2905    5.8076 N.pl3     1 RES1    0.0000
      9 N4         3.8248    6.7217    5.1810 N.pl3     1 RES1    0.0000
     10 C1        -2.6621    4.7630    8.9457 C.ar      1 RES1    0.0000
     11 C2        -3.8496    4.0309    8.8884 C.ar      1 RES1    0.0000
     12 H2        -3.9620    3.4023    8.2076 H         1 RES1    0.0000
     13 C3        -4.9019    4.3107    9.7711 C.ar      1 RES1    0.0000
     14 H3        -5.7337    3.8308    9.6874 H         1 RES1    0.0000
     15 C4        -4.7618    5.2994   10.7403 C.ar      1 RES1    0.0000
     16 H4        -5.5074    5.5105   11.3334 H         1 RES1    0.0000
     17 C5        -3.5677    6.0246   10.8160 C.ar      1 RES1    0.0000
     18 H5        -3.4882    6.7703   11.5173 H         1 RES1    0.0000
     19 C6        -2.5361    5.7691    9.9174 C.ar      1 RES1    0.0000
     20 H6        -1.7305    6.2904    9.9629 H         1 RES1    0.0000
     21 C7        -1.4975    4.5061    7.9936 C.3       1 RES1    0.0000
     22 H7        -0.7676    4.2593    8.5356 H         1 RES1    0.0000
     23 C8        -1.7578    3.4127    6.9601 C.3       1 RES1    0.0000
     24 H8        -1.8563    2.5453    7.4140 H         1 RES1    0.0000
     25 H9        -0.8917    3.3080    6.3332 H         1 RES1    0.0000
     26 H10       -2.6127    3.6680    6.3892 H         1 RES1    0.0000
     27 C9         0.0053    6.0698    6.7896 C.ar      1 RES1    0.0000
     28 C10        0.2633    7.2528    6.0156 C.ar      1 RES1    0.0000
     29 C11        1.5052    7.4590    5.4470 C.ar      1 RES1    0.0000
     30 H11        1.7404    8.2529    4.9966 H         1 RES1    0.0000
     31 C12        2.4872    6.5164    5.6914 C.ar      1 RES1    0.0000
     32 C13        2.2032    5.3989    6.4855 C.ar      1 RES1    0.0000
     33 H12        2.9312    4.7649    6.6799 H         1 RES1    0.0000
@<TRIPOS>BOND
     1    1    8 2
     2    2    8 2
     3    3    9 2
     4    4    9 2
     5    5    6 1
     6    7   27 ar
     7    8   28 1
     8    9   31 1
     9   10   11 ar
    10   11   12 1
    11   13   11 ar
    12   14   13 1
    13   15   13 ar
    14   16   15 1
    15   17   15 ar
    16   18   17 1
    17   19   10 ar
    18   20   19 1
    19   21    5 1
    20   22   21 1
    21   23   21 1
    22   24   23 1
    23   25   23 1
    24   26   23 1
    25   27    5 1
    26   28   27 ar
    27   29   28 ar
    28   30   29 1
    29   31   29 ar
    30   32    7 ar
    31   33   32 1
    32   10   21 1
    33   17   19 ar
    34   31   32 ar
@<TRIPOS>SUBSTRUCTURE
     1 RES1 1

@<TRIPOS>CRYSIN
   8.3520    8.5700    8.9090  90.0000  93.9800  90.0000   4 1

