# MOL2 file generated by ConQuest
# Please check atom types

@<TRIPOS>MOLECULE
RIWQET01
    33    34     1
SMALL
NO_CHARGES
****
Generated from CSD

@<TRIPOS>ATOM
      1 O1        -1.7550    8.2741    6.5062 O.2       1 RES1    0.0000
      2 O2        -0.5083    9.1549    4.9708 O.2       1 RES1    0.0000
      3 O3         4.0024    7.6435    4.3873 O.2       1 RES1    0.0000
      4 O4         4.7215    5.9705    5.5728 O.2       1 RES1    0.0000
      5 N1        -1.1866    5.7824    7.3267 N.pl3     1 RES1    0.0000
      6 H1        -1.9528    6.4078    7.1082 H         1 RES1    0.0000
      7 N2         1.0059    5.1726    6.9981 N.ar      1 RES1    0.0000
      8 N3        -0.7326    8.2921    5.8075 N.pl3     1 RES1    0.0000
      9 N4         3.8245    6.7212    5.1802 N.pl3     1 RES1    0.0000
     10 C1        -2.6599    4.7631    8.9445 C.ar      1 RES1    0.0000
     11 C2        -3.8489    4.0316    8.8885 C.ar      1 RES1    0.0000
     12 H2        -3.9762    3.2326    8.1596 H         1 RES1    0.0000
     13 C3        -4.9008    4.3100    9.7708 C.ar      1 RES1    0.0000
     14 H3        -5.8276    3.7451    9.6936 H         1 RES1    0.0000
     15 C4        -4.7629    5.3017   10.7420 C.ar      1 RES1    0.0000
     16 H4        -5.5837    5.4942   11.4329 H         1 RES1    0.0000
     17 C5        -3.5678    6.0269   10.8161 C.ar      1 RES1    0.0000
     18 H5        -3.4368    6.7814   11.5840 H         1 RES1    0.0000
     19 C6        -2.5344    5.7676    9.9158 C.ar      1 RES1    0.0000
     20 H6        -1.6191    6.3504    9.9700 H         1 RES1    0.0000
     21 C7        -1.4989    4.5080    7.9959 C.3       1 RES1    0.0000
     22 H7        -0.6072    4.2379    8.5827 H         1 RES1    0.0000
     23 C8        -1.7584    3.4105    6.9598 C.3       1 RES1    0.0000
     24 H8        -1.9272    2.4459    7.4477 H         1 RES1    0.0000
     25 H9        -0.8905    3.3132    6.2932 H         1 RES1    0.0000
     26 H10       -2.6389    3.6457    6.3572 H         1 RES1    0.0000
     27 C9         0.0044    6.0695    6.7890 C.ar      1 RES1    0.0000
     28 C10        0.2619    7.2514    6.0138 C.ar      1 RES1    0.0000
     29 C11        1.5033    7.4611    5.4465 C.ar      1 RES1    0.0000
     30 H11        1.7057    8.3498    4.8588 H         1 RES1    0.0000
     31 C12        2.4872    6.5143    5.6917 C.ar      1 RES1    0.0000
     32 C13        2.2020    5.3992    6.4854 C.ar      1 RES1    0.0000
     33 H12        2.9852    4.6707    6.6950 H         1 RES1    0.0000
@<TRIPOS>BOND
     1    1    8 2
     2    2    8 2
     3    3    9 2
     4    4    9 2
     5    5    6 1
     6    7   27 ar
     7    8   28 1
     8    9   31 1
     9   10   11 ar
    10   11   12 1
    11   13   11 ar
    12   14   13 1
    13   15   13 ar
    14   16   15 1
    15   17   15 ar
    16   18   17 1
    17   19   10 ar
    18   20   19 1
    19   21    5 1
    20   22   21 1
    21   23   21 1
    22   24   23 1
    23   25   23 1
    24   26   23 1
    25   27    5 1
    26   28   27 ar
    27   29   28 ar
    28   30   29 1
    29   31   29 ar
    30   32    7 ar
    31   33   32 1
    32   10   21 1
    33   17   19 ar
    34   31   32 ar
@<TRIPOS>SUBSTRUCTURE
     1 RES1 1

@<TRIPOS>CRYSIN
   8.3520    8.5700    8.9090  90.0000  93.9800  90.0000   4 1

