# MOL2 file generated by ConQuest
# Please check atom types

@<TRIPOS>MOLECULE
RIXQOG
    61    66     1
SMALL
NO_CHARGES
****
Generated from CSD

@<TRIPOS>ATOM
      1 O1        -8.8640   -3.6720  -12.1194 O.3       1 RES1    0.0000
      2 O2        -7.4820   -0.9590  -10.6783 O.2       1 RES1    0.0000
      3 O3        -5.5706   -3.3660  -14.6295 O.3       1 RES1    0.0000
      4 O4        -8.1763   -2.5763  -14.7665 O.3       1 RES1    0.0000
      5 H1        -8.9678   -2.8525  -14.7168 H         1 RES1    0.0000
      6 O5        -3.4030   -3.7709  -15.0930 O.2       1 RES1    0.0000
      7 O6        -8.9634   -4.8962  -17.6535 O.2       1 RES1    0.0000
      8 O7        -8.4730   -6.3395  -19.1913 O.2       1 RES1    0.0000
      9 O8        -4.4647   -9.0057  -18.5362 O.2       1 RES1    0.0000
     10 O9        -2.8575   -8.2214  -17.3011 O.2       1 RES1    0.0000
     11 N1        -8.1991   -5.6798  -18.1993 N.pl3     1 RES1    0.0000
     12 N2        -3.9803   -8.1543  -17.8021 N.pl3     1 RES1    0.0000
     13 C1        -7.5063   -4.0525  -12.4147 C.3       1 RES1    0.0000
     14 H2        -7.3156   -4.4747  -13.3011 H         1 RES1    0.0000
     15 C2        -7.8641   -2.6455  -12.3872 C.3       1 RES1    0.0000
     16 C3        -7.4363   -2.1093  -11.0303 C.2       1 RES1    0.0000
     17 C4        -6.9364   -3.2894  -10.2193 C.3       1 RES1    0.0000
     18 H3        -7.6403   -3.6159   -9.6057 H         1 RES1    0.0000
     19 H4        -6.1398   -3.0383   -9.6888 H         1 RES1    0.0000
     20 C5        -6.5808   -4.3615  -11.2625 C.3       1 RES1    0.0000
     21 H5        -6.7280   -5.2849  -10.9070 H         1 RES1    0.0000
     22 C6        -5.1539   -4.1892  -11.8272 C.3       1 RES1    0.0000
     23 H6        -4.5141   -4.4428  -11.1156 H         1 RES1    0.0000
     24 H7        -5.0405   -4.8379  -12.5664 H         1 RES1    0.0000
     25 C7        -4.7431   -2.8006  -12.3538 C.3       1 RES1    0.0000
     26 H8        -3.7542   -2.7839  -12.3800 H         1 RES1    0.0000
     27 H9        -5.0214   -2.1394  -11.6712 H         1 RES1    0.0000
     28 C8        -5.2430   -2.2705  -13.7273 C.3       1 RES1    0.0000
     29 H10       -4.4625   -1.7996  -14.1391 H         1 RES1    0.0000
     30 C9        -6.4151   -1.2714  -13.7797 C.3       1 RES1    0.0000
     31 H11       -6.2620   -0.6278  -13.0297 H         1 RES1    0.0000
     32 C10       -7.8766   -1.7830  -13.6158 C.3       1 RES1    0.0000
     33 C11       -8.8573   -0.5732  -13.5190 C.3       1 RES1    0.0000
     34 H12       -9.6091   -0.7232  -14.1446 H         1 RES1    0.0000
     35 H13       -9.2321   -0.5407  -12.6033 H         1 RES1    0.0000
     36 C12       -8.2175    0.7816  -13.8358 C.3       1 RES1    0.0000
     37 H14       -8.9287    1.4530  -13.9840 H         1 RES1    0.0000
     38 H15       -7.6741    1.0764  -13.0629 H         1 RES1    0.0000
     39 C13       -7.3347    0.7033  -15.0694 C.3       1 RES1    0.0000
     40 H16       -7.7978    0.8621  -15.9424 H         1 RES1    0.0000
     41 C14       -6.3562   -0.4548  -15.0481 C.3       1 RES1    0.0000
     42 H17       -6.2627   -0.9693  -15.9000 H         1 RES1    0.0000
     43 C15       -5.8379    0.9611  -15.0647 C.3       1 RES1    0.0000
     44 C16       -5.2157    1.4095  -16.3721 C.3       1 RES1    0.0000
     45 H18       -5.6766    0.9743  -17.1201 H         1 RES1    0.0000
     46 H19       -4.2674    1.1618  -16.3836 H         1 RES1    0.0000
     47 H20       -5.3011    2.3821  -16.4574 H         1 RES1    0.0000
     48 C17       -5.1421    1.5582  -13.8603 C.3       1 RES1    0.0000
     49 H21       -4.2313    1.2019  -13.7994 H         1 RES1    0.0000
     50 H22       -5.6384    1.3275  -13.0482 H         1 RES1    0.0000
     51 H23       -5.1053    2.5328  -13.9545 H         1 RES1    0.0000
     52 C18       -4.5803   -3.9703  -15.2604 C.2       1 RES1    0.0000
     53 C19       -5.1230   -4.9914  -16.2154 C.ar      1 RES1    0.0000
     54 C20       -6.4203   -4.8768  -16.6981 C.ar      1 RES1    0.0000
     55 H24       -6.9946   -4.1800  -16.4020 H         1 RES1    0.0000
     56 C21       -6.8503   -5.8154  -17.6306 C.ar      1 RES1    0.0000
     57 C22       -6.0705   -6.8787  -18.0406 C.ar      1 RES1    0.0000
     58 H25       -6.3879   -7.5130  -18.6724 H         1 RES1    0.0000
     59 C23       -4.8108   -6.9753  -17.4896 C.ar      1 RES1    0.0000
     60 C24       -4.3035   -6.0288  -16.6125 C.ar      1 RES1    0.0000
     61 H26       -3.4119   -6.0934  -16.2913 H         1 RES1    0.0000
@<TRIPOS>BOND
     1    1   13 1
     2    2   16 2
     3    3   28 1
     4    4    5 1
     5    6   52 2
     6    7   11 2
     7    8   11 2
     8    9   12 2
     9   10   12 2
    10   11   56 1
    11   12   59 1
    12   13   14 1
    13   15    1 1
    14   16   15 1
    15   17   16 1
    16   18   17 1
    17   19   17 1
    18   20   13 1
    19   21   20 1
    20   22   20 1
    21   23   22 1
    22   24   22 1
    23   25   22 1
    24   26   25 1
    25   27   25 1
    26   28   25 1
    27   29   28 1
    28   30   28 1
    29   31   30 1
    30   32    4 1
    31   33   32 1
    32   34   33 1
    33   35   33 1
    34   36   33 1
    35   37   36 1
    36   38   36 1
    37   39   36 1
    38   40   39 1
    39   41   30 1
    40   42   41 1
    41   43   39 1
    42   44   43 1
    43   45   44 1
    44   46   44 1
    45   47   44 1
    46   48   43 1
    47   49   48 1
    48   50   48 1
    49   51   48 1
    50   52    3 1
    51   53   52 1
    52   54   53 ar
    53   55   54 1
    54   56   54 ar
    55   57   56 ar
    56   58   57 1
    57   59   57 ar
    58   60   53 ar
    59   61   60 1
    60   13   15 1
    61   15   32 1
    62   17   20 1
    63   30   32 1
    64   39   41 1
    65   41   43 1
    66   59   60 ar
@<TRIPOS>SUBSTRUCTURE
     1 RES1 1

@<TRIPOS>CRYSIN
   7.3627   16.7402   18.4583  90.0000  90.0000  90.0000  19 1

