# MOL2 file generated by ConQuest
# Please check atom types

@<TRIPOS>MOLECULE
RIXWUR
    52    54     1
SMALL
NO_CHARGES
****
Generated from CSD

@<TRIPOS>ATOM
      1 C1         2.3623    4.1237    4.2051 C.ar      1 RES1    0.0000
      2 C2         3.3567    4.5661    5.0591 C.ar      1 RES1    0.0000
      3 H1         3.1372    5.0677    5.8105 H         1 RES1    0.0000
      4 C3         4.6682    4.2598    4.7949 C.ar      1 RES1    0.0000
      5 H2         5.3378    4.5234    5.3847 H         1 RES1    0.0000
      6 C4         4.9850    3.5686    3.6641 C.ar      1 RES1    0.0000
      7 H3         5.8726    3.3632    3.4763 H         1 RES1    0.0000
      8 C5         3.9848    3.1748    2.7963 C.ar      1 RES1    0.0000
      9 H4         4.2222    2.7194    2.0211 H         1 RES1    0.0000
     10 C6         2.6431    3.4286    3.0318 C.ar      1 RES1    0.0000
     11 C7         1.6071    3.0156    1.9850 C.3       1 RES1    0.0000
     12 H5         0.7474    3.3994    2.2566 H         1 RES1    0.0000
     13 C8         1.9420    3.5780    0.6205 C.2       1 RES1    0.0000
     14 C9         1.4995    4.9557    0.3231 C.2       1 RES1    0.0000
     15 C10        2.5868    2.8301   -0.2918 C.2       1 RES1    0.0000
     16 C11        2.5417    0.8221    1.1067 C.2       1 RES1    0.0000
     17 C12        1.4256    1.4924    1.9053 C.3       1 RES1    0.0000
     18 C13        1.1017    0.8104    3.2143 C.3       1 RES1    0.0000
     19 H6         1.5746   -0.0319    3.3060 H         1 RES1    0.0000
     20 H7         1.3062    1.3792    3.9734 H         1 RES1    0.0000
     21 C14       -0.3599    0.6040    3.0643 C.2       1 RES1    0.0000
     22 C15       -1.2352    0.1689    4.1788 C.2       1 RES1    0.0000
     23 C16        0.4462    6.8752    1.2122 C.3       1 RES1    0.0000
     24 H8        -0.1909    6.8627    0.4809 H         1 RES1    0.0000
     25 H9         1.1461    7.5121    1.0006 H         1 RES1    0.0000
     26 C17       -0.2287    7.2551    2.4694 C.3       1 RES1    0.0000
     27 H10       -0.8534    6.5696    2.7174 H         1 RES1    0.0000
     28 H11       -0.6960    8.0840    2.3442 H         1 RES1    0.0000
     29 H12        0.4253    7.3589    3.1645 H         1 RES1    0.0000
     30 C18        3.0169    3.2203   -1.6718 C.3       1 RES1    0.0000
     31 H13        2.4823    2.7526   -2.3179 H         1 RES1    0.0000
     32 H14        3.9411    2.9926   -1.7957 H         1 RES1    0.0000
     33 H15        2.9020    4.1667   -1.7870 H         1 RES1    0.0000
     34 C19       -3.3722   -0.3105    4.9652 C.3       1 RES1    0.0000
     35 H16       -2.8359   -0.4314    5.7641 H         1 RES1    0.0000
     36 H17       -3.9219    0.4765    5.1017 H         1 RES1    0.0000
     37 C20       -4.0918   -1.2512    4.8537 C.3       1 RES1    0.0000
     38 H18       -4.5774   -1.1875    4.0285 H         1 RES1    0.0000
     39 H19       -4.7094   -1.2703    5.5888 H         1 RES1    0.0000
     40 H20       -3.5680   -2.0563    4.8563 H         1 RES1    0.0000
     41 N1        -0.8266    0.8328    1.8969 N.2       1 RES1    0.0000
     42 N2         0.9839    4.4391    4.6058 N.pl3     1 RES1    0.0000
     43 N3         2.9595    1.5205    0.0322 N.am      1 RES1    0.0000
     44 H21        3.5043    1.1252   -0.5034 H         1 RES1    0.0000
     45 O1         1.5294    5.5024   -0.7401 O.2       1 RES1    0.0000
     46 O2         1.0125    5.5510    1.4103 O.3       1 RES1    0.0000
     47 O3        -0.7812    0.0434    5.2720 O.2       1 RES1    0.0000
     48 O4        -2.4703   -0.0454    3.8494 O.3       1 RES1    0.0000
     49 O5         2.9940   -0.2717    1.4062 O.2       1 RES1    0.0000
     50 O6         0.2190    1.2627    1.0768 O.3       1 RES1    0.0000
     51 O7         0.7994    5.4857    5.2069 O.2       1 RES1    0.0000
     52 O8         0.0921    3.6403    4.3726 O.2       1 RES1    0.0000
@<TRIPOS>BOND
     1    1    2 ar
     2    2    3 1
     3    4    2 ar
     4    5    4 1
     5    6    4 ar
     6    7    6 1
     7    8    6 ar
     8    9    8 1
     9   10    1 ar
    10   11   10 1
    11   12   11 1
    12   13   11 1
    13   14   13 1
    14   15   13 2
    15   16   17 1
    16   17   11 1
    17   18   17 1
    18   19   18 1
    19   20   18 1
    20   21   18 1
    21   22   21 1
    22   23   24 1
    23   25   23 1
    24   26   23 1
    25   27   26 1
    26   28   26 1
    27   29   26 1
    28   30   15 1
    29   31   30 1
    30   32   30 1
    31   33   30 1
    32   34   35 1
    33   36   34 1
    34   37   34 1
    35   38   37 1
    36   39   37 1
    37   40   37 1
    38   41   21 2
    39   42    1 1
    40   43   15 1
    41   44   43 1
    42   45   14 2
    43   46   14 1
    44   47   22 2
    45   48   22 1
    46   49   16 2
    47   50   17 1
    48   51   42 2
    49   52   42 2
    50    8   10 ar
    51   16   43 1
    52   23   46 1
    53   34   48 1
    54   41   50 1
@<TRIPOS>SUBSTRUCTURE
     1 RES1 1

@<TRIPOS>CRYSIN
   8.2000   10.2340   13.4330 103.1100 105.1400  94.9900   2 1

