# MOL2 file generated by ConQuest
# Please check atom types

@<TRIPOS>MOLECULE
RIYHEO
    57    59     1
SMALL
NO_CHARGES
****
Generated from CSD

@<TRIPOS>ATOM
      1 C1         3.7955    0.9732    2.7748 C.3       1 RES1    0.0000
      2 H1         3.7536    1.1776    3.7420 H         1 RES1    0.0000
      3 H2         3.6056    0.0080    2.6617 H         1 RES1    0.0000
      4 C2         5.1911    1.2601    2.2750 C.3       1 RES1    0.0000
      5 H3         5.8438    0.7014    2.7674 H         1 RES1    0.0000
      6 H4         5.2540    1.0357    1.3128 H         1 RES1    0.0000
      7 C3         5.5133    2.7127    2.4777 C.3       1 RES1    0.0000
      8 H5         5.5027    2.9027    3.4598 H         1 RES1    0.0000
      9 C4         4.5505    3.6923    1.7865 C.3       1 RES1    0.0000
     10 C5         3.0934    3.2842    2.1632 C.3       1 RES1    0.0000
     11 H6         3.0045    3.5039    3.1341 H         1 RES1    0.0000
     12 C6         2.0272    4.1420    1.4595 C.3       1 RES1    0.0000
     13 H7         1.1996    4.1195    1.9978 H         1 RES1    0.0000
     14 H8         2.3410    5.0807    1.4359 H         1 RES1    0.0000
     15 C7         1.7014    3.7147    0.0659 C.2       1 RES1    0.0000
     16 C8         1.5631    2.2349   -0.2113 C.3       1 RES1    0.0000
     17 H9         0.6519    1.9712    0.1094 H         1 RES1    0.0000
     18 C9         2.5708    1.3515    0.5607 C.3       1 RES1    0.0000
     19 H10        3.4665    1.4798    0.1318 H         1 RES1    0.0000
     20 C10        2.7106    1.7788    2.0500 C.3       1 RES1    0.0000
     21 C11        2.1925   -0.1226    0.3879 C.3       1 RES1    0.0000
     22 H11        1.3214   -0.2870    0.8056 H         1 RES1    0.0000
     23 H12        2.8695   -0.6862    0.8155 H         1 RES1    0.0000
     24 H13        2.1449   -0.3375   -0.5669 H         1 RES1    0.0000
     25 C12        1.5852    1.9640   -1.7106 C.3       1 RES1    0.0000
     26 H14        2.5106    1.9904   -2.0339 H         1 RES1    0.0000
     27 H15        1.0549    2.6469   -2.1731 H         1 RES1    0.0000
     28 H16        1.2013    1.0790   -1.8884 H         1 RES1    0.0000
     29 C13        1.3839    1.5463    2.7897 C.3       1 RES1    0.0000
     30 H17        0.6526    1.9592    2.2850 H         1 RES1    0.0000
     31 H18        1.4325    1.9479    3.6823 H         1 RES1    0.0000
     32 H19        1.2205    0.5836    2.8730 H         1 RES1    0.0000
     33 C14        4.8371    5.0975    2.3708 C.3       1 RES1    0.0000
     34 H20        4.6133    5.1063    3.3243 H         1 RES1    0.0000
     35 H21        4.2930    5.7628    1.9008 H         1 RES1    0.0000
     36 H22        5.7849    5.3115    2.2552 H         1 RES1    0.0000
     37 C15        4.8425    3.7676    0.2760 C.3       1 RES1    0.0000
     38 H23        5.6887    4.2422    0.1293 H         1 RES1    0.0000
     39 H24        4.1175    4.2478   -0.1740 H         1 RES1    0.0000
     40 H25        4.9109    2.8610   -0.0895 H         1 RES1    0.0000
     41 C16        7.8899    2.8201    2.7686 C.2       1 RES1    0.0000
     42 C17        9.1673    3.1095    2.0575 C.ar      1 RES1    0.0000
     43 C18       10.3682    2.7512    2.6642 C.ar      1 RES1    0.0000
     44 H26       10.3542    2.2934    3.4959 H         1 RES1    0.0000
     45 C19       11.5789    3.0526    2.0712 C.ar      1 RES1    0.0000
     46 H27       12.3967    2.7912    2.4764 H         1 RES1    0.0000
     47 C20       11.5688    3.7444    0.8740 C.ar      1 RES1    0.0000
     48 C21       10.3938    4.1011    0.2474 C.ar      1 RES1    0.0000
     49 H28       10.4150    4.5636   -0.5831 H         1 RES1    0.0000
     50 C22        9.1868    3.7804    0.8367 C.ar      1 RES1    0.0000
     51 H29        8.3715    4.0177    0.4103 H         1 RES1    0.0000
     52 N1        12.8498    4.1556    0.2897 N.pl3     1 RES1    0.0000
     53 O1         6.8497    2.9989    1.9675 O.3       1 RES1    0.0000
     54 O2         1.4527    4.5460   -0.7956 O.2       1 RES1    0.0000
     55 O3         7.8248    2.4786    3.9258 O.2       1 RES1    0.0000
     56 O4        12.8205    4.8530   -0.7173 O.2       1 RES1    0.0000
     57 O5        13.8799    3.7981    0.8429 O.2       1 RES1    0.0000
@<TRIPOS>BOND
     1    1    2 1
     2    3    1 1
     3    4    1 1
     4    5    4 1
     5    6    4 1
     6    7    4 1
     7    8    7 1
     8    9    7 1
     9   10    9 1
    10   11   10 1
    11   12   10 1
    12   13   12 1
    13   14   12 1
    14   15   12 1
    15   16   15 1
    16   17   16 1
    17   18   16 1
    18   19   18 1
    19   20    1 1
    20   21   18 1
    21   22   21 1
    22   23   21 1
    23   24   21 1
    24   25   16 1
    25   26   25 1
    26   27   25 1
    27   28   25 1
    28   29   20 1
    29   30   29 1
    30   31   29 1
    31   32   29 1
    32   33    9 1
    33   34   33 1
    34   35   33 1
    35   36   33 1
    36   37    9 1
    37   38   37 1
    38   39   37 1
    39   40   37 1
    40   41   42 1
    41   42   43 ar
    42   43   44 1
    43   45   43 ar
    44   46   45 1
    45   47   45 ar
    46   48   47 ar
    47   49   48 1
    48   50   42 ar
    49   51   50 1
    50   52   47 1
    51   53    7 1
    52   54   15 2
    53   55   41 2
    54   56   52 2
    55   57   52 2
    56   10   20 1
    57   18   20 1
    58   41   53 1
    59   48   50 ar
@<TRIPOS>SUBSTRUCTURE
     1 RES1 1

@<TRIPOS>CRYSIN
  40.7700    8.0162   12.5151  90.0000  96.6080  90.0000  15 1

