# MOL2 file generated by ConQuest
# Please check atom types

@<TRIPOS>MOLECULE
RIYPIZ
    48    50     1
SMALL
NO_CHARGES
****
Generated from CSD

@<TRIPOS>ATOM
      1 O1        -0.6347    4.3397    8.5279 O.2       1 RES1    0.0000
      2 O2         1.1005    5.7251    8.4984 O.3       1 RES1    0.0000
      3 O3         4.0209    1.5849    6.2001 O.2       1 RES1    0.0000
      4 O4         3.0121    2.6038    4.4787 O.3       1 RES1    0.0000
      5 O5         3.5451   -4.4829    2.5969 O.2       1 RES1    0.0000
      6 O6         1.5999   -5.2800    3.0399 O.2       1 RES1    0.0000
      7 N1         2.4378   -4.3896    3.0692 N.pl3     1 RES1    0.0000
      8 C1         0.4762    4.5882    8.1288 C.2       1 RES1    0.0000
      9 C2         1.3506    3.7921    7.2421 C.2       1 RES1    0.0000
     10 C3         2.5573    4.6279    6.9585 C.3       1 RES1    0.0000
     11 H1         2.5268    4.9871    6.0579 H         1 RES1    0.0000
     12 H2         3.3706    4.1097    7.0641 H         1 RES1    0.0000
     13 C4         2.4810    5.7555    8.0056 C.3       1 RES1    0.0000
     14 H3         3.0891    5.5482    8.7456 H         1 RES1    0.0000
     15 C5         2.7795    7.1348    7.4992 C.ar      1 RES1    0.0000
     16 C6         1.8807    7.8474    6.7595 C.ar      1 RES1    0.0000
     17 H4         1.0492    7.4762    6.5705 H         1 RES1    0.0000
     18 C7         2.1818    9.1017    6.2908 C.ar      1 RES1    0.0000
     19 H5         1.5592    9.5668    5.7811 H         1 RES1    0.0000
     20 C8         3.3714    9.6563    6.5647 C.ar      1 RES1    0.0000
     21 H6         3.5646   10.5135    6.2586 H         1 RES1    0.0000
     22 C9         4.2885    8.9795    7.2838 C.ar      1 RES1    0.0000
     23 H7         5.1174    9.3610    7.4611 H         1 RES1    0.0000
     24 C10        3.9902    7.7048    7.7628 C.ar      1 RES1    0.0000
     25 H8         4.6203    7.2401    8.2637 H         1 RES1    0.0000
     26 C11        0.9661    2.5709    6.8783 C.2       1 RES1    0.0000
     27 H9         0.1294    2.3159    7.1930 H         1 RES1    0.0000
     28 C12        1.6430    1.5722    6.0692 C.2       1 RES1    0.0000
     29 C13        1.0404    0.3939    5.8411 C.2       1 RES1    0.0000
     30 H10        0.1967    0.3206    6.2263 H         1 RES1    0.0000
     31 C14        1.4623   -0.7920    5.1026 C.ar      1 RES1    0.0000
     32 C15        2.7037   -0.9760    4.4863 C.ar      1 RES1    0.0000
     33 H11        3.3322   -0.2925    4.5259 H         1 RES1    0.0000
     34 C16        3.0196   -2.1328    3.8287 C.ar      1 RES1    0.0000
     35 H12        3.8505   -2.2336    3.4215 H         1 RES1    0.0000
     36 C17        2.0910   -3.1419    3.7789 C.ar      1 RES1    0.0000
     37 C18        0.8581   -3.0176    4.3526 C.ar      1 RES1    0.0000
     38 H13        0.2347   -3.7045    4.2944 H         1 RES1    0.0000
     39 C19        0.5578   -1.8538    5.0174 C.ar      1 RES1    0.0000
     40 H14       -0.2741   -1.7699    5.4237 H         1 RES1    0.0000
     41 C20        3.0310    1.9019    5.5970 C.2       1 RES1    0.0000
     42 C21        4.3117    3.0858    3.9942 C.3       1 RES1    0.0000
     43 H15        4.8754    3.3059    4.7514 H         1 RES1    0.0000
     44 H16        4.1812    3.8930    3.4728 H         1 RES1    0.0000
     45 C22        4.9922    2.0639    3.1564 C.3       1 RES1    0.0000
     46 H17        5.8411    2.4025    2.8634 H         1 RES1    0.0000
     47 H18        4.4474    1.8631    2.3918 H         1 RES1    0.0000
     48 H19        5.1279    1.2652    3.6719 H         1 RES1    0.0000
@<TRIPOS>BOND
     1    1    8 2
     2    2    8 1
     3    3   41 2
     4    4   41 1
     5    5    7 2
     6    6    7 2
     7    7   36 1
     8    8    9 1
     9    9   10 1
    10   10   11 1
    11   12   10 1
    12   13    2 1
    13   14   13 1
    14   15   13 1
    15   16   15 ar
    16   17   16 1
    17   18   16 ar
    18   19   18 1
    19   20   18 ar
    20   21   20 1
    21   22   20 ar
    22   23   22 1
    23   24   15 ar
    24   25   24 1
    25   26    9 2
    26   27   26 1
    27   28   26 1
    28   29   28 2
    29   30   29 1
    30   31   29 1
    31   32   31 ar
    32   33   32 1
    33   34   32 ar
    34   35   34 1
    35   36   34 ar
    36   37   36 ar
    37   38   37 1
    38   39   31 ar
    39   40   39 1
    40   41   28 1
    41   42    4 1
    42   43   42 1
    43   44   42 1
    44   45   42 1
    45   46   45 1
    46   47   45 1
    47   48   45 1
    48   10   13 1
    49   22   24 ar
    50   37   39 ar
@<TRIPOS>SUBSTRUCTURE
     1 RES1 1

@<TRIPOS>CRYSIN
   6.1690   21.6640   14.7970  90.0000  98.1710  90.0000 231 1

