# MOL2 file generated by ConQuest
# Please check atom types

@<TRIPOS>MOLECULE
RIYRAT
    66    68     2
SMALL
NO_CHARGES
****
Generated from CSD

@<TRIPOS>ATOM
      1 O1         3.0875    1.8759   21.1477 O.2       1 RES1    0.0000
      2 O2         7.0092   -1.1378   26.3750 O.2       1 RES1    0.0000
      3 O3         4.9525   -1.1160   27.0393 O.2       1 RES1    0.0000
      4 N1         5.8306   -0.8536   26.2244 N.pl3     1 RES1    0.0000
      5 C1         6.0154    0.5493   22.7820 C.ar      1 RES1    0.0000
      6 H1         6.6299    0.6162   22.0878 H         1 RES1    0.0000
      7 C2         6.3672   -0.0948   23.9627 C.ar      1 RES1    0.0000
      8 H2         7.2130   -0.4692   24.0657 H         1 RES1    0.0000
      9 C3         5.4383   -0.1676   24.9815 C.ar      1 RES1    0.0000
     10 C4         4.1719    0.3644   24.8766 C.ar      1 RES1    0.0000
     11 H3         3.5650    0.3016   25.5779 H         1 RES1    0.0000
     12 C5         3.8305    0.9961   23.6912 C.ar      1 RES1    0.0000
     13 H4         2.9805    1.3612   23.5945 H         1 RES1    0.0000
     14 C6         4.7420    1.0936   22.6404 C.ar      1 RES1    0.0000
     15 C7         4.2871    1.7542   21.3671 C.2       1 RES1    0.0000
     16 C8         5.3120    2.2596   20.4368 C.2       1 RES1    0.0000
     17 H5         6.2101    2.2349   20.6771 H         1 RES1    0.0000
     18 C9         4.9489    2.7558   19.2435 C.2       1 RES1    0.0000
     19 H6         4.0500    2.6854   19.0142 H         1 RES1    0.0000
     20 C10        5.8302    3.3975   18.2664 C.ar      1 RES1    0.0000
     21 C11        5.3644    3.6171   16.9621 C.ar      1 RES1    0.0000
     22 H7         4.5064    3.3391   16.7350 H         1 RES1    0.0000
     23 C12        6.1515    4.2394   16.0039 C.ar      1 RES1    0.0000
     24 H8         5.8234    4.3555   15.1407 H         1 RES1    0.0000
     25 C13        7.4315    4.6925   16.3228 C.ar      1 RES1    0.0000
     26 C14        7.8876    4.4961   17.6295 C.ar      1 RES1    0.0000
     27 H9         8.7314    4.8065   17.8637 H         1 RES1    0.0000
     28 C15        7.1166    3.8519   18.5833 C.ar      1 RES1    0.0000
     29 H10        7.4552    3.7204   19.4388 H         1 RES1    0.0000
     30 C16        8.2886    5.3812   15.2952 C.3       1 RES1    0.0000
     31 H11        7.7658    6.0392   14.8312 H         1 RES1    0.0000
     32 H12        8.6186    4.7337   14.6668 H         1 RES1    0.0000
     33 H13        9.0286    5.8104   15.7324 H         1 RES1    0.0000
     34 O4         2.2541    6.8257   20.1338 O.2       2 RES2    0.0000
     35 O5         6.0821    8.8126   14.3748 O.2       2 RES2    0.0000
     36 O6         4.2723   10.0007   14.3857 O.2       2 RES2    0.0000
     37 N2         5.0161    9.1547   14.8709 N.pl3     2 RES2    0.0000
     38 C17        5.1433    7.1248   17.9848 C.ar      2 RES2    0.0000
     39 H14        5.7353    6.5604   18.4253 H         2 RES2    0.0000
     40 C18        5.4990    7.6810   16.7605 C.ar      2 RES2    0.0000
     41 H15        6.3208    7.4871   16.3707 H         2 RES2    0.0000
     42 C19        4.6023    8.5280   16.1406 C.ar      2 RES2    0.0000
     43 C20        3.3701    8.8408   16.6772 C.ar      2 RES2    0.0000
     44 H16        2.7910    9.4222   16.2392 H         2 RES2    0.0000
     45 C21        3.0200    8.2644   17.8859 C.ar      2 RES2    0.0000
     46 H17        2.1879    8.4482   18.2582 H         2 RES2    0.0000
     47 C22        3.9021    7.4102   18.5518 C.ar      2 RES2    0.0000
     48 C23        3.4420    6.7982   19.8465 C.2       2 RES2    0.0000
     49 C24        4.4493    6.1778   20.7291 C.2       2 RES2    0.0000
     50 H18        5.3359    6.1289   20.4524 H         2 RES2    0.0000
     51 C25        4.0994    5.6852   21.9218 C.2       2 RES2    0.0000
     52 H19        3.2033    5.7649   22.1591 H         2 RES2    0.0000
     53 C26        4.9735    5.0355   22.8930 C.ar      2 RES2    0.0000
     54 C27        4.5135    4.8071   24.1955 C.ar      2 RES2    0.0000
     55 H20        3.6571    5.0807   24.4328 H         2 RES2    0.0000
     56 C28        5.3187    4.1777   25.1385 C.ar      2 RES2    0.0000
     57 H21        4.9971    4.0444   25.9997 H         2 RES2    0.0000
     58 C29        6.6001    3.7438   24.8078 C.ar      2 RES2    0.0000
     59 C30        7.0527    3.9582   23.5014 C.ar      2 RES2    0.0000
     60 H22        7.9015    3.6659   23.2576 H         2 RES2    0.0000
     61 C31        6.2587    4.5994   22.5618 C.ar      2 RES2    0.0000
     62 H23        6.5850    4.7405   21.7016 H         2 RES2    0.0000
     63 C32        7.4659    3.0774   25.8389 C.3       2 RES2    0.0000
     64 H24        7.4311    3.5769   26.6572 H         2 RES2    0.0000
     65 H25        8.3723    3.0449   25.5231 H         2 RES2    0.0000
     66 H26        7.1492    2.1852   25.9942 H         2 RES2    0.0000
@<TRIPOS>BOND
     1    1   15 2
     2    2    4 2
     3    3    4 2
     4    4    9 1
     5    5    6 1
     6    7    5 ar
     7    8    7 1
     8    9    7 ar
     9   10    9 ar
    10   11   10 1
    11   12   10 ar
    12   13   12 1
    13   14    5 ar
    14   15   14 1
    15   16   15 1
    16   17   16 1
    17   18   16 2
    18   19   18 1
    19   20   18 1
    20   21   20 ar
    21   22   21 1
    22   23   21 ar
    23   24   23 1
    24   25   23 ar
    25   26   25 ar
    26   27   26 1
    27   28   20 ar
    28   29   28 1
    29   30   25 1
    30   31   30 1
    31   32   30 1
    32   33   30 1
    33   34   48 2
    34   35   37 2
    35   36   37 2
    36   37   42 1
    37   38   39 1
    38   40   38 ar
    39   41   40 1
    40   42   40 ar
    41   43   42 ar
    42   44   43 1
    43   45   43 ar
    44   46   45 1
    45   47   38 ar
    46   48   47 1
    47   49   48 1
    48   50   49 1
    49   51   49 2
    50   52   51 1
    51   53   51 1
    52   54   53 ar
    53   55   54 1
    54   56   54 ar
    55   57   56 1
    56   58   56 ar
    57   59   58 ar
    58   60   59 1
    59   61   53 ar
    60   62   61 1
    61   63   58 1
    62   64   63 1
    63   65   63 1
    64   66   63 1
    65   12   14 ar
    66   26   28 ar
    67   45   47 ar
    68   59   61 ar
@<TRIPOS>SUBSTRUCTURE
     1 RES1 1
     2 RES2 34

@<TRIPOS>CRYSIN
   5.8857    7.8800   27.4745  88.7930  85.6650  82.6450   2 1

