# MOL2 file generated by ConQuest
# Please check atom types

@<TRIPOS>MOLECULE
RIYTID
    18    18     1
SMALL
NO_CHARGES
****
Generated from CSD

@<TRIPOS>ATOM
      1 N1         3.0420    2.5180    4.8711 N.pl3     1 RES1    0.0000
      2 C1         3.2936    5.0483    2.1650 C.ar      1 RES1    0.0000
      3 C2         3.0091    3.8564    2.8200 C.ar      1 RES1    0.0000
      4 H1         2.6099    3.1456    2.3735 H         1 RES1    0.0000
      5 C3         2.9448    5.1819    0.7688 C.1       1 RES1    0.0000
      6 C4         3.8845    6.1424    2.8244 C.ar      1 RES1    0.0000
      7 C5         3.3395    3.7633    4.1564 C.ar      1 RES1    0.0000
      8 N2         2.6608    5.3124   -0.3242 N.1       1 RES1    0.0000
      9 C6         4.1904    5.9820    4.1716 C.ar      1 RES1    0.0000
     10 H2         4.5794    6.6898    4.6319 H         1 RES1    0.0000
     11 O1         3.4934    2.3775    5.9925 O.2       1 RES1    0.0000
     12 O2         2.3466    1.6835    4.3224 O.2       1 RES1    0.0000
     13 C7         3.9347    4.8093    4.8416 C.ar      1 RES1    0.0000
     14 H3         4.1577    4.7200    5.7389 H         1 RES1    0.0000
     15 C8         4.1762    7.4220    2.0961 C.3       1 RES1    0.0000
     16 H4         4.5951    8.0435    2.6954 H         1 RES1    0.0000
     17 H5         3.3560    7.7976    1.7690 H         1 RES1    0.0000
     18 H6         4.7641    7.2433    1.3582 H         1 RES1    0.0000
@<TRIPOS>BOND
     1    1    7 1
     2    2    3 ar
     3    3    4 1
     4    5    2 1
     5    6    2 ar
     6    7    3 ar
     7    8    5 3
     8    9    6 ar
     9   10    9 1
    10   11    1 2
    11   12    1 2
    12   13    7 ar
    13   14   13 1
    14   15    6 1
    15   16   15 1
    16   17   15 1
    17   18   15 1
    18    9   13 ar
@<TRIPOS>SUBSTRUCTURE
     1 RES1 1

@<TRIPOS>CRYSIN
   3.8946    7.6350   26.1800  90.0000  91.6500  90.0000 231 1

