# MOL2 file generated by ConQuest
# Please check atom types

@<TRIPOS>MOLECULE
RIYVOL
    94    96     2
SMALL
NO_CHARGES
****
Generated from CSD

@<TRIPOS>ATOM
      1 O1        17.1060    4.4664    5.1571 O.2       1 RES1    0.0000
      2 O2        11.3372    3.0827    4.3051 O.2       1 RES1    0.0000
      3 O3        12.8517    4.6205    4.1128 O.2       1 RES1    0.0000
      4 O4        16.9716   -3.8919    5.0243 O.3       1 RES1    0.0000
      5 H1        17.0638   -4.8011    5.1881 H         1 RES1    0.0000
      6 O5        15.4068   -0.3964    7.8894 O.3       1 RES1    0.0000
      7 H2        15.9535   -1.0866    7.7551 H         1 RES1    0.0000
      8 N1        17.2231    2.2057    5.0417 N.am      1 RES1    0.0000
      9 H3        17.7636    1.5379    5.0448 H         1 RES1    0.0000
     10 N2        12.5175    3.4571    4.3028 N.pl3     1 RES1    0.0000
     11 N3        14.5018   -2.1781    5.6634 N.3       1 RES1    0.0000
     12 C1        14.1662    0.1475    4.7491 C.ar      1 RES1    0.0000
     13 C2        15.4918    0.5533    4.8964 C.ar      1 RES1    0.0000
     14 H4        16.1549   -0.0898    5.0097 H         1 RES1    0.0000
     15 C3        15.8464    1.9038    4.8768 C.ar      1 RES1    0.0000
     16 C4        14.8636    2.8817    4.6771 C.ar      1 RES1    0.0000
     17 H5        15.0778    3.7865    4.6476 H         1 RES1    0.0000
     18 C5        13.5573    2.4404    4.5254 C.ar      1 RES1    0.0000
     19 C6        13.1753    1.1143    4.5681 C.ar      1 RES1    0.0000
     20 H6        12.2822    0.8715    4.4788 H         1 RES1    0.0000
     21 C7        13.8046   -1.3139    4.6979 C.3       1 RES1    0.0000
     22 H7        12.8489   -1.3982    4.8462 H         1 RES1    0.0000
     23 H8        13.9903   -1.6432    3.8046 H         1 RES1    0.0000
     24 C8        17.7790    3.4350    5.1944 C.2       1 RES1    0.0000
     25 C9        19.2673    3.4982    5.3952 C.ar      1 RES1    0.0000
     26 C10       20.0896    2.3761    5.5188 C.ar      1 RES1    0.0000
     27 H9        19.7201    1.5235    5.4866 H         1 RES1    0.0000
     28 C11       21.4540    2.5303    5.6890 C.ar      1 RES1    0.0000
     29 H10       21.9959    1.7774    5.7677 H         1 RES1    0.0000
     30 C12       22.0258    3.7943    5.7447 C.ar      1 RES1    0.0000
     31 H11       22.9437    3.8896    5.8528 H         1 RES1    0.0000
     32 C13       21.2166    4.9108    5.6369 C.ar      1 RES1    0.0000
     33 H12       21.5928    5.7602    5.6771 H         1 RES1    0.0000
     34 C14       19.8470    4.7678    5.4695 C.ar      1 RES1    0.0000
     35 H13       19.3101    5.5240    5.4056 H         1 RES1    0.0000
     36 C15       14.5509   -3.5614    5.1362 C.3       1 RES1    0.0000
     37 H14       13.7448   -3.7377    4.6260 H         1 RES1    0.0000
     38 H15       14.5763   -4.1857    5.8785 H         1 RES1    0.0000
     39 C16       15.7608   -3.7887    4.2525 C.3       1 RES1    0.0000
     40 H16       15.6356   -4.6037    3.7411 H         1 RES1    0.0000
     41 H17       15.8432   -3.0525    3.6262 H         1 RES1    0.0000
     42 C17       13.8962   -2.1411    6.9969 C.3       1 RES1    0.0000
     43 H18       14.2951   -2.8429    7.5362 H         1 RES1    0.0000
     44 H19       12.9496   -2.3395    6.9120 H         1 RES1    0.0000
     45 C18       14.0472   -0.8227    7.7336 C.3       1 RES1    0.0000
     46 H20       13.5596   -0.1375    7.2511 H         1 RES1    0.0000
     47 H21       13.6435   -0.9081    8.6116 H         1 RES1    0.0000
     48 O6        17.1183    4.7321    8.6033 O.2       2 RES2    0.0000
     49 O7        22.8982    3.2902    9.2362 O.2       2 RES2    0.0000
     50 O8        21.3947    4.8490    9.3912 O.2       2 RES2    0.0000
     51 O9        17.1008   -2.4913    7.4020 O.3       2 RES2    0.0000
     52 H22       16.9335   -2.9826    6.5121 H         2 RES2    0.0000
     53 O10       18.5340   -0.5700    5.3899 O.3       2 RES2    0.0000
     54 H23       18.1807   -0.8870    6.1473 H         2 RES2    0.0000
     55 N4        17.0167    2.4698    8.4318 N.am      2 RES2    0.0000
     56 H24       16.4810    1.8084    8.3090 H         2 RES2    0.0000
     57 N5        21.7231    3.6770    9.2246 N.pl3     2 RES2    0.0000
     58 N6        19.8352   -1.7091    7.5404 N.3       2 RES2    0.0000
     59 C19       20.0428    0.3792    8.7971 C.ar      2 RES2    0.0000
     60 C20       18.7247    0.8005    8.6223 C.ar      2 RES2    0.0000
     61 H25       18.0598    0.1630    8.4927 H         2 RES2    0.0000
     62 C21       18.3746    2.1522    8.6364 C.ar      2 RES2    0.0000
     63 C22       19.3716    3.1179    8.8396 C.ar      2 RES2    0.0000
     64 H26       19.1711    4.0260    8.8562 H         2 RES2    0.0000
     65 C23       20.6701    2.6611    9.0152 C.ar      2 RES2    0.0000
     66 C24       21.0375    1.3305    8.9980 C.ar      2 RES2    0.0000
     67 H27       21.9255    1.0777    9.1169 H         2 RES2    0.0000
     68 C25       20.3539   -1.1010    8.7642 C.3       2 RES2    0.0000
     69 H28       21.3131   -1.2319    8.8089 H         2 RES2    0.0000
     70 H29       19.9536   -1.5335    9.5358 H         2 RES2    0.0000
     71 C26       16.4599    3.7222    8.4083 C.2       2 RES2    0.0000
     72 C27       14.9783    3.7932    8.1685 C.ar      2 RES2    0.0000
     73 C28       14.1508    2.6899    8.0083 C.ar      2 RES2    0.0000
     74 H30       14.5128    1.8328    8.0185 H         2 RES2    0.0000
     75 C29       12.7828    2.8629    7.8321 C.ar      2 RES2    0.0000
     76 H31       12.2325    2.1200    7.7253 H         2 RES2    0.0000
     77 C30       12.2334    4.1325    7.8155 C.ar      2 RES2    0.0000
     78 H32       11.3165    4.2422    7.6997 H         2 RES2    0.0000
     79 C31       13.0525    5.2390    7.9716 C.ar      2 RES2    0.0000
     80 H33       12.6855    6.0939    7.9631 H         2 RES2    0.0000
     81 C32       14.4210    5.0760    8.1400 C.ar      2 RES2    0.0000
     82 H34       14.9681    5.8223    8.2347 H         2 RES2    0.0000
     83 C33       19.4423   -3.1046    7.6921 C.3       2 RES2    0.0000
     84 H35       20.0586   -3.5537    8.2928 H         2 RES2    0.0000
     85 H36       19.4827   -3.5503    6.8309 H         2 RES2    0.0000
     86 C34       18.0284   -3.1944    8.2482 C.3       2 RES2    0.0000
     87 H37       17.7639   -4.1258    8.3117 H         2 RES2    0.0000
     88 H38       18.0061   -2.8130    9.1399 H         2 RES2    0.0000
     89 C35       20.6077   -1.3915    6.3448 C.3       2 RES2    0.0000
     90 H39       21.3023   -2.0579    6.2189 H         2 RES2    0.0000
     91 H40       21.0352   -0.5278    6.4540 H         2 RES2    0.0000
     92 C36       19.6953   -1.3627    5.1150 C.3       2 RES2    0.0000
     93 H41       20.1758   -0.9879    4.3599 H         2 RES2    0.0000
     94 H42       19.4273   -2.2664    4.8854 H         2 RES2    0.0000
@<TRIPOS>BOND
     1    1   24 2
     2    2   10 2
     3    3   10 2
     4    4    5 1
     5    6    7 1
     6    8    9 1
     7   10   18 1
     8   11   21 1
     9   12   13 ar
    10   13   14 1
    11   15    8 1
    12   16   15 ar
    13   17   16 1
    14   18   16 ar
    15   19   12 ar
    16   20   19 1
    17   21   12 1
    18   22   21 1
    19   23   21 1
    20   24    8 1
    21   25   24 1
    22   26   25 ar
    23   27   26 1
    24   28   26 ar
    25   29   28 1
    26   30   28 ar
    27   31   30 1
    28   32   30 ar
    29   33   32 1
    30   34   25 ar
    31   35   34 1
    32   36   11 1
    33   37   36 1
    34   38   36 1
    35   39    4 1
    36   40   39 1
    37   41   39 1
    38   42   11 1
    39   43   42 1
    40   44   42 1
    41   45    6 1
    42   46   45 1
    43   47   45 1
    44   48   71 2
    45   49   57 2
    46   50   57 2
    47   51   52 1
    48   53   54 1
    49   55   56 1
    50   57   65 1
    51   58   68 1
    52   59   60 ar
    53   60   61 1
    54   62   55 1
    55   63   62 ar
    56   64   63 1
    57   65   63 ar
    58   66   59 ar
    59   67   66 1
    60   68   59 1
    61   69   68 1
    62   70   68 1
    63   71   55 1
    64   72   71 1
    65   73   72 ar
    66   74   73 1
    67   75   73 ar
    68   76   75 1
    69   77   75 ar
    70   78   77 1
    71   79   77 ar
    72   80   79 1
    73   81   72 ar
    74   82   81 1
    75   83   58 1
    76   84   83 1
    77   85   83 1
    78   86   51 1
    79   87   86 1
    80   88   86 1
    81   89   58 1
    82   90   89 1
    83   91   89 1
    84   92   53 1
    85   93   92 1
    86   94   92 1
    87   13   15 ar
    88   18   19 ar
    89   32   34 ar
    90   36   39 1
    91   42   45 1
    92   60   62 ar
    93   65   66 ar
    94   79   81 ar
    95   83   86 1
    96   89   92 1
@<TRIPOS>SUBSTRUCTURE
     1 RES1 1
     2 RES2 48

@<TRIPOS>CRYSIN
  22.7867   11.0879   13.5106  90.0000  90.1140  90.0000  14 1

