# MOL2 file generated by ConQuest
# Please check atom types

@<TRIPOS>MOLECULE
RIZGUD
    31    32     1
SMALL
NO_CHARGES
****
Generated from CSD

@<TRIPOS>ATOM
      1 O1         0.7896    5.5948    1.3969 O.2       1 RES1    0.0000
      2 O2         0.6756    3.5968    2.1810 O.2       1 RES1    0.0000
      3 O3         1.7470    2.5315    6.6100 O.2       1 RES1    0.0000
      4 O4         1.9621    4.0736    8.0973 O.2       1 RES1    0.0000
      5 O5         0.2499   12.0756    1.8186 O.3       1 RES1    0.0000
      6 N1         0.8391    4.7995    2.3390 N.pl3     1 RES1    0.0000
      7 N2         1.7647    3.7168    6.9481 N.pl3     1 RES1    0.0000
      8 N3         0.9632    7.6273    3.0192 N.pl3     1 RES1    0.0000
      9 H1         0.8665    7.3913    2.1978 H         1 RES1    0.0000
     10 N4         0.9429    8.9609    3.3577 N.2       1 RES1    0.0000
     11 C1         1.1357    6.6862    3.9763 C.ar      1 RES1    0.0000
     12 C2         1.1007    5.2970    3.6746 C.ar      1 RES1    0.0000
     13 C3         1.3105    4.3437    4.6520 C.ar      1 RES1    0.0000
     14 H2         1.2928    3.4393    4.4353 H         1 RES1    0.0000
     15 C4         1.5435    4.7369    5.9403 C.ar      1 RES1    0.0000
     16 C5         1.5584    6.0929    6.2864 C.ar      1 RES1    0.0000
     17 H3         1.7045    6.3468    7.1690 H         1 RES1    0.0000
     18 C6         1.3581    7.0429    5.3238 C.ar      1 RES1    0.0000
     19 H4         1.3686    7.9424    5.5614 H         1 RES1    0.0000
     20 C7         0.6901    9.7762    2.3802 C.2       1 RES1    0.0000
     21 C8         0.7158   11.1833    2.7531 C.2       1 RES1    0.0000
     22 C9         1.1057   11.8402    3.8534 C.2       1 RES1    0.0000
     23 H5         1.4572   11.4679    4.6294 H         1 RES1    0.0000
     24 C10        0.8743   13.2238    3.5974 C.2       1 RES1    0.0000
     25 H6         1.0478   13.9295    4.1778 H         1 RES1    0.0000
     26 C11        0.3724   13.3132    2.3910 C.2       1 RES1    0.0000
     27 H7         0.1316   14.1106    1.9780 H         1 RES1    0.0000
     28 C12        0.4038    9.3955    0.9732 C.3       1 RES1    0.0000
     29 H8         1.2114    9.0872    0.5547 H         1 RES1    0.0000
     30 H9         0.0679   10.1587    0.4972 H         1 RES1    0.0000
     31 H10       -0.2516    8.6940    0.9588 H         1 RES1    0.0000
@<TRIPOS>BOND
     1    1    6 2
     2    2    6 2
     3    3    7 2
     4    4    7 2
     5    5   21 1
     6    6   12 1
     7    7   15 1
     8    8    9 1
     9   10    8 1
    10   11    8 1
    11   12   11 ar
    12   13   12 ar
    13   14   13 1
    14   15   13 ar
    15   16   15 ar
    16   17   16 1
    17   18   11 ar
    18   19   18 1
    19   20   10 2
    20   21   20 1
    21   22   21 2
    22   23   22 1
    23   24   22 1
    24   25   24 1
    25   26    5 1
    26   27   26 1
    27   28   20 1
    28   29   28 1
    29   30   28 1
    30   31   28 1
    31   16   18 ar
    32   24   26 2
@<TRIPOS>SUBSTRUCTURE
     1 RES1 1

@<TRIPOS>CRYSIN
   9.8917   12.8477   10.6549  90.0000 111.6300  90.0000  14 1

