# MOL2 file generated by ConQuest
# Please check atom types

@<TRIPOS>MOLECULE
RIZHAK
    45    45     1
SMALL
NO_CHARGES
****
Generated from CSD

@<TRIPOS>ATOM
      1 O1        -4.8806    6.0970   25.3892 O.2       1 RES1    0.0000
      2 O2        -6.7839    6.7552   26.2024 O.2       1 RES1    0.0000
      3 O3        -5.4147    1.7861   22.9860 O.3       1 RES1    0.0000
      4 N1        -6.1206    5.9794   25.4987 N.pl3     1 RES1    0.0000
      5 N2        -6.7871    5.0594   24.8217 N.2       1 RES1    0.0000
      6 N3        -5.1896    3.2806   24.7645 N.3       1 RES1    0.0000
      7 N4        -6.2265    3.9993   22.8611 N.3       1 RES1    0.0000
      8 C1        -6.0115    4.1362   24.1573 C.2       1 RES1    0.0000
      9 C2        -4.4943    2.3321   23.9131 C.3       1 RES1    0.0000
     10 H1        -3.7756    2.7785   23.4412 H         1 RES1    0.0000
     11 H2        -4.1108    1.6240   24.4532 H         1 RES1    0.0000
     12 C3        -5.8415    2.7785   22.1241 C.3       1 RES1    0.0000
     13 H3        -6.6021    2.4570   21.6142 H         1 RES1    0.0000
     14 H4        -5.1298    2.9904   21.5004 H         1 RES1    0.0000
     15 C4        -6.9202    5.0242   22.0765 C.3       1 RES1    0.0000
     16 H5        -6.6389    4.9698   21.1589 H         1 RES1    0.0000
     17 H6        -6.7077    5.8924   22.4262 H         1 RES1    0.0000
     18 H7        -7.8677    4.8808   22.1309 H         1 RES1    0.0000
     19 C5        -4.9927    3.1631   26.2157 C.3       1 RES1    0.0000
     20 H8        -5.2661    2.2803   26.5109 H         1 RES1    0.0000
     21 H9        -5.5441    3.8173   26.6740 H         1 RES1    0.0000
     22 C6        -3.5553    3.3862   26.5682 C.2       1 RES1    0.0000
     23 H10       -3.1723    4.1680   26.2433 H         1 RES1    0.0000
     24 C7        -2.7710    2.6118   27.2811 C.2       1 RES1    0.0000
     25 C8        -1.3233    3.0010   27.5205 C.3       1 RES1    0.0000
     26 H11       -0.7520    2.2604   27.2645 H         1 RES1    0.0000
     27 H12       -1.1018    3.7556   26.9539 H         1 RES1    0.0000
     28 C9        -1.0337    3.3690   28.9630 C.3       1 RES1    0.0000
     29 H13       -1.5499    4.1541   29.2023 H         1 RES1    0.0000
     30 H14       -1.3094    2.6410   29.5407 H         1 RES1    0.0000
     31 C10        0.4338    3.6506   29.1787 C.2       1 RES1    0.0000
     32 H15        0.9971    2.9113   29.1685 H         1 RES1    0.0000
     33 C11        1.0100    4.8097   29.3795 C.2       1 RES1    0.0000
     34 C12        2.5043    4.9087   29.5588 C.3       1 RES1    0.0000
     35 H16        2.8530    5.5829   28.9716 H         1 RES1    0.0000
     36 H17        2.9083    4.0631   29.3500 H         1 RES1    0.0000
     37 H18        2.7025    5.1438   30.4696 H         1 RES1    0.0000
     38 C13        0.3053    6.1249   29.4616 C.3       1 RES1    0.0000
     39 H19        0.5283    6.5560   30.2912 H         1 RES1    0.0000
     40 H20       -0.6428    5.9827   29.4207 H         1 RES1    0.0000
     41 H21        0.5794    6.6808   28.7287 H         1 RES1    0.0000
     42 C14       -3.2130    1.3298   27.9043 C.3       1 RES1    0.0000
     43 H22       -2.5590    0.6476   27.7321 H         1 RES1    0.0000
     44 H23       -4.0564    1.0661   27.5291 H         1 RES1    0.0000
     45 H24       -3.3073    1.4500   28.8517 H         1 RES1    0.0000
@<TRIPOS>BOND
     1    1    4 2
     2    2    4 2
     3    3    9 1
     4    4    5 1
     5    5    8 2
     6    6    8 1
     7    7    8 1
     8    9    6 1
     9   10    9 1
    10   11    9 1
    11   12    3 1
    12   13   12 1
    13   14   12 1
    14   15    7 1
    15   16   15 1
    16   17   15 1
    17   18   15 1
    18   19    6 1
    19   20   19 1
    20   21   19 1
    21   22   19 1
    22   23   22 1
    23   24   22 2
    24   25   24 1
    25   26   25 1
    26   27   25 1
    27   28   25 1
    28   29   28 1
    29   30   28 1
    30   31   28 1
    31   32   31 1
    32   33   31 2
    33   34   33 1
    34   35   34 1
    35   36   34 1
    36   37   34 1
    37   38   33 1
    38   39   38 1
    39   40   38 1
    40   41   38 1
    41   42   24 1
    42   43   42 1
    43   44   42 1
    44   45   42 1
    45    7   12 1
@<TRIPOS>SUBSTRUCTURE
     1 RES1 1

@<TRIPOS>CRYSIN
   7.9318    6.6423   31.1910  90.0000  99.5500  90.0000  14 1

