# MOL2 file generated by ConQuest
# Please check atom types

@<TRIPOS>MOLECULE
ROBCOC
   144   148     2
SMALL
NO_CHARGES
****
Generated from CSD

@<TRIPOS>ATOM
      1 O1        12.7094   11.7328   24.5619 O.3       1 RES1    0.0000
      2 O2        20.6456   14.8808   25.9846 O.3       1 RES1    0.0000
      3 O3        15.2533   14.5322   22.2108 O.2       1 RES1    0.0000
      4 O4        15.8848   16.5354   21.7078 O.2       1 RES1    0.0000
      5 O5        19.9089   17.4381   19.4463 O.2       1 RES1    0.0000
      6 O6        20.9325   15.8689   18.3539 O.2       1 RES1    0.0000
      7 N1        16.5752   11.1581   20.7235 N.2       1 RES1    0.0000
      8 N2        16.3750   12.4765   21.0363 N.3       1 RES1    0.0000
      9 N3        16.0345   15.3201   21.6485 N.pl3     1 RES1    0.0000
     10 N4        20.0361   16.2630   19.1020 N.pl3     1 RES1    0.0000
     11 C1        11.0301    9.5715   25.1823 C.3       1 RES1    0.0000
     12 C2        12.4882    9.3619   24.7566 C.3       1 RES1    0.0000
     13 C3        12.8855   10.5281   23.8303 C.3       1 RES1    0.0000
     14 C4        14.3254   10.3906   23.2393 C.3       1 RES1    0.0000
     15 C5        14.3374   10.6558   21.7074 C.3       1 RES1    0.0000
     16 C6        15.6524   10.3160   21.0537 C.2       1 RES1    0.0000
     17 C7        15.9486    8.8980   20.7126 C.ar      1 RES1    0.0000
     18 C8        17.1166    8.5673   20.0198 C.ar      1 RES1    0.0000
     19 C9        17.3896    7.2513   19.6933 C.ar      1 RES1    0.0000
     20 C10       16.5151    6.2404   20.0593 C.ar      1 RES1    0.0000
     21 C11       15.3561    6.5507   20.7396 C.ar      1 RES1    0.0000
     22 C12       15.0695    7.8699   21.0565 C.ar      1 RES1    0.0000
     23 C13       12.5766    8.0362   23.9939 C.3       1 RES1    0.0000
     24 C14       13.3858    9.3130   25.9907 C.3       1 RES1    0.0000
     25 C15       12.4765   12.8758   23.7479 C.3       1 RES1    0.0000
     26 C16       15.3321   11.2192   23.9065 C.1       1 RES1    0.0000
     27 C17       16.2297   11.8744   24.3485 C.1       1 RES1    0.0000
     28 C18       17.3372   12.6650   24.8149 C.ar      1 RES1    0.0000
     29 C19       17.1695   13.9906   25.1930 C.ar      1 RES1    0.0000
     30 C20       18.2483   14.7671   25.5898 C.ar      1 RES1    0.0000
     31 C21       19.5184   14.2125   25.6095 C.ar      1 RES1    0.0000
     32 C22       19.7015   12.8832   25.2498 C.ar      1 RES1    0.0000
     33 C23       18.6272   12.1197   24.8615 C.ar      1 RES1    0.0000
     34 C24       20.4978   16.2548   26.3527 C.3       1 RES1    0.0000
     35 C25       17.2457   13.4019   20.5686 C.ar      1 RES1    0.0000
     36 C26       17.1387   14.7844   20.8795 C.ar      1 RES1    0.0000
     37 C27       18.0611   15.7082   20.4105 C.ar      1 RES1    0.0000
     38 C28       19.0850   15.2834   19.6034 C.ar      1 RES1    0.0000
     39 C29       19.2059   13.9402   19.2356 C.ar      1 RES1    0.0000
     40 C30       18.3064   13.0265   19.7054 C.ar      1 RES1    0.0000
     41 H1        10.4621    9.6249   24.3863 H         1 RES1    0.0000
     42 H2        10.9554   10.4038   25.6929 H         1 RES1    0.0000
     43 H3        10.7410    8.8187   25.7392 H         1 RES1    0.0000
     44 H4        15.7929   12.7548   21.6452 H         1 RES1    0.0000
     45 H5        12.2428   10.5409   23.0648 H         1 RES1    0.0000
     46 H6        14.6018    9.4386   23.3702 H         1 RES1    0.0000
     47 H7        13.6203   10.1206   21.2843 H         1 RES1    0.0000
     48 H8        14.1355   11.6119   21.5453 H         1 RES1    0.0000
     49 H9        17.7271    9.2511   19.7722 H         1 RES1    0.0000
     50 H10       18.1826    7.0385   19.2151 H         1 RES1    0.0000
     51 H11       16.7131    5.3375   19.8425 H         1 RES1    0.0000
     52 H12       14.7545    5.8599   20.9919 H         1 RES1    0.0000
     53 H13       14.2627    8.0765   21.5138 H         1 RES1    0.0000
     54 H14       12.1053    8.1193   23.1388 H         1 RES1    0.0000
     55 H15       12.1643    7.3252   24.5269 H         1 RES1    0.0000
     56 H16       13.5171    7.8174   23.8292 H         1 RES1    0.0000
     57 H17       14.3163    9.1839   25.7133 H         1 RES1    0.0000
     58 H18       13.1102    8.5692   26.5665 H         1 RES1    0.0000
     59 H19       13.3062   10.1542   26.4851 H         1 RES1    0.0000
     60 H20       13.2976   13.1061   23.2647 H         1 RES1    0.0000
     61 H21       12.2072   13.6296   24.3122 H         1 RES1    0.0000
     62 H22       11.7638   12.6792   23.1055 H         1 RES1    0.0000
     63 H23       16.3002   14.3725   25.1803 H         1 RES1    0.0000
     64 H24       18.1177   15.6731   25.8465 H         1 RES1    0.0000
     65 H25       20.5712   12.5021   25.2728 H         1 RES1    0.0000
     66 H26       18.7605   11.2100   24.6213 H         1 RES1    0.0000
     67 H27       20.1674   16.7656   25.5837 H         1 RES1    0.0000
     68 H28       21.3660   16.6131   26.6331 H         1 RES1    0.0000
     69 H29       19.8595   16.3277   27.0921 H         1 RES1    0.0000
     70 H30       17.9845   16.6248   20.6458 H         1 RES1    0.0000
     71 H31       19.9107   13.6649   18.6617 H         1 RES1    0.0000
     72 H32       18.3940   12.1167   19.4483 H         1 RES1    0.0000
     73 O7        15.4028    6.1110   12.4484 O.3       2 RES2    0.0000
     74 O8         7.4026    8.2786   10.1456 O.3       2 RES2    0.0000
     75 O9        13.6288    8.1209   14.1393 O.2       2 RES2    0.0000
     76 O10       13.2040   10.1763   14.6501 O.2       2 RES2    0.0000
     77 O11        9.5973   11.4743   17.3267 O.2       2 RES2    0.0000
     78 O12        8.1749   10.0113   18.0678 O.2       2 RES2    0.0000
     79 N5        11.9968    4.8783   15.5808 N.2       2 RES2    0.0000
     80 N6        12.2775    6.1833   15.2599 N.3       2 RES2    0.0000
     81 N7        12.9492    8.9806   14.7193 N.pl3     2 RES2    0.0000
     82 N8         9.2109   10.3134   17.4755 N.pl3     2 RES2    0.0000
     83 C31       15.8186    2.7379   10.8098 C.3       2 RES2    0.0000
     84 C32       15.7424    4.2633   10.8729 C.3       2 RES2    0.0000
     85 C33       15.3958    4.6915   12.3149 C.3       2 RES2    0.0000
     86 C34       14.0419    4.1952   12.8794 C.3       2 RES2    0.0000
     87 C35       14.1152    4.2872   14.4243 C.3       2 RES2    0.0000
     88 C36       12.8405    3.9853   15.1694 C.2       2 RES2    0.0000
     89 C37       12.5112    2.5812   15.5235 C.ar      2 RES2    0.0000
     90 C38       11.4437    2.2842   16.3785 C.ar      2 RES2    0.0000
     91 C39       11.1501    0.9765   16.7165 C.ar      2 RES2    0.0000
     92 C40       11.9007   -0.0657   16.1985 C.ar      2 RES2    0.0000
     93 C41       12.9501    0.2041   15.3391 C.ar      2 RES2    0.0000
     94 C42       13.2612    1.5158   15.0143 C.ar      2 RES2    0.0000
     95 C43       14.7270    4.7734    9.8532 C.3       2 RES2    0.0000
     96 C44       17.1223    4.8455   10.5405 C.3       2 RES2    0.0000
     97 C45       16.4613    6.6534   13.2316 C.3       2 RES2    0.0000
     98 C46       12.8904    4.9443   12.3551 C.1       2 RES2    0.0000
     99 C47       11.9356    5.5417   11.9564 C.1       2 RES2    0.0000
    100 C48       10.7839    6.2503   11.4602 C.ar      2 RES2    0.0000
    101 C49       10.4547    6.2232   10.1089 C.ar      2 RES2    0.0000
    102 C50        9.3352    6.8867    9.6262 C.ar      2 RES2    0.0000
    103 C51        8.5309    7.5933   10.5063 C.ar      2 RES2    0.0000
    104 C52        8.8478    7.6389   11.8568 C.ar      2 RES2    0.0000
    105 C53        9.9614    6.9736   12.3279 C.ar      2 RES2    0.0000
    106 C54        7.0479    8.2675    8.7599 C.3       2 RES2    0.0000
    107 C55       11.5458    7.1799   15.7974 C.ar      2 RES2    0.0000
    108 C56       11.8228    8.5514   15.5355 C.ar      2 RES2    0.0000
    109 C57       11.0624    9.5614   16.0976 C.ar      2 RES2    0.0000
    110 C58       10.0112    9.2386   16.9134 C.ar      2 RES2    0.0000
    111 C59        9.7040    7.9070   17.2068 C.ar      2 RES2    0.0000
    112 C60       10.4607    6.9070   16.6673 C.ar      2 RES2    0.0000
    113 H33       12.9069    6.4160   14.7065 H         2 RES2    0.0000
    114 H34       16.2019    2.4649    9.9499 H         2 RES2    0.0000
    115 H35       14.9185    2.3622   10.8994 H         2 RES2    0.0000
    116 H36       16.3847    2.4088   11.5398 H         2 RES2    0.0000
    117 H37       16.1151    4.3345   12.9112 H         2 RES2    0.0000
    118 H38       13.9314    3.2334   12.6281 H         2 RES2    0.0000
    119 H39       14.8139    3.6611   14.7398 H         2 RES2    0.0000
    120 H40       14.4068    5.2021   14.6677 H         2 RES2    0.0000
    121 H41       10.9148    2.9905   16.7313 H         2 RES2    0.0000
    122 H42       10.4290    0.7911   17.3069 H         2 RES2    0.0000
    123 H43       11.6953   -0.9630   16.4333 H         2 RES2    0.0000
    124 H44       13.4580   -0.5096   14.9712 H         2 RES2    0.0000
    125 H45       13.9943    1.6928   14.4363 H         2 RES2    0.0000
    126 H46       15.0210    4.5312    8.9505 H         2 RES2    0.0000
    127 H47       14.6554    5.7483    9.9222 H         2 RES2    0.0000
    128 H48       13.8525    4.3683   10.0314 H         2 RES2    0.0000
    129 H49       17.4044    4.5307    9.6557 H         2 RES2    0.0000
    130 H50       17.7711    4.5532   11.2141 H         2 RES2    0.0000
    131 H51       17.0722    5.8236   10.5385 H         2 RES2    0.0000
    132 H52       17.3157    6.4974   12.7780 H         2 RES2    0.0000
    133 H53       16.4730    6.2198   14.1106 H         2 RES2    0.0000
    134 H54       16.3226    7.6170   13.3462 H         2 RES2    0.0000
    135 H55       11.0069    5.7413    9.5039 H         2 RES2    0.0000
    136 H56        9.1221    6.8565    8.7007 H         2 RES2    0.0000
    137 H57        8.2984    8.1287   12.4578 H         2 RES2    0.0000
    138 H58       10.1719    7.0072   13.2536 H         2 RES2    0.0000
    139 H59        7.7676    8.6779    8.2361 H         2 RES2    0.0000
    140 H60        6.2194    8.7738    8.6303 H         2 RES2    0.0000
    141 H61        6.9143    7.3419    8.4637 H         2 RES2    0.0000
    142 H62       11.2684   10.4713   15.9188 H         2 RES2    0.0000
    143 H63        8.9737    7.6984   17.7770 H         2 RES2    0.0000
    144 H64       10.2547    6.0044   16.8812 H         2 RES2    0.0000
@<TRIPOS>BOND
     1    1   13 1
     2    2   31 1
     3    3    9 2
     4    4    9 2
     5    5   10 2
     6    6   10 2
     7    7    8 1
     8    8   35 1
     9    9   36 1
    10   10   38 1
    11   11   12 1
    12   12   13 1
    13   13   14 1
    14   14   15 1
    15   15   16 1
    16   16    7 2
    17   17   16 1
    18   18   17 ar
    19   19   18 ar
    20   20   19 ar
    21   21   20 ar
    22   22   17 ar
    23   23   12 1
    24   24   12 1
    25   25    1 1
    26   26   14 1
    27   27   26 3
    28   28   27 1
    29   29   28 ar
    30   30   29 ar
    31   31   30 ar
    32   32   31 ar
    33   33   28 ar
    34   34    2 1
    35   35   36 ar
    36   36   37 ar
    37   37   38 ar
    38   38   39 ar
    39   39   40 ar
    40   40   35 ar
    41   41   11 1
    42   42   11 1
    43   43   11 1
    44   44    8 1
    45   45   13 1
    46   46   14 1
    47   47   15 1
    48   48   15 1
    49   49   18 1
    50   50   19 1
    51   51   20 1
    52   52   21 1
    53   53   22 1
    54   54   23 1
    55   55   23 1
    56   56   23 1
    57   57   24 1
    58   58   24 1
    59   59   24 1
    60   60   25 1
    61   61   25 1
    62   62   25 1
    63   63   29 1
    64   64   30 1
    65   65   32 1
    66   66   33 1
    67   67   34 1
    68   68   34 1
    69   69   34 1
    70   70   37 1
    71   71   39 1
    72   72   40 1
    73   73   85 1
    74   74  103 1
    75   75   81 2
    76   76   81 2
    77   77   82 2
    78   78   82 2
    79   79   80 1
    80   80  107 1
    81   81  108 1
    82   82  110 1
    83   83   84 1
    84   84   85 1
    85   85   86 1
    86   86   87 1
    87   87   88 1
    88   88   79 2
    89   89   88 1
    90   90   89 ar
    91   91   90 ar
    92   92   91 ar
    93   93   92 ar
    94   94   89 ar
    95   95   84 1
    96   96   84 1
    97   97   73 1
    98   98   86 1
    99   99   98 3
   100  100   99 1
   101  101  100 ar
   102  102  101 ar
   103  103  102 ar
   104  104  103 ar
   105  105  100 ar
   106  106   74 1
   107  107  108 ar
   108  108  109 ar
   109  109  110 ar
   110  110  111 ar
   111  111  112 ar
   112  112  107 ar
   113  113   80 1
   114  114   83 1
   115  115   83 1
   116  116   83 1
   117  117   85 1
   118  118   86 1
   119  119   87 1
   120  120   87 1
   121  121   90 1
   122  122   91 1
   123  123   92 1
   124  124   93 1
   125  125   94 1
   126  126   95 1
   127  127   95 1
   128  128   95 1
   129  129   96 1
   130  130   96 1
   131  131   96 1
   132  132   97 1
   133  133   97 1
   134  134   97 1
   135  135  101 1
   136  136  102 1
   137  137  104 1
   138  138  105 1
   139  139  106 1
   140  140  106 1
   141  141  106 1
   142  142  109 1
   143  143  111 1
   144  144  112 1
   145   21   22 ar
   146   32   33 ar
   147   93   94 ar
   148  104  105 ar
@<TRIPOS>SUBSTRUCTURE
     1 RES1 1
     2 RES2 73

@<TRIPOS>CRYSIN
  11.2246   13.3972   20.0794  72.7260  74.4750  86.3830   2 1

