# MOL2 file generated by ConQuest
# Please check atom types

@<TRIPOS>MOLECULE
ROBQUW
    50    33     2
SMALL
NO_CHARGES
****
Generated from CSD

@<TRIPOS>ATOM
      1 O1         7.2387    1.4777    7.2865 O.3       1 RES1    0.0000
      2 O2         8.6139    1.4762    4.8545 O.2       1 RES1    0.0000
      3 O3         4.7218    0.3414    6.9044 O.2       1 RES1    0.0000
      4 N1         6.7787    0.9226    6.1106 N.am      1 RES1    0.0000
      5 O4         6.0634    3.3548    6.7749 O.2       1 RES1    0.0000
      6 C1         6.7696    2.7645    7.5198 C.2       1 RES1    0.0000
      7 O5         7.3025    3.1303    8.6637 O.3       1 RES1    0.0000
      8 C2         7.0314    4.5079    9.0614 C.3       1 RES1    0.0000
      9 H1         7.0507    5.0854    8.2567 H         1 RES1    0.0000
     10 H2         7.7485    4.8150    9.6710 H         1 RES1    0.0000
     11 C3         5.7132    4.6664    9.7430 C.3       1 RES1    0.0000
     12 H3         4.9416    4.4321    9.1515 H         1 RES1    0.0000
     13 C4         5.5758    6.0831   10.3856 C.3       1 RES1    0.0000
     14 H4         6.3600    6.6686   10.2341 H         1 RES1    0.0000
     15 H5         4.7332    6.5487   10.1512 H         1 RES1    0.0000
     16 C5         5.5544    5.4261   11.7626 C.3       1 RES1    0.0000
     17 C6         5.6071    4.0234   11.1621 C.3       1 RES1    0.0000
     18 H6         4.7799    3.4973   11.3014 H         1 RES1    0.0000
     19 H7         6.4078    3.5047   11.4280 H         1 RES1    0.0000
     20 C7         4.8730    5.8696   12.9994 C.2       1 RES1    0.0000
     21 H8         4.0528    6.0171   13.4556 H         1 RES1    0.0000
     22 C8         6.1399    5.9186   13.0341 C.2       1 RES1    0.0000
     23 H9         6.9232    6.1260   13.5298 H         1 RES1    0.0000
     24 C9         7.5517    0.9256    4.9588 C.2       1 RES1    0.0000
     25 C10        6.7820    0.1187    3.9660 C.3       1 RES1    0.0000
     26 H10        7.2743   -0.7096    3.7366 H         1 RES1    0.0000
     27 H11        6.6349    0.6387    3.1364 H         1 RES1    0.0000
     28 C11        5.4456   -0.2184    4.6277 C.3       1 RES1    0.0000
     29 H12        4.6956    0.1945    4.1294 H         1 RES1    0.0000
     30 H13        5.3073   -1.1984    4.6554 H         1 RES1    0.0000
     31 C12        5.5276    0.3407    6.0137 C.2       1 RES1    0.0000
     32 O6         5.9459    3.2116    6.4168 Du        2 SUP2    0.0000
     33 C13        6.6733    2.7528    7.2636 Du        2 SUP2    0.0000
     34 O7         6.9253    3.1260    8.4706 Du        2 SUP2    0.0000
     35 C14        6.4666    4.5287    8.7216 Du        2 SUP2    0.0000
     36 H14        6.9100    5.1515    8.0908 Du        2 SUP2    0.0000
     37 H15        5.4870    4.5972    8.5928 Du        2 SUP2    0.0000
     38 C15        6.8287    4.8695   10.1228 Du        2 SUP2    0.0000
     39 H16        7.8169    4.8150   10.2581 Du        2 SUP2    0.0000
     40 C16        6.2890    6.2397   10.5702 Du        2 SUP2    0.0000
     41 H17        6.9820    6.9414   10.6575 Du        2 SUP2    0.0000
     42 H18        5.5123    6.5621   10.0464 Du        2 SUP2    0.0000
     43 C17        5.9141    5.5546   11.8972 Du        2 SUP2    0.0000
     44 C18        6.1058    4.1598   11.2097 Du        2 SUP2    0.0000
     45 H19        6.6686    3.5273   11.7248 Du        2 SUP2    0.0000
     46 H20        5.2609    3.7304   10.9216 Du        2 SUP2    0.0000
     47 C19        5.0516    6.0929   12.9732 Du        2 SUP2    0.0000
     48 H21        4.1856    6.3768   13.2417 Du        2 SUP2    0.0000
     49 C20        6.2641    5.9155   13.2897 Du        2 SUP2    0.0000
     50 H22        6.9371    5.9736   13.9598 Du        2 SUP2    0.0000
@<TRIPOS>BOND
     1    1    4 1
     2    2   24 2
     3    3   31 2
     4    4   24 1
     5    5    6 2
     6    6    1 1
     7    7    6 1
     8    8    7 1
     9    9    8 1
    10   10    8 1
    11   11    8 1
    12   12   11 1
    13   13   11 1
    14   14   13 1
    15   15   13 1
    16   16   13 1
    17   17   11 1
    18   18   17 1
    19   19   17 1
    20   20   16 1
    21   21   20 1
    22   22   16 1
    23   23   22 1
    24   24   25 1
    25   25   26 1
    26   27   25 1
    27   28   25 1
    28   29   28 1
    29   30   28 1
    30   31    4 1
    31   16   17 1
    32   20   22 2
    33   28   31 1
@<TRIPOS>SUBSTRUCTURE
     1 RES1 1
     2 SUP2 32

