# MOL2 file generated by ConQuest
# Please check atom types

@<TRIPOS>MOLECULE
ROBXEN
   118    84     3
SMALL
NO_CHARGES
****
Generated from CSD

@<TRIPOS>ATOM
      1 O1         7.9917    4.5494   24.9281 O.2       1 RES1    0.0000
      2 O2         9.4773    6.1335   24.8872 O.2       1 RES1    0.0000
      3 N1         8.7138    5.3535   24.3122 N.pl3     1 RES1    0.0000
      4 N2         8.4919    5.5897   18.7007 N.2       1 RES1    0.0000
      5 N3         7.5756    4.9153   18.1184 N.2       1 RES1    0.0000
      6 N4         7.5780    4.9153   12.5138 N.3       1 RES1    0.0000
      7 C1         8.6392    5.3814   22.8604 C.ar      1 RES1    0.0000
      8 C2         7.6829    4.5999   22.2098 C.ar      1 RES1    0.0000
      9 H1         7.0975    4.0452   22.7107 H         1 RES1    0.0000
     10 C3         7.5960    4.6388   20.8433 C.ar      1 RES1    0.0000
     11 H2         6.9424    4.1198   20.3914 H         1 RES1    0.0000
     12 C4         8.4862    5.4584   20.1147 C.ar      1 RES1    0.0000
     13 C5         9.4371    6.2251   20.7900 C.ar      1 RES1    0.0000
     14 H3        10.0302    6.7822   20.2987 H         1 RES1    0.0000
     15 C6         9.5211    6.1785   22.1557 C.ar      1 RES1    0.0000
     16 H4        10.1784    6.6882   22.6142 H         1 RES1    0.0000
     17 C7         7.5964    5.0023   16.7144 C.ar      1 RES1    0.0000
     18 C8         6.6676    4.2348   16.0221 C.ar      1 RES1    0.0000
     19 H5         6.0369    3.7197   16.5130 H         1 RES1    0.0000
     20 C9         6.6371    4.1998   14.6413 C.ar      1 RES1    0.0000
     21 H6         5.9881    3.6638   14.2014 H         1 RES1    0.0000
     22 C10        7.5575    4.9495   13.8780 C.ar      1 RES1    0.0000
     23 C11        8.4915    5.7404   14.6082 C.ar      1 RES1    0.0000
     24 H7         9.1153    6.2741   14.1319 H         1 RES1    0.0000
     25 C12        8.5189    5.7536   15.9685 C.ar      1 RES1    0.0000
     26 H8         9.1704    6.2780   16.4204 H         1 RES1    0.0000
     27 C13        6.5408    4.2223   11.7366 C.3       1 RES1    0.0000
     28 H9         6.4506    4.6706   10.8594 H         1 RES1    0.0000
     29 H10        5.6765    4.3156   12.2101 H         1 RES1    0.0000
     30 C14        8.6388    5.5461   11.7239 C.3       1 RES1    0.0000
     31 H11        8.7505    5.0575   10.8710 H         1 RES1    0.0000
     32 H12        9.4943    5.4964   12.2178 H         1 RES1    0.0000
     33 O3         8.0577    2.5132   10.8803 O.3       1 RES1    0.0000
     34 H13        8.1524    1.6913   10.7321 H         1 RES1    0.0000
     35 C15        6.8104    2.7369   11.5004 C.3       1 RES1    0.0000
     36 H14        6.7884    2.2615   12.3683 H         1 RES1    0.0000
     37 H15        6.0918    2.3633   10.9289 H         1 RES1    0.0000
     38 C16        8.2990    7.0144   11.4333 C.3       1 RES1    0.0000
     39 H16        9.0188    7.4177   10.9058 H         1 RES1    0.0000
     40 H17        8.2019    7.5000   12.2796 H         1 RES1    0.0000
     41 H18        7.4581    7.0618   10.9328 H         1 RES1    0.0000
     42 O4         9.3457    7.5427   10.6831 Du        3 SUP3    0.0000
     43 H19        9.1526    8.3243   10.4427 Du        3 SUP3    0.0000
     44 C17        6.7919    2.7408   11.4846 Du        3 SUP3    0.0000
     45 H20        6.0111    2.3477   11.0408 Du        3 SUP3    0.0000
     46 H21        6.9493    2.2864   12.3375 Du        3 SUP3    0.0000
     47 H22        7.5791    2.6367   10.9096 Du        3 SUP3    0.0000
     48 C18        8.2746    7.0012   11.4344 Du        3 SUP3    0.0000
     49 H23        7.4327    7.0494   10.9135 Du        3 SUP3    0.0000
     50 H24        8.1564    7.5031   12.2757 Du        3 SUP3    0.0000
     51 O5         5.8604    2.2025   24.4673 O.2       2 RES2    0.0000
     52 O6         7.0234    0.4024   24.0930 O.2       2 RES2    0.0000
     53 N5         6.2749    1.3160   23.7113 N.pl3     2 RES2    0.0000
     54 N6         4.7343    1.6462   18.3017 N.2       2 RES2    0.0000
     55 N7         5.3289    0.8616   17.4758 N.2       2 RES2    0.0000
     56 N8         3.5987    0.9237   12.1430 N.3       2 RES2    0.0000
     57 C19        5.8615    1.3518   22.3155 C.ar      2 RES2    0.0000
     58 C20        6.4158    0.4382   21.4206 C.ar      2 RES2    0.0000
     59 H25        7.0261   -0.2237   21.7227 H         2 RES2    0.0000
     60 C21        6.0646    0.5081   20.0811 C.ar      2 RES2    0.0000
     61 H26        6.4430   -0.1002   19.4575 H         2 RES2    0.0000
     62 C22        5.1443    1.4823   19.6450 C.ar      2 RES2    0.0000
     63 C23        4.5598    2.3306   20.5727 C.ar      2 RES2    0.0000
     64 H27        3.9071    2.9591   20.2872 H         2 RES2    0.0000
     65 C24        4.9143    2.2755   21.9088 C.ar      2 RES2    0.0000
     66 H28        4.5124    2.8636   22.5370 H         2 RES2    0.0000
     67 C25        4.8968    0.9680   16.1491 C.ar      2 RES2    0.0000
     68 C26        5.4765    0.1165   15.2136 C.ar      2 RES2    0.0000
     69 H29        6.1640   -0.4755   15.4942 H         2 RES2    0.0000
     70 C27        5.0884    0.1041   13.9008 C.ar      2 RES2    0.0000
     71 H30        5.5240   -0.4786   13.2907 H         2 RES2    0.0000
     72 C28        4.0426    0.9509   13.4373 C.ar      2 RES2    0.0000
     73 C29        3.4654    1.8373   14.4017 C.ar      2 RES2    0.0000
     74 H31        2.7847    2.4410   14.1281 H         2 RES2    0.0000
     75 C30        3.8684    1.8342   15.7026 C.ar      2 RES2    0.0000
     76 H32        3.4538    2.4239   16.3200 H         2 RES2    0.0000
     77 C31        2.3550    1.5980   11.7389 C.3       2 RES2    0.0000
     78 H33        1.7084    1.5701   12.4880 H         2 RES2    0.0000
     79 H34        1.9558    1.1172   10.9714 H         2 RES2    0.0000
     80 C32        4.1799    0.0598   11.1172 C.3       2 RES2    0.0000
     81 H35        5.1507   -0.0078   11.2955 H         2 RES2    0.0000
     82 H36        4.0743    0.5158   10.2458 H         2 RES2    0.0000
     83 O7         3.4421    3.1394   10.1999 O.3       2 RES2    0.0000
     84 H37        3.5563    3.9481   10.0066 H         2 RES2    0.0000
     85 C33        2.6110    3.0415   11.3492 C.3       2 RES2    0.0000
     86 H38        1.7472    3.4890   11.1643 H         2 RES2    0.0000
     87 H39        3.0432    3.5123   12.1059 H         2 RES2    0.0000
     88 C34        3.6352   -1.3595   10.9675 C.3       2 RES2    0.0000
     89 H40        4.1186   -1.8218   10.2536 H         2 RES2    0.0000
     90 H41        2.6809   -1.3215   10.7437 H         2 RES2    0.0000
     91 H42        3.7545   -1.8459   11.8088 H         2 RES2    0.0000
     92 O8         1.1159    3.4851   11.1605 Du        3 SUP3    0.0000
     93 H43        0.7891    3.0096   10.5507 Du        3 SUP3    0.0000
     94 C35        2.4536    3.0772   11.4113 Du        3 SUP3    0.0000
     95 H44        2.8347    3.5799   12.1754 Du        3 SUP3    0.0000
     96 H45        3.0223    3.2241   10.6163 Du        3 SUP3    0.0000
     97 C36        3.5829   -1.3432   11.1605 Du        3 SUP3    0.0000
     98 H46        3.9690   -1.8847   10.4427 Du        3 SUP3    0.0000
     99 H47        2.6120   -1.2888   11.0447 Du        3 SUP3    0.0000
    100 H48        3.7863   -1.7573   12.0249 Du        3 SUP3    0.0000
    101 O9         4.1952   -1.9539   10.0000 Du        3 SUP3    0.0000
    102 H49        3.9120   -2.7401    9.9178 Du        3 SUP3    0.0000
    103 C37        2.5847    3.0524   11.3688 Du        3 SUP3    0.0000
    104 H50        1.7370    3.4532   11.0833 Du        3 SUP3    0.0000
    105 H51        3.2353    3.1044   10.6395 Du        3 SUP3    0.0000
    106 H52        2.9274    3.5371   12.1484 Du        3 SUP3    0.0000
    107 C38        3.5952   -1.3502   11.1373 Du        3 SUP3    0.0000
    108 H53        3.8410   -1.8280   11.9670 Du        3 SUP3    0.0000
    109 H54        2.6086   -1.3308   11.0524 Du        3 SUP3    0.0000
    110 O10        2.1638   -1.4598   11.2183 Du        3 SUP3    0.0000
    111 H55        1.9521   -2.2708   11.2685 Du        3 SUP3    0.0000
    112 C39        2.5763    3.0493   11.3534 Du        3 SUP3    0.0000
    113 H56        1.7240    3.4478   11.0794 Du        3 SUP3    0.0000
    114 H57        3.2125    3.0959   10.6086 Du        3 SUP3    0.0000
    115 H58        2.9348    3.5410   12.1214 Du        3 SUP3    0.0000
    116 C40        3.5773   -1.3347   11.2724 Du        3 SUP3    0.0000
    117 H59        3.9579   -1.9088   10.5623 Du        3 SUP3    0.0000
    118 H60        3.8822   -1.7021   12.1368 Du        3 SUP3    0.0000
@<TRIPOS>BOND
     1    1    3 2
     2    2    3 2
     3    3    7 1
     4    4    5 2
     5    5   17 1
     6    6   22 1
     7    7    8 ar
     8    8    9 1
     9   10    8 ar
    10   11   10 1
    11   12    4 1
    12   13   12 ar
    13   14   13 1
    14   15    7 ar
    15   16   15 1
    16   17   18 ar
    17   18   19 1
    18   20   18 ar
    19   21   20 1
    20   22   20 ar
    21   23   22 ar
    22   24   23 1
    23   25   17 ar
    24   26   25 1
    25   27    6 1
    26   28   27 1
    27   29   27 1
    28   30    6 1
    29   31   30 1
    30   32   30 1
    31   33   34 1
    32   35   27 1
    33   36   35 1
    34   37   35 1
    35   38   30 1
    36   39   38 1
    37   40   38 1
    38   41   38 1
    39   51   53 2
    40   52   53 2
    41   53   57 1
    42   54   55 2
    43   55   67 1
    44   56   72 1
    45   57   58 ar
    46   58   59 1
    47   60   58 ar
    48   61   60 1
    49   62   54 1
    50   63   62 ar
    51   64   63 1
    52   65   57 ar
    53   66   65 1
    54   67   68 ar
    55   68   69 1
    56   70   68 ar
    57   71   70 1
    58   72   70 ar
    59   73   72 ar
    60   74   73 1
    61   75   67 ar
    62   76   75 1
    63   77   56 1
    64   78   77 1
    65   79   77 1
    66   80   56 1
    67   81   80 1
    68   82   80 1
    69   83   84 1
    70   85   77 1
    71   86   85 1
    72   87   85 1
    73   88   80 1
    74   89   88 1
    75   90   88 1
    76   91   88 1
    77   10   12 ar
    78   13   15 ar
    79   23   25 ar
    80   33   35 1
    81   60   62 ar
    82   63   65 ar
    83   73   75 ar
    84   83   85 1
@<TRIPOS>SUBSTRUCTURE
     1 RES1 1
     2 RES2 51
     3 SUP3 42

@<TRIPOS>CRYSIN
  10.1520    7.7688   38.6390  90.0000  92.8630  90.0000 231 1

