# MOL2 file generated by ConQuest
# Please check atom types

@<TRIPOS>MOLECULE
ROCMOM
    66    70     2
SMALL
NO_CHARGES
****
Generated from CSD

@<TRIPOS>ATOM
      1 O1         8.7055    8.0142    2.5832 O.3       1 RES1    0.0000
      2 O2         8.5259    1.8231    2.5493 O.3       2 RES2    0.0000
      3 O3         7.6327    5.4880    1.2417 O.3       1 RES1    0.0000
      4 O4         6.4740    3.0876    0.4879 O.3       2 RES2    0.0000
      5 O5        10.7056    7.7984    1.7401 O.2       1 RES1    0.0000
      6 O6        10.1483    2.5235    1.2791 O.2       2 RES2    0.0000
      7 N1        10.4137    4.0885    4.0327 N.3       1 RES1    0.0000
      8 N2         7.8739   -0.5733   -1.0046 N.3       2 RES2    0.0000
      9 N3         6.7692    1.6815    0.2888 N.3       2 RES2    0.0000
     10 N4         8.2880    5.2073    2.5025 N.3       1 RES1    0.0000
     11 C1         6.2956    5.4099    3.9627 C.ar      1 RES1    0.0000
     12 C2         4.9012    0.9440    1.7257 C.ar      2 RES2    0.0000
     13 C3         6.3264    4.4804    4.9996 C.ar      1 RES1    0.0000
     14 C4        10.4578    5.3662    3.5555 C.2       1 RES1    0.0000
     15 C5         9.0348    2.0588    1.3436 C.2       2 RES2    0.0000
     16 C6         8.6713    0.2582   -0.2691 C.2       2 RES2    0.0000
     17 C7         9.7166    7.2542    2.1832 C.2       1 RES1    0.0000
     18 C8         4.2107   -0.2039    1.3616 C.ar      2 RES2    0.0000
     19 C9         8.2407    1.6391    0.1076 C.3       2 RES2    0.0000
     20 C10        5.1777    3.9323    5.5144 C.ar      1 RES1    0.0000
     21 C11        9.8454   -0.4277    0.0072 C.2       2 RES2    0.0000
     22 C12        9.6549    5.7382    2.3464 C.3       1 RES1    0.0000
     23 C13       11.2244    6.1089    4.4309 C.2       1 RES1    0.0000
     24 C14        2.8273   -0.2780    1.5266 C.ar      2 RES2    0.0000
     25 C15       11.6396    5.2404    5.4606 C.2       1 RES1    0.0000
     26 C16        3.9364    4.3017    5.0014 C.ar      1 RES1    0.0000
     27 C17        9.7177   -1.7172   -0.5758 C.2       2 RES2    0.0000
     28 C18        2.1246    0.7904    2.0594 C.ar      2 RES2    0.0000
     29 C19        3.8791    5.2073    3.9520 C.ar      1 RES1    0.0000
     30 C20        6.4024    0.9943    1.5463 C.3       2 RES2    0.0000
     31 C21        8.4896   -1.7742   -1.1840 C.2       2 RES2    0.0000
     32 C22        7.5908    6.0268    3.5232 C.3       1 RES1    0.0000
     33 C23       11.1330    4.0064    5.1987 C.2       1 RES1    0.0000
     34 C24        2.7943    1.9317    2.4128 C.ar      2 RES2    0.0000
     35 C25        5.0543    5.7634    3.4335 C.ar      1 RES1    0.0000
     36 C26        7.4466    7.4528    3.0425 C.3       1 RES1    0.0000
     37 C27        7.0919    1.6232    2.7447 C.3       2 RES2    0.0000
     38 C28        4.1853    2.0231    2.2478 C.ar      2 RES2    0.0000
     39 H1         7.3618    4.7174    1.0333 H         1 RES1    0.0000
     40 H2         5.8605    3.2928   -0.0538 H         2 RES2    0.0000
     41 H3         9.9545    3.3656    3.6219 H         1 RES1    0.0000
     42 H4         7.0137   -0.3469   -1.3382 H         2 RES2    0.0000
     43 H5        10.0514    5.3344    1.5822 H         1 RES1    0.0000
     44 H6         8.4676    2.2256   -0.6028 H         2 RES2    0.0000
     45 H7         8.1559    6.0507    4.2874 H         1 RES1    0.0000
     46 H8         6.7108    0.0980    1.4800 H         2 RES2    0.0000
     47 H9         7.1194    7.9837    3.7582 H         1 RES1    0.0000
     48 H10        6.6910    2.4666    2.9151 H         2 RES2    0.0000
     49 H11        6.8254    7.4713    2.3249 H         1 RES1    0.0000
     50 H12        6.9664    1.0566    3.4963 H         2 RES2    0.0000
     51 H13       11.4325    7.0318    4.3538 H         1 RES1    0.0000
     52 H14       10.5911   -0.0980    0.4933 H         2 RES2    0.0000
     53 H15       12.1793    5.4747    6.2051 H         1 RES1    0.0000
     54 H16       10.3642   -2.4123   -0.5489 H         2 RES2    0.0000
     55 H17       11.2541    3.2266    5.7279 H         1 RES1    0.0000
     56 H18        8.1316   -2.5196   -1.6504 H         2 RES2    0.0000
     57 H19        7.1646    4.2183    5.3620 H         1 RES1    0.0000
     58 H20        4.6843   -0.9427    0.9974 H         2 RES2    0.0000
     59 H21        5.2294    3.2994    6.2212 H         1 RES1    0.0000
     60 H22        2.3647   -1.0685    1.2737 H         2 RES2    0.0000
     61 H23        3.1379    3.9376    5.3673 H         1 RES1    0.0000
     62 H24        1.1840    0.7322    2.1778 H         2 RES2    0.0000
     63 H25        3.0377    5.4522    3.5842 H         1 RES1    0.0000
     64 H26        2.3140    2.6679    2.7734 H         2 RES2    0.0000
     65 H27        5.0070    6.3830    2.7160 H         1 RES1    0.0000
     66 H28        4.6402    2.8201    2.4899 H         2 RES2    0.0000
@<TRIPOS>BOND
     1    1   17 1
     2    2   15 1
     3    3   10 1
     4    4    9 1
     5    5   17 2
     6    6   15 2
     7    7   14 1
     8    8   16 1
     9    9   19 1
    10   10   22 1
    11   11   13 ar
    12   12   18 ar
    13   13   20 ar
    14   14   22 1
    15   15   19 1
    16   16   19 1
    17   17   22 1
    18   18   24 ar
    19   19   44 1
    20   20   26 ar
    21   21   16 2
    22   22   43 1
    23   23   14 2
    24   24   28 ar
    25   25   23 1
    26   26   29 ar
    27   27   21 1
    28   28   34 ar
    29   29   35 ar
    30   30    9 1
    31   31    8 1
    32   32   10 1
    33   33    7 1
    34   34   38 ar
    35   35   11 ar
    36   36    1 1
    37   37    2 1
    38   38   12 ar
    39   39    3 1
    40   40    4 1
    41   41    7 1
    42   42    8 1
    43   45   32 1
    44   46   30 1
    45   47   36 1
    46   48   37 1
    47   49   36 1
    48   50   37 1
    49   51   23 1
    50   52   21 1
    51   53   25 1
    52   54   27 1
    53   55   33 1
    54   56   31 1
    55   57   13 1
    56   58   18 1
    57   59   20 1
    58   60   24 1
    59   61   26 1
    60   62   28 1
    61   63   29 1
    62   64   34 1
    63   65   35 1
    64   66   38 1
    65   11   32 1
    66   12   30 1
    67   25   33 2
    68   27   31 2
    69   30   37 1
    70   32   36 1
@<TRIPOS>SUBSTRUCTURE
     1 RES1 1
     2 RES2 2

@<TRIPOS>CRYSIN
  11.0140   13.2400   17.9390  90.0000  90.0000  90.0000  19 1

