# MOL2 file generated by ConQuest
# Please check atom types

@<TRIPOS>MOLECULE
ROCMUS
    33    35     1
SMALL
NO_CHARGES
****
Generated from CSD

@<TRIPOS>ATOM
      1 O1         7.9626   -1.6095    9.3355 O.3       1 RES1    0.0000
      2 O2         4.9224   -1.8226    9.4037 O.3       1 RES1    0.0000
      3 O3         8.0889   -2.7146   11.2059 O.2       1 RES1    0.0000
      4 N1         8.0490    1.5736   12.9118 N.3       1 RES1    0.0000
      5 N2         5.4111   -0.6225   10.0521 N.3       1 RES1    0.0000
      6 C1         5.3396    0.8599    8.0669 C.ar      1 RES1    0.0000
      7 C2         8.0549    0.5442   12.0006 C.2       1 RES1    0.0000
      8 C3         7.4977   -1.8919   10.5575 C.2       1 RES1    0.0000
      9 C4         4.1201    1.3849    8.4809 C.ar      1 RES1    0.0000
     10 C5         6.3218   -1.1179   11.1045 C.3       1 RES1    0.0000
     11 C6         6.7998    0.0167   11.9724 C.2       1 RES1    0.0000
     12 C7         3.3573    2.1909    7.6463 C.ar      1 RES1    0.0000
     13 C8         6.0202    0.7342   12.8785 C.2       1 RES1    0.0000
     14 C9         3.8126    2.4900    6.3827 C.ar      1 RES1    0.0000
     15 C10        6.2079    0.1027    9.0379 C.3       1 RES1    0.0000
     16 C11        6.8159    1.6942   13.4371 C.2       1 RES1    0.0000
     17 C12        5.0112    1.9997    5.9621 C.ar      1 RES1    0.0000
     18 C13        7.1860   -0.8433    8.3729 C.3       1 RES1    0.0000
     19 C14        5.7788    1.1744    6.7801 C.ar      1 RES1    0.0000
     20 H1         4.1011   -1.6904    9.0828 H         1 RES1    0.0000
     21 H2         8.7976    2.1139   13.1345 H         1 RES1    0.0000
     22 H3         5.8235   -1.7083   11.6565 H         1 RES1    0.0000
     23 H4         6.7247    0.7496    9.5067 H         1 RES1    0.0000
     24 H5         7.7820   -0.3363    7.8342 H         1 RES1    0.0000
     25 H6         6.6996   -1.4465    7.8242 H         1 RES1    0.0000
     26 H7         8.7987    0.2528   11.4869 H         1 RES1    0.0000
     27 H8         5.1024    0.5827   13.0730 H         1 RES1    0.0000
     28 H9         6.5459    2.3360   14.0839 H         1 RES1    0.0000
     29 H10        3.8019    1.1885    9.3538 H         1 RES1    0.0000
     30 H11        2.5241    2.5336    7.9472 H         1 RES1    0.0000
     31 H12        3.2929    3.0380    5.8058 H         1 RES1    0.0000
     32 H13        5.3288    2.2230    5.0942 H         1 RES1    0.0000
     33 H14        6.6031    0.8253    6.4625 H         1 RES1    0.0000
@<TRIPOS>BOND
     1    1    8 1
     2    2    5 1
     3    3    8 2
     4    4    7 1
     5    5   10 1
     6    6    9 ar
     7    7   11 2
     8    8   10 1
     9    9   12 ar
    10   10   11 1
    11   11   13 1
    12   12   14 ar
    13   13   16 2
    14   14   17 ar
    15   15    5 1
    16   16    4 1
    17   17   19 ar
    18   18    1 1
    19   19    6 ar
    20   20    2 1
    21   21    4 1
    22   22   10 1
    23   23   15 1
    24   24   18 1
    25   25   18 1
    26   26    7 1
    27   27   13 1
    28   28   16 1
    29   29    9 1
    30   30   12 1
    31   31   14 1
    32   32   17 1
    33   33   19 1
    34    6   15 1
    35   15   18 1
@<TRIPOS>SUBSTRUCTURE
     1 RES1 1

@<TRIPOS>CRYSIN
   5.9600   12.8350   16.6260  90.0000  90.0000  90.0000  19 1

