# MOL2 file generated by ConQuest
# Please check atom types

@<TRIPOS>MOLECULE
ROCPOP
    61    66     1
SMALL
NO_CHARGES
****
Generated from CSD

@<TRIPOS>ATOM
      1 O1         2.6960    3.6838    1.9446 O.3       1 RES1    0.0000
      2 O2         1.6142    5.6478    1.7523 O.2       1 RES1    0.0000
      3 O3         6.4105    1.5746   -2.1602 O.2       1 RES1    0.0000
      4 O4         3.8878   -1.3944    3.8803 O.3       1 RES1    0.0000
      5 O5         0.0631   -0.6648   -1.1280 O.3       1 RES1    0.0000
      6 O6         0.8945   -2.3176   -2.5118 O.3       1 RES1    0.0000
      7 O7        -1.8761    6.6366    5.0012 O.2       1 RES1    0.0000
      8 C1         0.1724    5.1239    4.0981 C.ar      1 RES1    0.0000
      9 H1         0.0228    5.9401    3.6786 H         1 RES1    0.0000
     10 C2         5.8057    1.9817   -1.2132 C.2       1 RES1    0.0000
     11 N1        -1.5931    5.6795    5.6926 N.pl3     1 RES1    0.0000
     12 O8         1.6107    0.6415    5.5185 O.2       1 RES1    0.0000
     13 O9         6.1652    1.6549    0.0574 O.3       1 RES1    0.0000
     14 O10        4.9065   -0.5430    5.7615 O.3       1 RES1    0.0000
     15 C3         1.3661    3.0310    4.2577 C.ar      1 RES1    0.0000
     16 H2         2.0191    2.4451    3.9504 H         1 RES1    0.0000
     17 C4        -0.3787    3.5563    5.8673 C.ar      1 RES1    0.0000
     18 H3        -0.8914    3.3246    6.6076 H         1 RES1    0.0000
     19 C5        -0.5558    4.7584    5.2102 C.ar      1 RES1    0.0000
     20 N2         0.8107    1.4197    6.0216 N.pl3     1 RES1    0.0000
     21 C6         1.7379   -1.2253   -2.5317 C.ar      1 RES1    0.0000
     22 C7         1.2474   -0.2338   -1.7069 C.ar      1 RES1    0.0000
     23 C8         1.8252    0.9965   -1.6253 C.ar      1 RES1    0.0000
     24 H4         1.4617    1.6627   -1.0884 H         1 RES1    0.0000
     25 C9         4.0633    2.7169    0.2274 C.3       1 RES1    0.0000
     26 H5         3.4565    1.9493    0.2731 H         1 RES1    0.0000
     27 C10        4.4819   -0.2007    3.5720 C.ar      1 RES1    0.0000
     28 C11        0.5983    2.7155    5.3684 C.ar      1 RES1    0.0000
     29 C12        3.6348    2.5929   -2.3664 C.3       1 RES1    0.0000
     30 H6         2.9298    3.2598   -2.3500 H         1 RES1    0.0000
     31 H7         4.1236    2.7091   -3.1955 H         1 RES1    0.0000
     32 O11        0.1888    1.1810    7.0503 O.2       1 RES1    0.0000
     33 C13        1.1400    4.2394    3.6147 C.ar      1 RES1    0.0000
     34 C14        3.3431    3.9641    0.6786 C.3       1 RES1    0.0000
     35 H8         3.9740    4.6929    0.7825 H         1 RES1    0.0000
     36 H9         2.6821    4.2232    0.0184 H         1 RES1    0.0000
     37 C15        5.2156    1.6486    2.2972 C.ar      1 RES1    0.0000
     38 C16        5.8411    2.1570    3.4327 C.ar      1 RES1    0.0000
     39 H10        6.3080    2.9591    3.3727 H         1 RES1    0.0000
     40 O12       -2.1257    5.4288    6.7548 O.2       1 RES1    0.0000
     41 C17        2.8681   -1.0338   -3.2921 C.ar      1 RES1    0.0000
     42 H11        3.2018   -1.7007   -3.8467 H         1 RES1    0.0000
     43 C18        4.5898    2.8746   -1.2025 C.3       1 RES1    0.0000
     44 H12        4.9036    3.7979   -1.2984 H         1 RES1    0.0000
     45 C19        2.9940    1.2275   -2.3825 C.ar      1 RES1    0.0000
     46 C20        1.8368    4.6260    2.3536 C.2       1 RES1    0.0000
     47 C21        5.3414    2.4148    1.0229 C.3       1 RES1    0.0000
     48 H13        5.7936    3.2627    1.2157 H         1 RES1    0.0000
     49 C22       -0.0416   -2.0458   -1.4654 C.3       1 RES1    0.0000
     50 H14       -0.9415   -2.2486   -1.7632 H         1 RES1    0.0000
     51 H15        0.1558   -2.5936   -0.6906 H         1 RES1    0.0000
     52 C23        3.4886    0.2127   -3.1892 C.ar      1 RES1    0.0000
     53 H16        4.2624    0.3690   -3.6800 H         1 RES1    0.0000
     54 C24        4.5117    0.4415    2.3674 C.ar      1 RES1    0.0000
     55 H17        4.0802    0.0908    1.6214 H         1 RES1    0.0000
     56 C25        5.1061    0.3169    4.6936 C.ar      1 RES1    0.0000
     57 C26        5.7843    1.4887    4.6666 C.ar      1 RES1    0.0000
     58 H18        6.1926    1.8338    5.4274 H         1 RES1    0.0000
     59 C27        4.2033   -1.6598    5.2349 C.3       1 RES1    0.0000
     60 H19        4.7521   -2.4570    5.2974 H         1 RES1    0.0000
     61 H20        3.3900   -1.8084    5.7425 H         1 RES1    0.0000
@<TRIPOS>BOND
     1    1   34 1
     2    2   46 2
     3    3   10 2
     4    4   27 1
     5    5   22 1
     6    6   21 1
     7    7   11 2
     8    8    9 1
     9   10   13 1
    10   11   19 1
    11   12   20 2
    12   13   47 1
    13   14   56 1
    14   15   16 1
    15   17   18 1
    16   19    8 ar
    17   20   28 1
    18   21   22 ar
    19   22   23 ar
    20   23   24 1
    21   25   26 1
    22   27   54 ar
    23   28   15 ar
    24   29   30 1
    25   31   29 1
    26   32   20 2
    27   33    8 ar
    28   34   25 1
    29   35   34 1
    30   36   34 1
    31   37   38 ar
    32   38   39 1
    33   40   11 2
    34   41   21 ar
    35   42   41 1
    36   43   10 1
    37   44   43 1
    38   45   23 ar
    39   46    1 1
    40   47   25 1
    41   48   47 1
    42   49    5 1
    43   50   49 1
    44   51   49 1
    45   52   41 ar
    46   53   52 1
    47   54   37 ar
    48   55   54 1
    49   56   27 ar
    50   57   38 ar
    51   58   57 1
    52   59    4 1
    53   60   59 1
    54   61   59 1
    55    6   49 1
    56   14   59 1
    57   15   33 ar
    58   17   19 ar
    59   17   28 ar
    60   25   43 1
    61   29   43 1
    62   29   45 1
    63   33   46 1
    64   37   47 1
    65   45   52 ar
    66   56   57 ar
@<TRIPOS>SUBSTRUCTURE
     1 RES1 1

@<TRIPOS>CRYSIN
  13.1713    7.0422   14.1832  90.0000 112.2340  90.0000   4 1

