# MOL2 file generated by ConQuest
# Please check atom types

@<TRIPOS>MOLECULE
RODCUI
    89    94     1
SMALL
NO_CHARGES
****
Generated from CSD

@<TRIPOS>ATOM
      1 O1         0.6018    4.4031    6.6365 O.3       1 RES1    0.0000
      2 O2        -2.9652    4.0331    7.4470 O.3       1 RES1    0.0000
      3 O3        -5.7302    3.9845    7.5470 O.3       1 RES1    0.0000
      4 O4        -4.1051    3.8828   10.8246 O.3       1 RES1    0.0000
      5 O5        -7.5037    4.6374   11.9456 O.3       1 RES1    0.0000
      6 O6         1.9136    4.7226    3.2901 O.3       1 RES1    0.0000
      7 O7         3.1888    2.8971    3.5381 O.2       1 RES1    0.0000
      8 O8         0.7256    4.9739   -2.7129 O.2       1 RES1    0.0000
      9 O9         0.7514    6.3619   -1.0502 O.2       1 RES1    0.0000
     10 O10        3.4138    0.9639   -2.4546 O.2       1 RES1    0.0000
     11 O11        4.5639    0.6456   -0.6272 O.2       1 RES1    0.0000
     12 O12       -6.3169    6.0369    6.8052 O.2       1 RES1    0.0000
     13 O13       -8.7005    5.8732    2.4462 O.2       1 RES1    0.0000
     14 O14       -8.0126    4.4536    0.9439 O.2       1 RES1    0.0000
     15 O15       -5.4336    0.6547    2.3608 O.2       1 RES1    0.0000
     16 O16       -4.1862    0.9042    4.1465 O.2       1 RES1    0.0000
     17 N1         1.0225    5.2952   -1.6065 N.pl3     1 RES1    0.0000
     18 N2         3.7423    1.2024   -1.2919 N.pl3     1 RES1    0.0000
     19 N3        -8.0450    4.9282    2.0732 N.pl3     1 RES1    0.0000
     20 N4        -5.0851    1.2340    3.3860 N.pl3     1 RES1    0.0000
     21 C1         3.1634    2.4736    0.7522 C.ar      1 RES1    0.0000
     22 H1         3.6203    1.8298    1.2627 H         1 RES1    0.0000
     23 C2         3.0797    2.3750   -0.6334 C.ar      1 RES1    0.0000
     24 C3         2.3787    3.2494   -1.4231 C.ar      1 RES1    0.0000
     25 H2         2.2954    3.1283   -2.3525 H         1 RES1    0.0000
     26 C4         1.8112    4.3070   -0.7751 C.ar      1 RES1    0.0000
     27 C5         1.8417    4.5120    0.5876 C.ar      1 RES1    0.0000
     28 H3         1.4160    5.2483    0.9856 H         1 RES1    0.0000
     29 C6         2.5436    3.5640    1.3460 C.ar      1 RES1    0.0000
     30 C7         2.6105    3.6875    2.8296 C.2       1 RES1    0.0000
     31 C8         1.8545    4.8960    4.7216 C.3       1 RES1    0.0000
     32 H4         1.8702    5.8489    4.9508 H         1 RES1    0.0000
     33 H5         2.6204    4.4597    5.1487 H         1 RES1    0.0000
     34 C9         0.5420    4.2552    5.1967 C.3       1 RES1    0.0000
     35 H6         0.5225    3.2962    4.9529 H         1 RES1    0.0000
     36 C10       -0.6816    4.9714    4.6195 C.3       1 RES1    0.0000
     37 H7        -0.7379    4.8041    3.6568 H         1 RES1    0.0000
     38 H8        -0.5927    5.9377    4.7570 H         1 RES1    0.0000
     39 C11       -1.9676    4.4621    5.3133 C.3       1 RES1    0.0000
     40 H9        -2.7363    4.9982    5.0279 H         1 RES1    0.0000
     41 H10       -2.1336    3.5287    5.0654 H         1 RES1    0.0000
     42 C12       -1.7886    4.5753    6.7927 C.3       1 RES1    0.0000
     43 H11       -1.6956    5.5300    7.0365 H         1 RES1    0.0000
     44 C13       -0.5810    3.8323    7.2616 C.3       1 RES1    0.0000
     45 H12       -0.6618    2.8825    6.9949 H         1 RES1    0.0000
     46 C14       -0.4032    3.9133    8.7514 C.3       1 RES1    0.0000
     47 H13       -0.1967    4.8339    9.0139 H         1 RES1    0.0000
     48 H14        0.3390    3.3370    9.0306 H         1 RES1    0.0000
     49 C15       -1.6806    3.4642    9.4057 C.3       1 RES1    0.0000
     50 H15       -1.6163    3.6236   10.3704 H         1 RES1    0.0000
     51 H16       -1.7885    2.4997    9.2681 H         1 RES1    0.0000
     52 C16       -2.9178    4.1847    8.8639 C.3       1 RES1    0.0000
     53 H17       -2.8519    5.1479    9.0827 H         1 RES1    0.0000
     54 C17       -4.2515    3.6413    9.3932 C.3       1 RES1    0.0000
     55 C18       -5.4248    4.4646    8.8868 C.3       1 RES1    0.0000
     56 H18       -5.1534    5.4150    8.8347 H         1 RES1    0.0000
     57 C19       -6.6902    4.3593    9.6974 C.3       1 RES1    0.0000
     58 H19       -7.0564    3.4526    9.6390 H         1 RES1    0.0000
     59 H20       -7.3608    4.9903    9.3640 H         1 RES1    0.0000
     60 C20       -6.3235    4.6921   11.1538 C.3       1 RES1    0.0000
     61 H21       -5.9754    5.6189   11.1809 H         1 RES1    0.0000
     62 C21       -5.2481    3.7666   11.6831 C.3       1 RES1    0.0000
     63 C22       -4.8397    4.3130   13.0500 C.3       1 RES1    0.0000
     64 H22       -4.4229    5.1935   12.9416 H         1 RES1    0.0000
     65 H23       -4.1820    3.7137   13.4605 H         1 RES1    0.0000
     66 C23       -6.0822    4.4323   13.9689 C.3       1 RES1    0.0000
     67 H24       -6.3852    3.5360   14.2231 H         1 RES1    0.0000
     68 H25       -5.8351    4.9112   14.7878 H         1 RES1    0.0000
     69 C24       -7.2101    5.1668   13.2813 C.3       1 RES1    0.0000
     70 H26       -8.0170    5.1035   13.8334 H         1 RES1    0.0000
     71 H27       -6.9737    6.1142   13.2021 H         1 RES1    0.0000
     72 C25       -6.1186    4.8467    6.6323 C.2       1 RES1    0.0000
     73 C26       -6.3156    4.1907    5.2967 C.ar      1 RES1    0.0000
     74 C27       -5.6763    3.0084    5.0050 C.ar      1 RES1    0.0000
     75 H28       -5.1395    2.5843    5.6488 H         1 RES1    0.0000
     76 C28       -5.8397    2.4510    3.7443 C.ar      1 RES1    0.0000
     77 C29       -6.6185    3.0437    2.7796 C.ar      1 RES1    0.0000
     78 H29       -6.7270    2.6591    1.9274 H         1 RES1    0.0000
     79 C30       -7.2552    4.2741    3.1317 C.ar      1 RES1    0.0000
     80 C31       -7.0920    4.8339    4.3465 C.ar      1 RES1    0.0000
     81 H30       -7.5016    5.6560    4.5466 H         1 RES1    0.0000
     82 C32       -4.4164    2.1407    9.0535 C.3       1 RES1    0.0000
     83 H31       -3.6524    1.6472    9.3911 H         1 RES1    0.0000
     84 H32       -4.4727    2.0312    8.0909 H         1 RES1    0.0000
     85 H33       -5.2276    1.8030    9.4661 H         1 RES1    0.0000
     86 C33       -5.7296    2.3299   11.8456 C.3       1 RES1    0.0000
     87 H34       -5.0053    1.7823   12.1853 H         1 RES1    0.0000
     88 H35       -6.0168    1.9861   10.9851 H         1 RES1    0.0000
     89 H36       -6.4725    2.3062   12.4686 H         1 RES1    0.0000
@<TRIPOS>BOND
     1    1   34 1
     2    2   42 1
     3    3   55 1
     4    4   54 1
     5    5   60 1
     6    6   30 1
     7    7   30 2
     8    8   17 2
     9    9   17 2
    10   10   18 2
    11   11   18 2
    12   12   72 2
    13   13   19 2
    14   14   19 2
    15   15   20 2
    16   16   20 2
    17   17   26 1
    18   18   23 1
    19   19   79 1
    20   20   76 1
    21   21   22 1
    22   23   21 ar
    23   24   23 ar
    24   25   24 1
    25   26   24 ar
    26   27   26 ar
    27   28   27 1
    28   29   21 ar
    29   30   29 1
    30   31    6 1
    31   32   31 1
    32   33   31 1
    33   34   31 1
    34   35   34 1
    35   36   34 1
    36   37   36 1
    37   38   36 1
    38   39   36 1
    39   40   39 1
    40   41   39 1
    41   42   39 1
    42   43   42 1
    43   44    1 1
    44   45   44 1
    45   46   44 1
    46   47   46 1
    47   48   46 1
    48   49   46 1
    49   50   49 1
    50   51   49 1
    51   52    2 1
    52   53   52 1
    53   54   52 1
    54   55   54 1
    55   56   55 1
    56   57   55 1
    57   58   57 1
    58   59   57 1
    59   60   57 1
    60   61   60 1
    61   62    4 1
    62   63   62 1
    63   64   63 1
    64   65   63 1
    65   66   63 1
    66   67   66 1
    67   68   66 1
    68   69    5 1
    69   70   69 1
    70   71   69 1
    71   72    3 1
    72   73   72 1
    73   74   73 ar
    74   75   74 1
    75   76   74 ar
    76   77   76 ar
    77   78   77 1
    78   79   77 ar
    79   80   73 ar
    80   81   80 1
    81   82   54 1
    82   83   82 1
    83   84   82 1
    84   85   82 1
    85   86   62 1
    86   87   86 1
    87   88   86 1
    88   89   86 1
    89   27   29 ar
    90   42   44 1
    91   49   52 1
    92   60   62 1
    93   66   69 1
    94   79   80 ar
@<TRIPOS>SUBSTRUCTURE
     1 RES1 1

@<TRIPOS>CRYSIN
  13.6105    6.0850   20.9750  90.0000  96.5850  90.0000   4 1

