# MOL2 file generated by ConQuest
# Please check atom types

@<TRIPOS>MOLECULE
RODHUO
    34    36     1
SMALL
NO_CHARGES
****
Generated from CSD

@<TRIPOS>ATOM
      1 O1         3.8884    3.7487    0.8292 O.3       1 RES1    0.0000
      2 N1         7.6584    1.4636    0.2764 N.2       1 RES1    0.0000
      3 C1         2.8179    4.4486    1.4738 C.3       1 RES1    0.0000
      4 H1         2.3979    4.9584    0.5356 H         1 RES1    0.0000
      5 H2         3.1290    5.0949    2.0467 H         1 RES1    0.0000
      6 H3         2.2926    3.9771    1.8554 H         1 RES1    0.0000
      7 O2         4.6407    3.0726    2.7975 O.2       1 RES1    0.0000
      8 C2         4.7121    3.0723    1.6173 C.2       1 RES1    0.0000
      9 O3         6.7658    1.2157   -0.7565 O.3       1 RES1    0.0000
     10 C3         5.7255    2.3595    0.8349 C.2       1 RES1    0.0000
     11 C4         5.6138    1.7678   -0.4084 C.2       1 RES1    0.0000
     12 C5         4.5127    1.5569   -1.3610 C.ar      1 RES1    0.0000
     13 C6         3.2196    1.3762   -0.9296 C.ar      1 RES1    0.0000
     14 H4         3.0181    1.4004    0.0096 H         1 RES1    0.0000
     15 C7         2.2281    1.1165   -1.8325 C.ar      1 RES1    0.0000
     16 H5         1.3831    0.8504   -1.4824 H         1 RES1    0.0000
     17 C8         2.5109    1.0389   -3.1599 C.ar      1 RES1    0.0000
     18 H6         1.8334    0.8550   -3.7873 H         1 RES1    0.0000
     19 C9         3.7962    1.2203   -3.5951 C.ar      1 RES1    0.0000
     20 H7         4.0048    1.1512   -4.4472 H         1 RES1    0.0000
     21 C10        4.7883    1.4768   -2.7009 C.ar      1 RES1    0.0000
     22 H8         5.6627    1.6984   -3.0031 H         1 RES1    0.0000
     23 C11        7.0317    2.1307    1.2290 C.2       1 RES1    0.0000
     24 C12        7.8317    2.4551    2.3833 C.ar      1 RES1    0.0000
     25 C13        8.8142    1.5713    2.8051 C.ar      1 RES1    0.0000
     26 H9         8.9321    0.8457    2.3623 H         1 RES1    0.0000
     27 C14        9.6181    1.8547    3.8409 C.ar      1 RES1    0.0000
     28 H10       10.3198    1.1632    4.2846 H         1 RES1    0.0000
     29 C15        9.4760    3.0332    4.5247 C.ar      1 RES1    0.0000
     30 H11       10.0969    3.2915    5.3080 H         1 RES1    0.0000
     31 C16        8.5057    3.9302    4.1345 C.ar      1 RES1    0.0000
     32 H12        8.3748    4.7824    4.5429 H         1 RES1    0.0000
     33 C17        7.6890    3.6377    3.0777 C.ar      1 RES1    0.0000
     34 H13        7.0622    4.2596    2.7927 H         1 RES1    0.0000
@<TRIPOS>BOND
     1    1    3 1
     2    2    9 1
     3    3    4 1
     4    5    3 1
     5    6    3 1
     6    7    8 2
     7    8    1 1
     8    9   11 1
     9   10    8 1
    10   11   10 2
    11   12   11 1
    12   13   12 ar
    13   14   13 1
    14   15   13 ar
    15   16   15 1
    16   17   15 ar
    17   18   17 1
    18   19   17 ar
    19   20   19 1
    20   21   12 ar
    21   22   21 1
    22   23    2 2
    23   24   23 1
    24   25   24 ar
    25   26   25 1
    26   27   25 ar
    27   28   27 1
    28   29   27 ar
    29   30   29 1
    30   31   29 ar
    31   32   31 1
    32   33   24 ar
    33   34   33 1
    34   10   23 1
    35   19   21 ar
    36   31   33 ar
@<TRIPOS>SUBSTRUCTURE
     1 RES1 1

@<TRIPOS>CRYSIN
   8.2050    9.1530    9.7860  82.8820  78.2850  70.7450   2 1

