# MOL2 file generated by ConQuest
# Please check atom types

@<TRIPOS>MOLECULE
RODJEA
    38    38     1
SMALL
NO_CHARGES
****
Generated from CSD

@<TRIPOS>ATOM
      1 C1         8.8580    1.7126    8.3511 C.2       1 RES1    0.0000
      2 C2        10.1452    1.1902    8.7987 C.2       1 RES1    0.0000
      3 C3        10.1800    0.4350   10.0072 C.2       1 RES1    0.0000
      4 H1         9.2988    0.3339   10.4424 H         1 RES1    0.0000
      5 N1        13.0744    1.7768    6.5739 N.3       1 RES1    0.0000
      6 C4        13.7013    1.4299    7.8588 C.3       1 RES1    0.0000
      7 N2        12.5116    1.0480    8.6111 N.pl3     1 RES1    0.0000
      8 H2        12.5591    0.6481    9.4116 H         1 RES1    0.0000
      9 C5        11.3568    1.4293    8.1104 C.2       1 RES1    0.0000
     10 C6        11.6319    2.1469    6.7882 C.3       1 RES1    0.0000
     11 O1         8.6449    2.3485    7.3436 O.2       1 RES1    0.0000
     12 O2         7.8585    1.4297    9.2030 O.3       1 RES1    0.0000
     13 C7         6.5543    1.9630    8.8478 C.3       1 RES1    0.0000
     14 H3         6.6221    2.9067    8.8562 H         1 RES1    0.0000
     15 H4         6.3049    1.4632    7.9809 H         1 RES1    0.0000
     16 C8         5.5882    1.5486    9.8970 C.3       1 RES1    0.0000
     17 H5         4.7446    1.9149    9.6861 H         1 RES1    0.0000
     18 H6         5.5184    0.5106    9.9432 H         1 RES1    0.0000
     19 H7         5.9117    2.0033   10.7558 H         1 RES1    0.0000
     20 O3        11.1812   -0.0337   10.5552 O.2       1 RES1    0.0000
     21 O4        13.7875    2.8497    5.9510 O.3       1 RES1    0.0000
     22 H8        14.0180    2.4354    5.0678 H         1 RES1    0.0000
     23 C9        14.4303    2.5630    8.5750 C.3       1 RES1    0.0000
     24 H9        14.6587    2.2684    9.4613 H         1 RES1    0.0000
     25 H10       13.8912    3.3879    8.6141 H         1 RES1    0.0000
     26 H11       15.2613    2.8183    8.0242 H         1 RES1    0.0000
     27 C10       14.6168    0.2318    7.6838 C.3       1 RES1    0.0000
     28 H12       14.0929   -0.4517    7.2029 H         1 RES1    0.0000
     29 H13       15.3247    0.5205    7.1273 H         1 RES1    0.0000
     30 H14       14.9441   -0.0786    8.5299 H         1 RES1    0.0000
     31 C11       11.3971    3.6491    6.9456 C.3       1 RES1    0.0000
     32 H15       11.7675    3.9575    7.7497 H         1 RES1    0.0000
     33 H16       11.7980    4.1048    6.1980 H         1 RES1    0.0000
     34 H17       10.5040    3.8298    6.9933 H         1 RES1    0.0000
     35 C12       10.8897    1.5643    5.5888 C.3       1 RES1    0.0000
     36 H18       10.9734    0.6481    5.5821 H         1 RES1    0.0000
     37 H19       11.2905    1.9935    4.7198 H         1 RES1    0.0000
     38 H20       10.0093    1.8658    5.5908 H         1 RES1    0.0000
@<TRIPOS>BOND
     1    1    2 1
     2    2    3 1
     3    3    4 1
     4    5    6 1
     5    6    7 1
     6    7    8 1
     7    9    2 2
     8   10    5 1
     9   11    1 2
    10   12    1 1
    11   13   12 1
    12   14   13 1
    13   15   13 1
    14   16   13 1
    15   17   16 1
    16   18   16 1
    17   19   16 1
    18   20    3 2
    19   21    5 1
    20   22   21 1
    21   23    6 1
    22   24   23 1
    23   25   23 1
    24   26   23 1
    25   27    6 1
    26   28   27 1
    27   29   27 1
    28   30   27 1
    29   31   10 1
    30   32   31 1
    31   33   31 1
    32   34   31 1
    33   35   10 1
    34   36   35 1
    35   37   35 1
    36   38   35 1
    37    7    9 1
    38    9   10 1
@<TRIPOS>SUBSTRUCTURE
     1 RES1 1

@<TRIPOS>CRYSIN
  12.6860    9.8200   21.6110  90.0000  90.0000  90.0000  61 1

