# MOL2 file generated by ConQuest
# Please check atom types

@<TRIPOS>MOLECULE
RODLIG
   150   153     3
SMALL
NO_CHARGES
****
Generated from CSD

@<TRIPOS>ATOM
      1 N1         4.9382   16.5631    5.7389 N.pl3     1 RES1    0.0000
      2 O1         5.9655   15.9298    5.3170 O.2       1 RES1    0.0000
      3 C1         3.0653   17.0559    7.0405 C.3       1 RES1    0.0000
      4 O2         2.3225   18.8009    5.4716 O.2       1 RES1    0.0000
      5 N2         3.2413   17.9385    5.8353 N.pl3     1 RES1    0.0000
      6 C2         1.9558   16.0771    6.6544 C.3       1 RES1    0.0000
      7 H1         1.0430   16.5752    6.4798 H         1 RES1    0.0000
      8 H2         1.8323   15.5642    7.5081 H         1 RES1    0.0000
      9 H3         2.1733   15.3907    5.9366 H         1 RES1    0.0000
     10 O3         5.1128   17.0883    1.5596 O.2       1 RES1    0.0000
     11 N3         4.6658   20.3546    4.2212 N.3       1 RES1    0.0000
     12 H4         4.2971   20.2359    5.0248 H         1 RES1    0.0000
     13 C3         2.6302   17.8962    8.2569 C.3       1 RES1    0.0000
     14 H5         1.7186   18.3694    8.0901 H         1 RES1    0.0000
     15 H6         3.3354   18.6622    8.4393 H         1 RES1    0.0000
     16 H7         2.5215   17.3213    8.9243 H         1 RES1    0.0000
     17 N4         4.7646   19.7859    2.1019 N.pl3     1 RES1    0.0000
     18 H8         4.9915   19.2243    1.5036 H         1 RES1    0.0000
     19 C4         4.4659   16.4253    7.1492 C.3       1 RES1    0.0000
     20 C5         4.4988   14.9689    7.5760 C.3       1 RES1    0.0000
     21 H9         5.3723   14.6873    7.5275 H         1 RES1    0.0000
     22 H10        4.0570   14.4364    7.0037 H         1 RES1    0.0000
     23 H11        3.9402   14.9508    8.5557 H         1 RES1    0.0000
     24 C6         5.4533   17.2358    7.9892 C.3       1 RES1    0.0000
     25 H12        6.2601   16.8997    7.8573 H         1 RES1    0.0000
     26 H13        5.1657   17.1264    8.9049 H         1 RES1    0.0000
     27 H14        5.3627   18.2293    7.7215 H         1 RES1    0.0000
     28 C7         4.2518   17.5188    5.0500 C.2       1 RES1    0.0000
     29 C8         4.5649   17.9523    3.6997 C.2       1 RES1    0.0000
     30 C9         4.8224   16.9248    2.7627 C.2       1 RES1    0.0000
     31 H15        4.6694   15.9594    3.1002 H         1 RES1    0.0000
     32 C10        4.6400   19.3054    3.3738 C.2       1 RES1    0.0000
     33 C11        4.5437   21.6334    3.4902 C.3       1 RES1    0.0000
     34 C12        5.3763   22.7207    4.2158 C.3       1 RES1    0.0000
     35 H16        4.8431   22.9127    5.1024 H         1 RES1    0.0000
     36 H17        5.4101   23.5768    3.6085 H         1 RES1    0.0000
     37 H18        6.4208   22.4336    4.2488 H         1 RES1    0.0000
     38 C13        3.0744   22.0161    3.4572 C.3       1 RES1    0.0000
     39 H19        2.7708   22.0967    4.3652 H         1 RES1    0.0000
     40 H20        2.5089   21.3849    2.8713 H         1 RES1    0.0000
     41 H21        2.9882   22.9084    3.0071 H         1 RES1    0.0000
     42 C14        5.1224   21.2092    2.1050 C.3       1 RES1    0.0000
     43 C15        4.4963   21.9312    0.9002 C.3       1 RES1    0.0000
     44 H22        4.9318   21.4756    0.0776 H         1 RES1    0.0000
     45 H23        4.7175   22.8146    0.9894 H         1 RES1    0.0000
     46 H24        3.4443   21.7401    0.8536 H         1 RES1    0.0000
     47 C16        6.6569   21.3171    2.0138 C.3       1 RES1    0.0000
     48 H25        6.8460   20.8135    1.0670 H         1 RES1    0.0000
     49 H26        7.0948   20.8292    2.8131 H         1 RES1    0.0000
     50 H27        6.9200   22.2025    1.9983 H         1 RES1    0.0000
     51 O4         4.4062   20.7188   11.0446 O.2       2 RES2    0.0000
     52 N5         3.7999   21.8392   11.1150 N.pl3     2 RES2    0.0000
     53 C17        4.0234   22.8022   12.2496 C.3       2 RES2    0.0000
     54 N6         2.5297   23.5395   10.5711 N.pl3     2 RES2    0.0000
     55 O5         1.7358   24.3358    9.9075 O.2       2 RES2    0.0000
     56 C18        5.3876   23.4177   12.0498 C.3       2 RES2    0.0000
     57 H28        5.9217   22.7964   12.0284 H         2 RES2    0.0000
     58 H29        5.4537   24.1048   12.7657 H         2 RES2    0.0000
     59 H30        5.5634   23.9682   11.1748 H         2 RES2    0.0000
     60 N7         0.4339   22.2089    8.7107 N.3       2 RES2    0.0000
     61 H31        0.6113   23.0253    9.2153 H         2 RES2    0.0000
     62 O6         4.0945   20.7398    7.0601 O.2       2 RES2    0.0000
     63 C19        3.9852   22.0331   13.5669 C.3       2 RES2    0.0000
     64 H32        4.6725   21.4255   13.6581 H         2 RES2    0.0000
     65 H33        3.0819   21.4598   13.7163 H         2 RES2    0.0000
     66 H34        4.0464   22.6496   14.3177 H         2 RES2    0.0000
     67 N8         1.3174   21.0851    7.0322 N.pl3     2 RES2    0.0000
     68 H35        2.0186   20.4685    6.5574 H         2 RES2    0.0000
     69 C20        2.8404   23.7837   12.0187 C.3       2 RES2    0.0000
     70 C21        1.5408   23.4465   12.7676 C.3       2 RES2    0.0000
     71 H36        0.8455   24.2333   12.3776 H         2 RES2    0.0000
     72 H37        1.6066   23.7138   13.6581 H         2 RES2    0.0000
     73 H38        1.4389   22.5010   12.6493 H         2 RES2    0.0000
     74 C22        3.1933   25.2413   12.1992 C.3       2 RES2    0.0000
     75 H39        2.6098   25.7943   12.0284 H         2 RES2    0.0000
     76 H40        4.0153   25.4842   11.5434 H         2 RES2    0.0000
     77 H41        3.5404   25.3233   13.1537 H         2 RES2    0.0000
     78 C23        3.0272   22.3813   10.1136 C.2       2 RES2    0.0000
     79 C24        2.8552   21.7684    8.8079 C.2       2 RES2    0.0000
     80 C25        4.0188   21.2776    8.1793 C.2       2 RES2    0.0000
     81 H42        4.9300   21.4432    8.6527 H         2 RES2    0.0000
     82 C26        1.5738   21.6964    8.1929 C.2       2 RES2    0.0000
     83 C27       -0.6016   22.2552    7.6225 C.3       2 RES2    0.0000
     84 C28       -1.9976   22.1570    8.2143 C.3       2 RES2    0.0000
     85 H43       -2.1332   23.1182    8.8079 H         2 RES2    0.0000
     86 H44       -2.1449   21.3658    8.8079 H         2 RES2    0.0000
     87 H45       -2.6882   21.8708    7.5275 H         2 RES2    0.0000
     88 C29       -0.4674   23.5815    6.8950 C.3       2 RES2    0.0000
     89 H46       -0.5000   24.3304    7.6051 H         2 RES2    0.0000
     90 H47       -1.1307   23.6885    6.1888 H         2 RES2    0.0000
     91 H48        0.4168   23.6573    6.4798 H         2 RES2    0.0000
     92 C30       -0.1410   21.0259    6.7864 C.3       2 RES2    0.0000
     93 C31       -0.6891   19.6964    7.3005 C.3       2 RES2    0.0000
     94 H49       -0.2636   18.8414    6.7126 H         2 RES2    0.0000
     95 H50       -1.6407   19.6175    7.1201 H         2 RES2    0.0000
     96 H51       -0.4866   19.6231    8.2841 H         2 RES2    0.0000
     97 C32       -0.4224   21.1217    5.2867 C.3       2 RES2    0.0000
     98 H52       -0.0666   20.2882    4.7532 H         2 RES2    0.0000
     99 H53       -0.0582   21.9880    4.8114 H         2 RES2    0.0000
    100 H54       -1.3787   21.0775    5.1994 H         2 RES2    0.0000
    101 N9         3.2303   12.4600    2.6915 N.pl3     3 RES3    0.0000
    102 O7         2.7220   13.4199    3.3876 O.2       3 RES3    0.0000
    103 C33        4.7238   12.2655    2.5881 C.3       3 RES3    0.0000
    104 O8         3.1537    9.7730    0.5353 O.2       3 RES3    0.0000
    105 N10        3.4398   10.7481    1.3483 N.pl3     3 RES3    0.0000
    106 C34        5.3919   12.5085    3.9345 C.3       3 RES3    0.0000
    107 H55        5.2444   13.5253    4.2876 H         3 RES3    0.0000
    108 H56        6.3692   12.3214    3.8995 H         3 RES3    0.0000
    109 H57        4.9622   11.8853    4.6174 H         3 RES3    0.0000
    110 O9        -1.0107   11.8144    2.5861 O.2       3 RES3    0.0000
    111 N11        1.3725   11.7079   -0.9310 N.3       3 RES3    0.0000
    112 H58        2.3253   11.8231   -1.0476 H         3 RES3    0.0000
    113 C35        5.2263   13.2624    1.5482 C.3       3 RES3    0.0000
    114 H59        4.9766   14.0748    1.8625 H         3 RES3    0.0000
    115 H60        4.7313   13.0947    0.6014 H         3 RES3    0.0000
    116 H61        6.1679   13.3170    1.3386 H         3 RES3    0.0000
    117 N12       -0.6303   11.9464   -0.0993 N.pl3     3 RES3    0.0000
    118 H62       -1.2309   11.8294    0.5432 H         3 RES3    0.0000
    119 C36        4.7598   10.8137    2.0507 C.3       3 RES3    0.0000
    120 C37        4.6933    9.7558    3.1623 C.3       3 RES3    0.0000
    121 H63        4.5127    8.8609    2.7549 H         3 RES3    0.0000
    122 H64        3.9478    9.9487    3.8219 H         3 RES3    0.0000
    123 H65        5.6072    9.8905    3.6085 H         3 RES3    0.0000
    124 C38        5.9010   10.4906    1.0942 C.3       3 RES3    0.0000
    125 H66        5.9574    9.5086    0.8730 H         3 RES3    0.0000
    126 H67        6.8161   10.6553    1.6879 H         3 RES3    0.0000
    127 H68        5.8206   11.0813    0.3880 H         3 RES3    0.0000
    128 C39        2.5565   11.6485    1.8314 C.2       3 RES3    0.0000
    129 C40        1.1436   11.7072    1.5404 C.2       3 RES3    0.0000
    130 C41        0.2443   11.7632    2.6230 C.2       3 RES3    0.0000
    131 H69        0.6228   11.6567    3.6066 H         3 RES3    0.0000
    132 C42        0.6565   11.7723    0.2056 C.2       3 RES3    0.0000
    133 C43        0.5435   12.1186   -2.0972 C.3       3 RES3    0.0000
    134 C44        0.9072   11.2992   -3.3544 C.3       3 RES3    0.0000
    135 H70        1.8615   11.6667   -3.5891 H         3 RES3    0.0000
    136 H71        0.2332   11.4870   -4.0741 H         3 RES3    0.0000
    137 H72        0.9779   10.3129   -2.9295 H         3 RES3    0.0000
    138 C45        0.7919   13.6036   -2.3339 C.3       3 RES3    0.0000
    139 H73        1.6042   13.6984   -2.5997 H         3 RES3    0.0000
    140 H74        0.4643   14.2887   -1.3774 H         3 RES3    0.0000
    141 H75        0.1632   13.9651   -3.0071 H         3 RES3    0.0000
    142 C46       -0.8869   11.8268   -1.5385 C.3       3 RES3    0.0000
    143 C47       -1.3558   10.3721   -1.8334 C.3       3 RES3    0.0000
    144 H76       -2.2235   10.3153   -1.2222 H         3 RES3    0.0000
    145 H77       -0.4112    9.6800   -1.7267 H         3 RES3    0.0000
    146 H78       -1.5858   10.3248   -2.8519 H         3 RES3    0.0000
    147 C48       -1.9607   12.8209   -2.0041 C.3       3 RES3    0.0000
    148 H79       -2.8096   12.6124   -1.4939 H         3 RES3    0.0000
    149 H80       -2.1037   12.6566   -2.8519 H         3 RES3    0.0000
    150 H81       -1.4917   13.7723   -1.5327 H         3 RES3    0.0000
@<TRIPOS>BOND
     1    1    2 1
     2    3    5 1
     3    4    5 1
     4    5   28 1
     5    6    3 1
     6    7    6 1
     7    8    6 1
     8    9    6 1
     9   10   30 2
    10   11   12 1
    11   13    3 1
    12   14   13 1
    13   15   13 1
    14   16   13 1
    15   17   18 1
    16   19    1 1
    17   20   19 1
    18   21   20 1
    19   22   20 1
    20   23   20 1
    21   24   19 1
    22   25   24 1
    23   26   24 1
    24   27   24 1
    25   28    1 2
    26   29   28 1
    27   30   29 1
    28   31   30 1
    29   32   11 1
    30   33   11 1
    31   34   33 1
    32   35   34 1
    33   36   34 1
    34   37   34 1
    35   38   33 1
    36   39   38 1
    37   40   38 1
    38   41   38 1
    39   42   17 1
    40   43   42 1
    41   44   43 1
    42   45   43 1
    43   46   43 1
    44   47   42 1
    45   48   47 1
    46   49   47 1
    47   50   47 1
    48   51   52 1
    49   52   53 1
    50   53   56 1
    51   54   55 1
    52   56   57 1
    53   58   56 1
    54   59   56 1
    55   60   61 1
    56   62   80 2
    57   63   53 1
    58   64   63 1
    59   65   63 1
    60   66   63 1
    61   67   68 1
    62   69   53 1
    63   70   69 1
    64   71   70 1
    65   72   70 1
    66   73   70 1
    67   74   69 1
    68   75   74 1
    69   76   74 1
    70   77   74 1
    71   78   52 2
    72   79   78 1
    73   80   79 1
    74   81   80 1
    75   82   60 1
    76   83   60 1
    77   84   83 1
    78   85   84 1
    79   86   84 1
    80   87   84 1
    81   88   83 1
    82   89   88 1
    83   90   88 1
    84   91   88 1
    85   92   67 1
    86   93   92 1
    87   94   93 1
    88   95   93 1
    89   96   93 1
    90   97   92 1
    91   98   97 1
    92   99   97 1
    93  100   97 1
    94  101  102 1
    95  103  101 1
    96  104  105 1
    97  105  119 1
    98  106  103 1
    99  107  106 1
   100  108  106 1
   101  109  106 1
   102  110  130 2
   103  111  112 1
   104  113  103 1
   105  114  113 1
   106  115  113 1
   107  116  113 1
   108  117  118 1
   109  119  103 1
   110  120  119 1
   111  121  120 1
   112  122  120 1
   113  123  120 1
   114  124  119 1
   115  125  124 1
   116  126  124 1
   117  127  124 1
   118  128  101 2
   119  129  128 1
   120  130  129 1
   121  131  130 1
   122  132  111 1
   123  133  111 1
   124  134  133 1
   125  135  134 1
   126  136  134 1
   127  137  134 1
   128  138  133 1
   129  139  138 1
   130  140  138 1
   131  141  138 1
   132  142  117 1
   133  143  142 1
   134  144  143 1
   135  145  143 1
   136  146  143 1
   137  147  142 1
   138  148  147 1
   139  149  147 1
   140  150  147 1
   141    3   19 1
   142   17   32 1
   143   29   32 2
   144   33   42 1
   145   54   69 1
   146   54   78 1
   147   67   82 1
   148   79   82 2
   149   83   92 1
   150  105  128 1
   151  117  132 1
   152  129  132 2
   153  133  142 1
@<TRIPOS>SUBSTRUCTURE
     1 RES1 1
     2 RES2 51
     3 RES3 101

@<TRIPOS>CRYSIN
   9.6720   15.2120   20.7820  69.3030  80.4870  72.1890   2 1

