# MOL2 file generated by ConQuest
# Please check atom types

@<TRIPOS>MOLECULE
RODLIG01
   100   101     3
SMALL
NO_CHARGES
****
Generated from CSD

@<TRIPOS>ATOM
      1 O1         0.4293    3.5144    2.3305 O.2       1 RES1    0.0000
      2 N1         1.0003    2.6893    1.5361 N.pl3     1 RES1    0.0000
      3 C1         1.4916    3.0969    0.1908 C.3       1 RES1    0.0000
      4 C2         2.1619    4.4161    0.2824 C.3       1 RES1    0.0000
      5 H1         2.9364    4.3464    0.8446 H         1 RES1    0.0000
      6 H2         1.5536    5.0596    0.6551 H         1 RES1    0.0000
      7 H3         2.4277    4.7030   -0.5949 H         1 RES1    0.0000
      8 C3         0.2186    3.1800   -0.7041 C.3       1 RES1    0.0000
      9 H4        -0.2963    3.9522   -0.4581 H         1 RES1    0.0000
     10 H5        -0.3110    2.3890   -0.5798 H         1 RES1    0.0000
     11 H6         0.4794    3.2471   -1.6252 H         1 RES1    0.0000
     12 C4         2.3560    1.8984   -0.1882 C.3       1 RES1    0.0000
     13 C5         2.2774    1.4184   -1.6127 C.3       1 RES1    0.0000
     14 H7         1.3588    1.2736   -1.8511 H         1 RES1    0.0000
     15 H8         2.7634    0.5952   -1.6993 H         1 RES1    0.0000
     16 H9         2.6608    2.0780   -2.1950 H         1 RES1    0.0000
     17 C6         3.8310    2.0566    0.2108 C.3       1 RES1    0.0000
     18 H10        4.3169    1.2683   -0.0402 H         1 RES1    0.0000
     19 H11        3.8940    2.1826    1.1609 H         1 RES1    0.0000
     20 H12        4.2045    2.8180   -0.2384 H         1 RES1    0.0000
     21 N2         1.8047    0.8634    0.7329 N.pl3     1 RES1    0.0000
     22 O2         2.1018   -0.4030    0.5660 O.2       1 RES1    0.0000
     23 C7         1.1571    1.3701    1.7758 C.2       1 RES1    0.0000
     24 C8         0.7579    0.6918    2.9982 C.2       1 RES1    0.0000
     25 C9        -0.4733    1.0538    3.6194 C.2       1 RES1    0.0000
     26 H13       -1.0177    1.6517    3.1613 H         1 RES1    0.0000
     27 O3        -0.8777    0.6491    4.6899 O.2       1 RES1    0.0000
     28 C10        1.6098   -0.2306    3.6320 C.2       1 RES1    0.0000
     29 N3         2.8198   -0.5818    3.2065 N.3       1 RES1    0.0000
     30 H14        2.8525   -0.6328    2.5727 H         1 RES1    0.0000
     31 C11        3.2825   -1.7938    3.9256 C.3       1 RES1    0.0000
     32 C12        4.7983   -1.8099    4.0373 C.3       1 RES1    0.0000
     33 H15        5.0893   -1.0511    4.5494 H         1 RES1    0.0000
     34 H16        5.1849   -1.7697    3.1601 H         1 RES1    0.0000
     35 H17        5.0795   -2.6169    4.4753 H         1 RES1    0.0000
     36 C13        2.8698   -3.0111    3.1325 C.3       1 RES1    0.0000
     37 H18        1.9168   -3.0111    3.0170 H         1 RES1    0.0000
     38 H19        3.1338   -3.8048    3.6044 H         1 RES1    0.0000
     39 H20        3.2977   -2.9950    2.2741 H         1 RES1    0.0000
     40 C14        2.5075   -1.6061    5.2484 C.3       1 RES1    0.0000
     41 C15        2.0739   -2.9012    5.9073 C.3       1 RES1    0.0000
     42 H21        1.6153   -3.4482    5.2647 H         1 RES1    0.0000
     43 H22        1.4857   -2.7081    6.6402 H         1 RES1    0.0000
     44 H23        2.8471   -3.3704    6.2311 H         1 RES1    0.0000
     45 C16        3.2421   -0.7588    6.2675 C.3       1 RES1    0.0000
     46 H24        2.7143   -0.6891    7.0669 H         1 RES1    0.0000
     47 H25        3.3916    0.1180    5.9073 H         1 RES1    0.0000
     48 H26        4.0852   -1.1664    6.4758 H         1 RES1    0.0000
     49 N4         1.3626   -0.8607    4.7489 N.3       1 RES1    0.0000
     50 H27        0.8170   -0.7186    5.1831 H         1 RES1    0.0000
     51 O4         1.7129    8.0332    2.1887 O.2       2 RES2    0.0000
     52 N5         2.5328    8.4166    1.2324 N.pl3     2 RES2    0.0000
     53 C17        2.0181    9.1781    0.1380 C.3       2 RES2    0.0000
     54 C18        1.7137   10.5643    0.5597 C.3       2 RES2    0.0000
     55 H28        0.9891   10.5563    1.1897 H         2 RES2    0.0000
     56 H29        1.4648   11.0845   -0.2071 H         2 RES2    0.0000
     57 H30        2.4905   10.9504    0.9714 H         2 RES2    0.0000
     58 C19        0.7214    8.6204   -0.4267 C.3       2 RES2    0.0000
     59 H31        0.0227    8.7142    0.2246 H         2 RES2    0.0000
     60 H32        0.8384    7.6926   -0.6400 H         2 RES2    0.0000
     61 H33        0.4862    9.1030   -1.2224 H         2 RES2    0.0000
     62 C20        3.2086    9.0360   -0.8848 C.3       2 RES2    0.0000
     63 C21        3.6105   10.3016   -1.5788 C.3       2 RES2    0.0000
     64 H34        4.3276   10.1165   -2.1900 H         2 RES2    0.0000
     65 H35        3.9022   10.9451   -0.9287 H         2 RES2    0.0000
     66 H36        2.8598   10.6528   -2.0632 H         2 RES2    0.0000
     67 C22        3.0678    7.9447   -1.9352 C.3       2 RES2    0.0000
     68 H37        3.8360    7.9554   -2.5112 H         2 RES2    0.0000
     69 H38        2.2756    8.1029   -2.4548 H         2 RES2    0.0000
     70 H39        3.0033    7.0920   -1.5035 H         2 RES2    0.0000
     71 N6         4.2943    8.6150    0.0678 N.pl3     2 RES2    0.0000
     72 O5         5.5402    8.6981   -0.3037 O.2       2 RES2    0.0000
     73 C23        3.8741    8.2209    1.2575 C.2       2 RES2    0.0000
     74 C24        4.6746    7.7892    2.3418 C.2       2 RES2    0.0000
     75 C25        4.3899    8.3174    3.5968 C.2       2 RES2    0.0000
     76 H40        3.7653    9.0065    3.6156 H         2 RES2    0.0000
     77 O6         4.8481    7.9956    4.6548 O.2       2 RES2    0.0000
     78 C26        5.7505    6.8775    2.1975 C.2       2 RES2    0.0000
     79 N7         6.1731    6.3064    1.0768 N.3       2 RES2    0.0000
     80 H41        6.5529    7.5559   -0.0376 Du        3 SUP3    0.0000
     81 C27        7.4048    5.5422    1.2650 C.3       2 RES2    0.0000
     82 C28        7.4642    4.2901    0.4932 C.3       2 RES2    0.0000
     83 H42        7.4397    4.4912   -0.4455 H         2 RES2    0.0000
     84 H43        6.7141    3.7351    0.7216 H         2 RES2    0.0000
     85 H44        8.2791    3.8235    0.6990 H         2 RES2    0.0000
     86 C29        8.5167    6.3842    0.8408 C.3       2 RES2    0.0000
     87 H45        8.4844    6.4995   -0.1117 H         2 RES2    0.0000
     88 H46        9.3447    5.9632    1.0843 H         2 RES2    0.0000
     89 H47        8.4524    7.2395    1.2701 H         2 RES2    0.0000
     90 C30        7.4286    5.3814    2.7710 C.3       2 RES2    0.0000
     91 C31        8.4932    5.1374    3.5253 C.3       2 RES2    0.0000
     92 H48        9.0834    5.8935    3.5002 H         2 RES2    0.0000
     93 H49        8.9513    4.3625    3.1927 H         2 RES2    0.0000
     94 H50        8.2149    4.9792    4.4314 H         2 RES2    0.0000
     95 C32        6.5441    3.8611    3.0835 C.3       2 RES2    0.0000
     96 H51        6.5312    3.6841    4.0273 H         2 RES2    0.0000
     97 H52        6.9821    3.1371    2.6292 H         2 RES2    0.0000
     98 H53        5.6435    3.9415    2.7610 H         2 RES2    0.0000
     99 N8         6.4888    6.4190    3.1915 N.3       2 RES2    0.0000
    100 H54        6.2440    6.3842    4.3046 H         2 RES2    0.0000
@<TRIPOS>BOND
     1    1    2 1
     2    2    3 1
     3    3    4 1
     4    4    5 1
     5    6    4 1
     6    7    4 1
     7    8    3 1
     8    9    8 1
     9   10    8 1
    10   11    8 1
    11   12    3 1
    12   13   12 1
    13   14   13 1
    14   15   13 1
    15   16   13 1
    16   17   12 1
    17   18   17 1
    18   19   17 1
    19   20   17 1
    20   21   12 1
    21   22   21 1
    22   23    2 2
    23   24   23 1
    24   25   24 1
    25   26   25 1
    26   27   25 2
    27   28   24 2
    28   29   28 1
    29   30   29 1
    30   31   29 1
    31   32   31 1
    32   33   32 1
    33   34   32 1
    34   35   32 1
    35   36   31 1
    36   37   36 1
    37   38   36 1
    38   39   36 1
    39   40   31 1
    40   41   40 1
    41   42   41 1
    42   43   41 1
    43   44   41 1
    44   45   40 1
    45   46   45 1
    46   47   45 1
    47   48   45 1
    48   49   28 1
    49   50   49 1
    50   51   52 1
    51   52   53 1
    52   53   54 1
    53   54   55 1
    54   56   54 1
    55   57   54 1
    56   58   53 1
    57   59   58 1
    58   60   58 1
    59   61   58 1
    60   62   53 1
    61   63   62 1
    62   64   63 1
    63   65   63 1
    64   66   63 1
    65   67   62 1
    66   68   67 1
    67   69   67 1
    68   70   67 1
    69   71   62 1
    70   72   71 1
    71   73   52 2
    72   74   73 1
    73   75   74 1
    74   76   75 1
    75   77   75 2
    76   78   74 2
    77   79   78 1
    78   81   79 1
    79   82   81 1
    80   83   82 1
    81   84   82 1
    82   85   82 1
    83   86   81 1
    84   87   86 1
    85   88   86 1
    86   89   86 1
    87   90   81 1
    88   91   90 1
    89   92   91 1
    90   93   91 1
    91   94   91 1
    92   95   90 1
    93   96   95 1
    94   97   95 1
    95   98   95 1
    96   99   78 1
    97  100   99 1
    98   21   23 1
    99   40   49 1
   100   71   73 1
   101   90   99 1
@<TRIPOS>SUBSTRUCTURE
     1 RES1 1
     2 RES2 51
     3 SUP3 80

@<TRIPOS>CRYSIN
  10.8816   26.8130   12.5715  90.0000  93.3540  90.0000  14 1

