# MOL2 file generated by ConQuest
# Please check atom types

@<TRIPOS>MOLECULE
RODLOM
    19    19     1
SMALL
NO_CHARGES
****
Generated from CSD

@<TRIPOS>ATOM
      1 O1         3.2316    2.6871    4.5480 O.2       1 RES1    0.0000
      2 O2         1.2690    2.6716    3.6311 O.2       1 RES1    0.0000
      3 O3         1.3351   -2.0885    0.6442 O.2       1 RES1    0.0000
      4 O4         3.2276   -2.9575    1.2494 O.2       1 RES1    0.0000
      5 N1         3.8633   -0.7361    2.6996 N.pl3     1 RES1    0.0000
      6 N2         3.8821    0.4044    3.3821 N.2       1 RES1    0.0000
      7 N3         2.3725    2.1756    3.8348 N.pl3     1 RES1    0.0000
      8 N4         2.3850   -2.0540    1.2623 N.pl3     1 RES1    0.0000
      9 C1         5.0971   -1.5275    2.6690 C.3       1 RES1    0.0000
     10 H1         5.7787   -1.0921    3.2222 H         1 RES1    0.0000
     11 H2         5.4189   -1.5945    1.7459 H         1 RES1    0.0000
     12 H3         4.9182   -2.4255    3.0188 H         1 RES1    0.0000
     13 C2         0.4352    0.4682    1.9198 C.3       1 RES1    0.0000
     14 H4         0.1070   -0.2630    1.3564 H         1 RES1    0.0000
     15 H5         0.4223    1.3048    1.4091 H         1 RES1    0.0000
     16 H6        -0.1406    0.5575    2.7074 H         1 RES1    0.0000
     17 C3         2.6746    0.9265    3.1835 C.2       1 RES1    0.0000
     18 C4         1.8258    0.1736    2.3545 C.2       1 RES1    0.0000
     19 C5         2.6590   -0.8992    2.0788 C.2       1 RES1    0.0000
@<TRIPOS>BOND
     1    1    7 2
     2    2    7 2
     3    3    8 2
     4    4    8 2
     5    5    6 1
     6    6   17 2
     7    7   17 1
     8    8   19 1
     9    9    5 1
    10   10    9 1
    11   11    9 1
    12   12    9 1
    13   13   14 1
    14   15   13 1
    15   16   13 1
    16   17   18 1
    17   18   13 1
    18   19    5 1
    19   18   19 2
@<TRIPOS>SUBSTRUCTURE
     1 RES1 1

@<TRIPOS>CRYSIN
  13.3402    6.2017    9.4656  90.0000 106.4290  90.0000  14 1

