# MOL2 file generated by ConQuest
# Please check atom types

@<TRIPOS>MOLECULE
RODZER
    33    35     1
SMALL
USER_CHARGES
****
Generated from CSD

@<TRIPOS>ATOM
      1 O1         0.9933    9.6076    3.4645 O.2       1 RES1   -1.0000
      2 N1         1.5922    9.7275    4.6144 N.pl3     1 RES1    1.0000
      3 N2         2.2300    7.4893    4.4701 N.3       1 RES1    0.0000
      4 C1         2.1763   12.4366    7.0733 C.ar      1 RES1    0.0000
      5 H1         2.5644   12.5747    7.9070 H         1 RES1    0.0000
      6 C2         1.5976   13.4828    6.4230 C.ar      1 RES1    0.0000
      7 H2         1.5976   14.3249    6.8165 H         1 RES1    0.0000
      8 C3         1.0041   13.3059    5.1694 C.ar      1 RES1    0.0000
      9 H3         0.6067   14.0276    4.7377 H         1 RES1    0.0000
     10 C4         1.0088   12.0695    4.5740 C.ar      1 RES1    0.0000
     11 H4         0.6191   11.9519    3.7379 H         1 RES1    0.0000
     12 C5         1.6023   10.9855    5.2322 C.ar      1 RES1    0.0000
     13 C6         2.1957   11.1407    6.5021 C.ar      1 RES1    0.0000
     14 C7         2.7456   10.0105    7.1382 C.ar      1 RES1    0.0000
     15 H5         3.1073   10.0822    7.9925 H         1 RES1    0.0000
     16 C8         2.7433    8.8122    6.4937 C.ar      1 RES1    0.0000
     17 H6         3.1104    8.0698    6.9175 H         1 RES1    0.0000
     18 C9         2.2004    8.6641    5.2011 C.ar      1 RES1    0.0000
     19 C10        2.4897    6.2543    5.2217 C.3       1 RES1    0.0000
     20 H7         1.9212    6.2247    6.0070 H         1 RES1    0.0000
     21 H8         3.4138    6.2399    5.5161 H         1 RES1    0.0000
     22 C11        2.2136    5.0457    4.3457 C.3       1 RES1    0.0000
     23 H9         2.4322    4.2380    4.8362 H         1 RES1    0.0000
     24 H10        1.2686    5.0165    4.1277 H         1 RES1    0.0000
     25 C12        3.0194    5.0876    3.0692 C.3       1 RES1    0.0000
     26 H11        2.7682    4.3422    2.5023 H         1 RES1    0.0000
     27 H12        3.9629    5.0048    3.2768 H         1 RES1    0.0000
     28 C13        2.7744    6.3891    2.3343 C.3       1 RES1    0.0000
     29 H13        3.3562    6.4378    1.5594 H         1 RES1    0.0000
     30 H14        1.8558    6.4167    2.0231 H         1 RES1    0.0000
     31 C14        3.0365    7.5743    3.2355 C.3       1 RES1    0.0000
     32 H15        3.9777    7.6027    3.4659 H         1 RES1    0.0000
     33 H16        2.8180    8.3929    2.7639 H         1 RES1    0.0000
@<TRIPOS>BOND
     1    1    2 1
     2    2   12 ar
     3    3   18 1
     4    4    5 1
     5    6    4 ar
     6    7    6 1
     7    8    6 ar
     8    9    8 1
     9   10    8 ar
    10   11   10 1
    11   12   10 ar
    12   13    4 ar
    13   14   13 ar
    14   15   14 1
    15   16   14 ar
    16   17   16 1
    17   18    2 ar
    18   19    3 1
    19   20   19 1
    20   21   19 1
    21   22   19 1
    22   23   22 1
    23   24   22 1
    24   25   22 1
    25   26   25 1
    26   27   25 1
    27   28   25 1
    28   29   28 1
    29   30   28 1
    30   31    3 1
    31   32   31 1
    32   33   31 1
    33   12   13 ar
    34   16   18 ar
    35   28   31 1
@<TRIPOS>SUBSTRUCTURE
     1 RES1 1

@<TRIPOS>CRYSIN
   7.7780   11.7072   12.9517  90.0000  90.0000  90.0000  19 1

