# MOL2 file generated by ConQuest
# Please check atom types

@<TRIPOS>MOLECULE
ROFGAV
    18    18     1
SMALL
NO_CHARGES
****
Generated from CSD

@<TRIPOS>ATOM
      1 O1         2.8640   10.8438    8.7409 O.2       1 RES1    0.0000
      2 O2         4.1148   12.1473    7.6153 O.2       1 RES1    0.0000
      3 N1         3.3095   11.2358    7.6862 N.pl3     1 RES1    0.0000
      4 N2         1.1218    6.1334    5.7014 N.1       1 RES1    0.0000
      5 C1         2.8813   10.5578    6.4443 C.ar      1 RES1    0.0000
      6 C2         1.5195    7.2019    5.6123 C.1       1 RES1    0.0000
      7 C3         2.9272   11.2165    5.2103 C.ar      1 RES1    0.0000
      8 C4         2.4232    9.2645    6.6025 C.ar      1 RES1    0.0000
      9 H1         2.3938    8.8719    7.4444 H         1 RES1    0.0000
     10 C5         2.0422    9.1719    4.2281 C.ar      1 RES1    0.0000
     11 H2         1.7644    8.7049    3.4735 H         1 RES1    0.0000
     12 C6         2.0074    8.5603    5.4785 C.ar      1 RES1    0.0000
     13 C7         2.4888   10.4712    4.1099 C.ar      1 RES1    0.0000
     14 H3         2.4993   10.8662    3.2686 H         1 RES1    0.0000
     15 C8         3.3659   12.6462    4.9834 C.3       1 RES1    0.0000
     16 H4         3.6384   13.0343    5.8174 H         1 RES1    0.0000
     17 H5         2.6353   13.1511    4.6191 H         1 RES1    0.0000
     18 H6         4.1032   12.6610    4.3674 H         1 RES1    0.0000
@<TRIPOS>BOND
     1    1    3 2
     2    2    3 2
     3    3    5 1
     4    4    6 3
     5    5    7 ar
     6    6   12 1
     7    7   13 ar
     8    8    5 ar
     9    9    8 1
    10   10   11 1
    11   12    8 ar
    12   13   10 ar
    13   14   13 1
    14   15    7 1
    15   16   15 1
    16   17   15 1
    17   18   15 1
    18   10   12 ar
@<TRIPOS>SUBSTRUCTURE
     1 RES1 1

@<TRIPOS>CRYSIN
   3.9088   13.5760   14.8190  90.0000  99.1300  90.0000  14 1

