# MOL2 file generated by ConQuest
# Please check atom types

@<TRIPOS>MOLECULE
ROFJEB
    25    26     1
SMALL
NO_CHARGES
****
Generated from CSD

@<TRIPOS>ATOM
      1 C1        12.0203   -0.3549    4.1707 C.2       1 RES1    0.0000
      2 O1        11.1837    0.3781    4.7928 O.2       1 RES1    0.0000
      3 C2        11.8101   -0.6807    2.6143 C.3       1 RES1    0.0000
      4 C3        10.8838    0.3883    1.8919 C.3       1 RES1    0.0000
      5 C4        11.4353    1.8515    1.7713 C.3       1 RES1    0.0000
      6 C5        10.4209    2.8608    1.0828 C.3       1 RES1    0.0000
      7 C6        11.1901   -2.1627    2.5178 C.3       1 RES1    0.0000
      8 O2        12.6829    1.8384    0.8815 O.3       1 RES1    0.0000
      9 C7        13.9218    1.8500    1.5126 C.2       1 RES1    0.0000
     10 O3        14.0932    1.8573    2.7636 O.2       1 RES1    0.0000
     11 C8        15.0923    1.8398    0.4705 C.ar      1 RES1    0.0000
     12 C9        14.8684    1.9169   -0.9607 C.ar      1 RES1    0.0000
     13 C10       15.9933    1.9082   -1.8550 C.ar      1 RES1    0.0000
     14 C11       17.3233    1.8049   -1.3204 C.ar      1 RES1    0.0000
     15 N1        18.5152    1.8296   -2.3112 N.pl3     1 RES1    0.0000
     16 O4        19.6750    1.7947   -1.8271 O.2       1 RES1    0.0000
     17 O5        18.2985    1.8849   -3.5343 O.2       1 RES1    0.0000
     18 C12       17.5718    1.7147    0.0912 C.ar      1 RES1    0.0000
     19 C13       16.4526    1.7249    0.9825 C.ar      1 RES1    0.0000
     20 C14       13.1973   -1.0501    4.9218 C.ar      1 RES1    0.0000
     21 C15       14.4804   -1.3380    4.3185 C.ar      1 RES1    0.0000
     22 C16       15.5493   -1.9344    5.0763 C.ar      1 RES1    0.0000
     23 C17       15.3089   -2.3023    6.4457 C.ar      1 RES1    0.0000
     24 C18       14.0496   -2.0405    7.0723 C.ar      1 RES1    0.0000
     25 C19       13.0197   -1.3962    6.3183 C.ar      1 RES1    0.0000
@<TRIPOS>BOND
     1    1    2 2
     2    3    1 1
     3    4    3 1
     4    5    4 1
     5    6    5 1
     6    7    3 1
     7    8    5 1
     8    9    8 1
     9   10    9 2
    10   11    9 1
    11   12   11 ar
    12   13   12 ar
    13   14   13 ar
    14   15   14 1
    15   16   15 2
    16   17   15 2
    17   18   14 ar
    18   19   11 ar
    19   20    1 1
    20   21   20 ar
    21   22   21 ar
    22   23   22 ar
    23   24   23 ar
    24   25   20 ar
    25   18   19 ar
    26   24   25 ar
@<TRIPOS>SUBSTRUCTURE
     1 RES1 1

@<TRIPOS>CRYSIN
  18.6160   14.5440    7.5420  90.0000  91.1000  90.0000  14 1

