# MOL2 file generated by ConQuest
# Please check atom types

@<TRIPOS>MOLECULE
ROFQAG
    34    35     1
SMALL
NO_CHARGES
****
Generated from CSD

@<TRIPOS>ATOM
      1 C1         7.3485    9.7867    6.3279 C.ar      1 RES1    0.0000
      2 C2         7.1116    8.8366    5.3328 C.ar      1 RES1    0.0000
      3 H1         6.5931    8.0928    5.5384 H         1 RES1    0.0000
      4 C3         7.6147    8.9599    4.0659 C.ar      1 RES1    0.0000
      5 H2         7.4390    8.3067    3.4274 H         1 RES1    0.0000
      6 C4         8.3830   10.0561    3.7412 C.ar      1 RES1    0.0000
      7 H3         8.7414   10.1396    2.8879 H         1 RES1    0.0000
      8 C5         8.6156   11.0262    4.6907 C.ar      1 RES1    0.0000
      9 H4         9.1247   11.7715    4.4671 H         1 RES1    0.0000
     10 C6         8.1022   10.9087    5.9802 C.ar      1 RES1    0.0000
     11 C7         8.4132   11.9782    6.9613 C.2       1 RES1    0.0000
     12 C8         9.0300   11.6055    8.2854 C.2       1 RES1    0.0000
     13 N1         8.2290   10.9236    9.0972 N.am      1 RES1    0.0000
     14 C9         6.8437   10.6428    8.7065 C.3       1 RES1    0.0000
     15 H5         6.4475   11.4484    8.3400 H         1 RES1    0.0000
     16 H6         6.3355   10.3945    9.4939 H         1 RES1    0.0000
     17 C10        6.7464    9.5357    7.6863 C.3       1 RES1    0.0000
     18 H7         7.1702    8.7473    8.0595 H         1 RES1    0.0000
     19 H8         5.8075    9.3253    7.5619 H         1 RES1    0.0000
     20 N2         8.2564   13.2484    6.8383 N.2       1 RES1    0.0000
     21 O1         7.6707   13.6072    5.6308 O.3       1 RES1    0.0000
     22 H9         7.4691   14.4022    5.6501 H         1 RES1    0.0000
     23 O2        10.1957   11.8927    8.5557 O.2       1 RES1    0.0000
     24 C11        8.6966   10.4808   10.4118 C.3       1 RES1    0.0000
     25 H10        9.6303   10.2277   10.3508 H         1 RES1    0.0000
     26 H11        8.1927    9.6978   10.6834 H         1 RES1    0.0000
     27 C12        8.5398   11.5602   11.4567 C.3       1 RES1    0.0000
     28 H12        9.2040   12.2497   11.3016 H         1 RES1    0.0000
     29 H13        7.6638   11.9654   11.3638 H         1 RES1    0.0000
     30 C13        8.6940   11.0384   12.8586 C.3       1 RES1    0.0000
     31 H14        8.6716   11.7809   13.4824 H         1 RES1    0.0000
     32 H15        7.9506   10.4509   13.0660 H         1 RES1    0.0000
     33 O3         9.9115   10.3286   13.0150 O.3       1 RES1    0.0000
     34 H16       10.4030   10.7376   13.5281 H         1 RES1    0.0000
@<TRIPOS>BOND
     1    1    2 ar
     2    2    3 1
     3    4    2 ar
     4    5    4 1
     5    6    4 ar
     6    7    6 1
     7    8    6 ar
     8    9    8 1
     9   10    1 ar
    10   11   10 1
    11   12   11 1
    12   13   12 1
    13   14   13 1
    14   15   14 1
    15   16   14 1
    16   17    1 1
    17   18   17 1
    18   19   17 1
    19   20   11 2
    20   21   20 1
    21   22   21 1
    22   23   12 2
    23   24   13 1
    24   25   24 1
    25   26   24 1
    26   27   24 1
    27   28   27 1
    28   29   27 1
    29   30   27 1
    30   31   30 1
    31   32   30 1
    32   33   30 1
    33   34   33 1
    34    8   10 ar
    35   14   17 1
@<TRIPOS>SUBSTRUCTURE
     1 RES1 1

@<TRIPOS>CRYSIN
   8.6139   11.7492   12.6941  90.0000  90.0000  90.0000  19 1

