# MOL2 file generated by ConQuest
# Please check atom types

@<TRIPOS>MOLECULE
ROFQIO
    48    50     2
SMALL
NO_CHARGES
****
Generated from CSD

@<TRIPOS>ATOM
      1 N1        10.9277    0.8351    0.4765 N.2       1 RES1    0.0000
      2 O1        11.9062    1.2401    1.4111 O.3       1 RES1    0.0000
      3 C1        11.3957    2.3192    2.0782 C.2       1 RES1    0.0000
      4 C2        10.2024    2.6010    1.6475 C.2       1 RES1    0.0000
      5 H1         9.6473    3.2988    1.9096 H         1 RES1    0.0000
      6 C3         9.9695    1.6753    0.7697 C.2       1 RES1    0.0000
      7 N2         8.8775    1.5193   -0.1631 N.pl3     1 RES1    0.0000
      8 O2         7.9314    2.3042   -0.0458 O.2       1 RES1    0.0000
      9 O3         8.8329    0.6339   -0.9933 O.2       1 RES1    0.0000
     10 N3        12.2425    2.8274    2.9890 N.3       1 RES1    0.0000
     11 O4        11.5395    3.5765    3.9456 O.3       1 RES1    0.0000
     12 H2        11.8880    4.3150    4.0244 H         1 RES1    0.0000
     13 C4        13.3000    1.9721    3.6340 C.3       1 RES1    0.0000
     14 H3        13.8187    1.5088    2.9432 H         1 RES1    0.0000
     15 O5        12.6497    1.0157    4.4605 O.3       1 RES1    0.0000
     16 C5        12.9941    1.2326    5.8460 C.3       1 RES1    0.0000
     17 H4        12.1959    1.4031    6.3683 H         1 RES1    0.0000
     18 H5        13.4337    0.4447    6.2088 H         1 RES1    0.0000
     19 C6        13.8592    2.3394    5.8991 C.3       1 RES1    0.0000
     20 H6        14.6554    2.1059    6.4013 H         1 RES1    0.0000
     21 H7        13.4175    3.0729    6.3536 H         1 RES1    0.0000
     22 C7        14.2360    2.7519    4.5339 C.3       1 RES1    0.0000
     23 H8        15.1618    2.5295    4.3469 H         1 RES1    0.0000
     24 H9        14.1124    3.7073    4.4147 H         1 RES1    0.0000
     25 N4        14.7729    4.5781    1.4038 N.2       2 RES2    0.0000
     26 O6        13.7721    4.2853    0.3830 O.3       2 RES2    0.0000
     27 C8        14.1833    3.2198   -0.3537 C.2       2 RES2    0.0000
     28 C9        15.3705    2.8072    0.0568 C.2       2 RES2    0.0000
     29 H10       15.9074    2.1356   -0.3024 H         2 RES2    0.0000
     30 C10       15.6318    3.6373    1.1912 C.2       2 RES2    0.0000
     31 N5        16.8616    3.6373    2.0287 N.pl3     2 RES2    0.0000
     32 O7        17.5929    2.7106    1.8454 O.2       2 RES2    0.0000
     33 O8        16.9467    4.4674    2.8607 O.2       2 RES2    0.0000
     34 N6        13.2393    2.8022   -1.2773 N.3       2 RES2    0.0000
     35 O9        13.9585    2.0959   -2.2669 O.3       2 RES2    0.0000
     36 H11       13.6485    1.3397   -2.3402 H         2 RES2    0.0000
     37 C11       12.3235    3.7782   -1.7630 C.3       2 RES2    0.0000
     38 H12       11.9305    4.2622   -1.0061 H         2 RES2    0.0000
     39 O10       12.8827    4.6868   -2.6463 O.3       2 RES2    0.0000
     40 C12       12.3803    4.4775   -3.9694 C.3       2 RES2    0.0000
     41 H13       12.9860    3.9150   -4.4789 H         2 RES2    0.0000
     42 H14       12.2749    5.3212   -4.4331 H         2 RES2    0.0000
     43 C13       11.1019    3.8235   -3.8063 C.3       2 RES2    0.0000
     44 H15       10.9216    3.2349   -4.5558 H         2 RES2    0.0000
     45 H16       10.3908    4.4785   -3.7458 H         2 RES2    0.0000
     46 C14       11.2032    3.0387   -2.5345 C.3       2 RES2    0.0000
     47 H17       11.4484    2.1155   -2.7086 H         2 RES2    0.0000
     48 H18       10.3665    3.0553   -2.0433 H         2 RES2    0.0000
@<TRIPOS>BOND
     1    1    2 1
     2    2    3 1
     3    3    4 2
     4    4    5 1
     5    6    1 2
     6    7    6 1
     7    8    7 2
     8    9    7 2
     9   10    3 1
    10   11   10 1
    11   12   11 1
    12   13   10 1
    13   14   13 1
    14   15   13 1
    15   16   15 1
    16   17   16 1
    17   18   16 1
    18   19   16 1
    19   20   19 1
    20   21   19 1
    21   22   13 1
    22   23   22 1
    23   24   22 1
    24   25   26 1
    25   26   27 1
    26   27   28 2
    27   28   29 1
    28   30   25 2
    29   31   30 1
    30   32   31 2
    31   33   31 2
    32   34   27 1
    33   35   34 1
    34   36   35 1
    35   37   34 1
    36   38   37 1
    37   39   37 1
    38   40   39 1
    39   41   40 1
    40   42   40 1
    41   43   40 1
    42   44   43 1
    43   45   43 1
    44   46   37 1
    45   47   46 1
    46   48   46 1
    47    4    6 1
    48   19   22 1
    49   28   30 1
    50   43   46 1
@<TRIPOS>SUBSTRUCTURE
     1 RES1 1
     2 RES2 25

@<TRIPOS>CRYSIN
  20.2590    5.0309   18.3260  90.0000  90.0000  90.0000  33 1

