# MOL2 file generated by ConQuest
# Please check atom types

@<TRIPOS>MOLECULE
ROFWEO
    74    76     1
SMALL
NO_CHARGES
****
Generated from CSD

@<TRIPOS>ATOM
      1 O1         4.7331    7.4761    6.1671 O.2       1 RES1    0.0000
      2 O2         6.8726    7.8592    5.6073 O.3       1 RES1    0.0000
      3 O3         6.0555    7.5667    1.8056 O.2       1 RES1    0.0000
      4 O4         6.0229    6.1251    3.5230 O.3       1 RES1    0.0000
      5 O5         1.7117    8.4996    2.5824 O.3       1 RES1    0.0000
      6 N1         0.9129    8.1195    1.4226 N.3       1 RES1    0.0000
      7 C1         5.2622    8.3297    3.9520 C.3       1 RES1    0.0000
      8 C2         5.9196    9.7159    3.7434 C.3       1 RES1    0.0000
      9 H1         6.7614    9.7920    4.2591 H         1 RES1    0.0000
     10 H2         6.1112    9.8779    2.7863 H         1 RES1    0.0000
     11 C3         4.8748   10.6825    4.2612 C.3       1 RES1    0.0000
     12 H3         5.0566   11.6071    3.9558 H         1 RES1    0.0000
     13 H4         4.8309   10.6691    5.2497 H         1 RES1    0.0000
     14 C4         3.5987   10.1390    3.6440 C.3       1 RES1    0.0000
     15 H5         3.5222   10.4163    2.6968 H         1 RES1    0.0000
     16 H6         2.8043   10.4660    4.1369 H         1 RES1    0.0000
     17 C5         3.7176    8.6027    3.7559 C.3       1 RES1    0.0000
     18 H7         3.2471    8.3188    4.5918 H         1 RES1    0.0000
     19 C6         3.0415    7.9001    2.5750 C.3       1 RES1    0.0000
     20 H8         3.5072    8.1757    1.7346 H         1 RES1    0.0000
     21 C7         5.8286    7.3198    2.9606 C.2       1 RES1    0.0000
     22 C8         6.4357    5.0464    2.6454 C.3       1 RES1    0.0000
     23 H9         7.3178    5.2494    2.2430 H         1 RES1    0.0000
     24 H10        5.7770    4.9261    1.9157 H         1 RES1    0.0000
     25 C9         6.5193    3.8075    3.4791 C.3       1 RES1    0.0000
     26 H11        7.1919    3.9309    4.1805 H         1 RES1    0.0000
     27 H12        6.7733    3.0486    2.9129 H         1 RES1    0.0000
     28 H13        5.6471    3.6306    3.8893 H         1 RES1    0.0000
     29 C10        5.5557    7.8321    5.3714 C.2       1 RES1    0.0000
     30 C11        7.3471    7.2565    6.8425 C.3       1 RES1    0.0000
     31 H14        6.5921    7.1543    7.4741 H         1 RES1    0.0000
     32 H15        8.0223    7.8465    7.2625 H         1 RES1    0.0000
     33 C12        7.9457    5.9333    6.5654 C.3       1 RES1    0.0000
     34 H16        7.2653    5.3407    6.1825 H         1 RES1    0.0000
     35 H17        8.2843    5.5465    7.3989 H         1 RES1    0.0000
     36 H18        8.6843    6.0360    5.9293 H         1 RES1    0.0000
     37 C13        0.9099    9.2800    0.4723 C.3       1 RES1    0.0000
     38 C14        2.3022    9.3900   -0.1489 C.3       1 RES1    0.0000
     39 H19        2.9263    9.7606    0.5095 H         1 RES1    0.0000
     40 H20        2.2653    9.9787   -0.9317 H         1 RES1    0.0000
     41 H21        2.6088    8.5000   -0.4233 H         1 RES1    0.0000
     42 C15        0.5541   10.6419    1.0790 C.3       1 RES1    0.0000
     43 H22       -0.4102   10.6830    1.2459 H         1 RES1    0.0000
     44 H23        0.8089   11.3537    0.4549 H         1 RES1    0.0000
     45 H24        1.0377   10.7594    1.9234 H         1 RES1    0.0000
     46 C16       -0.0551    8.9173   -0.6733 C.3       1 RES1    0.0000
     47 H25       -0.1333    9.6937   -1.2819 H         1 RES1    0.0000
     48 H26        0.3323    8.1678   -1.1902 H         1 RES1    0.0000
     49 C17       -1.4381    8.5235   -0.2089 C.3       1 RES1    0.0000
     50 H27       -1.8786    9.2927    0.2324 H         1 RES1    0.0000
     51 H28       -1.9901    8.2514   -0.9840 H         1 RES1    0.0000
     52 C18       -1.3108    7.3762    0.7614 C.3       1 RES1    0.0000
     53 H29       -0.9411    6.5918    0.2836 H         1 RES1    0.0000
     54 H30       -2.2127    7.1310    1.0877 H         1 RES1    0.0000
     55 C19       -0.4157    7.6899    1.9663 C.3       1 RES1    0.0000
     56 C20       -0.2068    6.3974    2.7503 C.3       1 RES1    0.0000
     57 H31        0.2900    5.7578    2.1994 H         1 RES1    0.0000
     58 H32       -1.0774    6.0160    2.9892 H         1 RES1    0.0000
     59 H33        0.3012    6.5896    3.5663 H         1 RES1    0.0000
     60 C21       -1.1004    8.6949    2.9075 C.3       1 RES1    0.0000
     61 H34       -0.4319    9.0922    3.5042 H         1 RES1    0.0000
     62 H35       -1.7803    8.2329    3.4409 H         1 RES1    0.0000
     63 H36       -1.5257    9.4012    2.3772 H         1 RES1    0.0000
     64 C22        2.9982    6.3933    2.6253 C.ar      1 RES1    0.0000
     65 C23        2.8627    5.6798    3.8130 C.ar      1 RES1    0.0000
     66 H37        2.8218    6.1463    4.6398 H         1 RES1    0.0000
     67 C24        2.7864    4.2972    3.8014 C.ar      1 RES1    0.0000
     68 H38        2.6946    3.8211    4.6180 H         1 RES1    0.0000
     69 C25        2.8440    3.6086    2.6035 C.ar      1 RES1    0.0000
     70 H39        2.7881    2.6606    2.5997 H         1 RES1    0.0000
     71 C26        2.9829    4.2948    1.4142 C.ar      1 RES1    0.0000
     72 H40        3.0202    3.8237    0.5902 H         1 RES1    0.0000
     73 C27        3.0678    5.6798    1.4338 C.ar      1 RES1    0.0000
     74 H41        3.1756    6.1503    0.6153 H         1 RES1    0.0000
@<TRIPOS>BOND
     1    1   29 2
     2    2   29 1
     3    3   21 2
     4    4   21 1
     5    5    6 1
     6    6   37 1
     7    7    8 1
     8    8    9 1
     9   10    8 1
    10   11    8 1
    11   12   11 1
    12   13   11 1
    13   14   11 1
    14   15   14 1
    15   16   14 1
    16   17    7 1
    17   18   17 1
    18   19    5 1
    19   20   19 1
    20   21    7 1
    21   22    4 1
    22   23   22 1
    23   24   22 1
    24   25   22 1
    25   26   25 1
    26   27   25 1
    27   28   25 1
    28   29    7 1
    29   30    2 1
    30   31   30 1
    31   32   30 1
    32   33   30 1
    33   34   33 1
    34   35   33 1
    35   36   33 1
    36   37   38 1
    37   38   39 1
    38   40   38 1
    39   41   38 1
    40   42   37 1
    41   43   42 1
    42   44   42 1
    43   45   42 1
    44   46   37 1
    45   47   46 1
    46   48   46 1
    47   49   46 1
    48   50   49 1
    49   51   49 1
    50   52   49 1
    51   53   52 1
    52   54   52 1
    53   55    6 1
    54   56   55 1
    55   57   56 1
    56   58   56 1
    57   59   56 1
    58   60   55 1
    59   61   60 1
    60   62   60 1
    61   63   60 1
    62   64   19 1
    63   65   64 ar
    64   66   65 1
    65   67   65 ar
    66   68   67 1
    67   69   67 ar
    68   70   69 1
    69   71   69 ar
    70   72   71 1
    71   73   64 ar
    72   74   73 1
    73   14   17 1
    74   17   19 1
    75   52   55 1
    76   71   73 ar
@<TRIPOS>SUBSTRUCTURE
     1 RES1 1

@<TRIPOS>CRYSIN
  10.7760   10.9870   11.2530  99.8500  98.3300  99.5300   2 1

