# MOL2 file generated by ConQuest
# Please check atom types

@<TRIPOS>MOLECULE
ROFXEQ
    32    33     1
SMALL
NO_CHARGES
****
Generated from CSD

@<TRIPOS>ATOM
      1 C1         1.9593    9.1785   -0.0901 C.2       1 RES1    0.0000
      2 C2         2.1107   10.0386   -1.3057 C.3       1 RES1    0.0000
      3 H1         1.2836   10.0515   -1.7937 H         1 RES1    0.0000
      4 H2         2.8065    9.6847   -1.8642 H         1 RES1    0.0000
      5 H3         2.3383   10.9325   -1.0386 H         1 RES1    0.0000
      6 C3        -0.4546   10.8429    1.6699 C.ar      1 RES1    0.0000
      7 C4        -0.5500   10.0945    2.8276 C.ar      1 RES1    0.0000
      8 H4        -0.0031    9.3504    2.9389 H         1 RES1    0.0000
      9 C5        -2.0488   12.2267    2.4141 C.ar      1 RES1    0.0000
     10 H5        -2.5906   12.9740    2.3044 H         1 RES1    0.0000
     11 C6        -2.1625   11.4930    3.5647 C.ar      1 RES1    0.0000
     12 H6        -2.7813   11.7519    4.2085 H         1 RES1    0.0000
     13 N1         1.1519    9.3962    0.8718 N.2       1 RES1    0.0000
     14 N2        -1.1884   11.9084    1.4428 N.ar      1 RES1    0.0000
     15 N3        -1.4118   10.4233    3.7824 N.ar      1 RES1    0.0000
     16 O1         0.3986   10.5724    0.6258 O.3       1 RES1    0.0000
     17 C1B        2.7803    7.9625    0.0901 C.2       1 RES1    0.0000
     18 C2B        2.6289    7.1024    1.3057 C.3       1 RES1    0.0000
     19 H1B        3.4560    7.0895    1.7937 H         1 RES1    0.0000
     20 H2B        1.9331    7.4563    1.8642 H         1 RES1    0.0000
     21 H3B        2.4013    6.2085    1.0386 H         1 RES1    0.0000
     22 C3B        5.1942    6.2981   -1.6699 C.ar      1 RES1    0.0000
     23 C4B        5.2896    7.0465   -2.8276 C.ar      1 RES1    0.0000
     24 H4B        4.7427    7.7906   -2.9389 H         1 RES1    0.0000
     25 C5B        6.7884    4.9143   -2.4141 C.ar      1 RES1    0.0000
     26 H5B        7.3302    4.1670   -2.3044 H         1 RES1    0.0000
     27 C6B        6.9021    5.6480   -3.5647 C.ar      1 RES1    0.0000
     28 H6B        7.5209    5.3891   -4.2085 H         1 RES1    0.0000
     29 N1B        3.5877    7.7448   -0.8718 N.2       1 RES1    0.0000
     30 N2B        5.9280    5.2326   -1.4428 N.ar      1 RES1    0.0000
     31 N3B        6.1514    6.7177   -3.7824 N.ar      1 RES1    0.0000
     32 O1B        4.3410    6.5686   -0.6258 O.3       1 RES1    0.0000
@<TRIPOS>BOND
     1    1    2 1
     2    2    3 1
     3    4    2 1
     4    5    2 1
     5    6    7 ar
     6    7    8 1
     7    9   10 1
     8   11    9 ar
     9   12   11 1
    10   13    1 2
    11   14    6 ar
    12   15    7 ar
    13   16    6 1
    14   17    1 1
    15   18   17 1
    16   19   18 1
    17   20   18 1
    18   21   18 1
    19   22   23 ar
    20   23   24 1
    21   25   26 1
    22   27   25 ar
    23   28   27 1
    24   29   17 2
    25   30   22 ar
    26   31   23 ar
    27   32   22 1
    28    9   14 ar
    29   11   15 ar
    30   13   16 1
    31   25   30 ar
    32   27   31 ar
    33   29   32 1
@<TRIPOS>SUBSTRUCTURE
     1 RES1 1

@<TRIPOS>CRYSIN
   4.7396   17.1410    7.9110  90.0000  98.0650  90.0000 231 1

