# MOL2 file generated by ConQuest
# Please check atom types

@<TRIPOS>MOLECULE
ROGJUT
    46    47     1
SMALL
NO_CHARGES
****
Generated from CSD

@<TRIPOS>ATOM
      1 N1         1.1624    2.7576    5.1018 N.2       1 RES1    0.0000
      2 O1         0.4289    3.5405    6.0079 O.3       1 RES1    0.0000
      3 O2         1.9315    1.7311    2.7853 O.3       1 RES1    0.0000
      4 H1         1.4975    2.2333    3.2672 H         1 RES1    0.0000
      5 O3         3.5993    0.0287    1.5037 O.3       1 RES1    0.0000
      6 H2         3.0257    0.5356    1.2081 H         1 RES1    0.0000
      7 C1        -0.5708    4.2876    5.2939 C.3       1 RES1    0.0000
      8 H3        -1.1790    3.6832    4.8390 H         1 RES1    0.0000
      9 H4        -0.1500    4.8576    4.6300 H         1 RES1    0.0000
     10 C2        -1.3225    5.1228    6.2951 C.3       1 RES1    0.0000
     11 H5        -1.9182    5.7234    5.8190 H         1 RES1    0.0000
     12 H6        -0.6898    5.6654    6.7896 H         1 RES1    0.0000
     13 C3         2.0639    2.0637    5.6817 C.2       1 RES1    0.0000
     14 H7         2.1665    2.1320    6.6036 H         1 RES1    0.0000
     15 C4         2.9279    1.1725    4.9339 C.ar      1 RES1    0.0000
     16 C5         2.8305    1.0396    3.5408 C.ar      1 RES1    0.0000
     17 C6         3.6733    0.1658    2.8657 C.ar      1 RES1    0.0000
     18 C7         4.6053   -0.5676    3.5498 C.ar      1 RES1    0.0000
     19 H8         5.1621   -1.1546    3.0907 H         1 RES1    0.0000
     20 C8         4.7224   -0.4381    4.9282 C.ar      1 RES1    0.0000
     21 H9         5.3618   -0.9313    5.3901 H         1 RES1    0.0000
     22 C9         3.8930    0.4192    5.6092 C.ar      1 RES1    0.0000
     23 H10        3.9741    0.5003    6.5317 H         1 RES1    0.0000
     24 N1D       -4.6238    6.6636    8.4719 N.2       1 RES1    0.0000
     25 O1D       -3.8903    5.8807    7.5658 O.3       1 RES1    0.0000
     26 O2D       -5.3929    7.6901   10.7884 O.3       1 RES1    0.0000
     27 H1D       -4.9589    7.1879   10.3065 H         1 RES1    0.0000
     28 O3D       -7.0607    9.3925   12.0700 O.3       1 RES1    0.0000
     29 H2D       -6.4872    8.8856   12.3656 H         1 RES1    0.0000
     30 C1D       -2.8906    5.1336    8.2798 C.3       1 RES1    0.0000
     31 H3D       -2.2824    5.7380    8.7347 H         1 RES1    0.0000
     32 H4D       -3.3114    4.5636    8.9437 H         1 RES1    0.0000
     33 C2D       -2.1389    4.2984    7.2786 C.3       1 RES1    0.0000
     34 H5D       -1.5433    3.6978    7.7547 H         1 RES1    0.0000
     35 H6D       -2.7717    3.7558    6.7841 H         1 RES1    0.0000
     36 C3D       -5.5253    7.3575    7.8920 C.2       1 RES1    0.0000
     37 H7D       -5.6279    7.2892    6.9701 H         1 RES1    0.0000
     38 C4D       -6.3893    8.2487    8.6398 C.ar      1 RES1    0.0000
     39 C5D       -6.2919    8.3816   10.0329 C.ar      1 RES1    0.0000
     40 C6D       -7.1347    9.2554   10.7080 C.ar      1 RES1    0.0000
     41 C7D       -8.0667    9.9888   10.0239 C.ar      1 RES1    0.0000
     42 H8D       -8.6235   10.5758   10.4830 H         1 RES1    0.0000
     43 C8D       -8.1838    9.8593    8.6455 C.ar      1 RES1    0.0000
     44 H9D       -8.8232   10.3525    8.1836 H         1 RES1    0.0000
     45 C9D       -7.3544    9.0020    7.9645 C.ar      1 RES1    0.0000
     46 H10D      -7.4355    8.9209    7.0420 H         1 RES1    0.0000
@<TRIPOS>BOND
     1    1    2 1
     2    2    7 1
     3    3    4 1
     4    5    6 1
     5    7    8 1
     6    9    7 1
     7   10    7 1
     8   11   10 1
     9   12   10 1
    10   13    1 2
    11   14   13 1
    12   15   13 1
    13   16    3 1
    14   17    5 1
    15   18   17 ar
    16   19   18 1
    17   20   18 ar
    18   21   20 1
    19   22   15 ar
    20   23   22 1
    21   24   25 1
    22   25   30 1
    23   26   27 1
    24   28   29 1
    25   30   31 1
    26   32   30 1
    27   33   10 1
    28   34   33 1
    29   35   33 1
    30   36   24 2
    31   37   36 1
    32   38   36 1
    33   39   26 1
    34   40   28 1
    35   41   40 ar
    36   42   41 1
    37   43   41 ar
    38   44   43 1
    39   45   38 ar
    40   46   45 1
    41   15   16 ar
    42   16   17 ar
    43   20   22 ar
    44   30   33 1
    45   38   39 ar
    46   39   40 ar
    47   43   45 ar
@<TRIPOS>SUBSTRUCTURE
     1 RES1 1

@<TRIPOS>CRYSIN
  27.4840    4.7106   14.0081  90.0000 104.3060  90.0000  15 1

