# MOL2 file generated by ConQuest
# Please check atom types

@<TRIPOS>MOLECULE
ROGTUD
   119   124     1
SMALL
NO_CHARGES
****
Generated from CSD

@<TRIPOS>ATOM
      1 C1        10.4717    2.9486   20.3435 C.3       1 RES1    0.0000
      2 C2        10.2047    1.7053   19.4701 C.3       1 RES1    0.0000
      3 H1         9.8847    1.9961   18.5685 H         1 RES1    0.0000
      4 C3        11.8194   -0.9642   18.0651 C.3       1 RES1    0.0000
      5 H2        12.7781   -0.7697   18.0118 H         1 RES1    0.0000
      6 H3        11.3611   -0.5616   17.2978 H         1 RES1    0.0000
      7 H4        11.6820   -1.9352   18.0562 H         1 RES1    0.0000
      8 C4        11.2582   -0.3874   19.3487 C.3       1 RES1    0.0000
      9 C5        11.8762   -0.9580   20.5984 C.3       1 RES1    0.0000
     10 H5        12.8283   -0.7291   20.6258 H         1 RES1    0.0000
     11 H6        11.7745   -1.9335   20.5976 H         1 RES1    0.0000
     12 H7        11.4258   -0.5836   21.3842 H         1 RES1    0.0000
     13 C6         9.2871    0.6144   20.0062 C.3       1 RES1    0.0000
     14 H8         9.4132    0.5312   20.9950 H         1 RES1    0.0000
     15 C7         7.7959    0.6944   19.6906 C.3       1 RES1    0.0000
     16 H9         7.3425   -0.0575   20.1478 H         1 RES1    0.0000
     17 H10        7.4416    1.5326   20.0792 H         1 RES1    0.0000
     18 C8         7.4182    0.6558   18.2311 C.3       1 RES1    0.0000
     19 H11        8.0015    0.0152   17.7516 H         1 RES1    0.0000
     20 H12        6.4815    0.3502   18.1369 H         1 RES1    0.0000
     21 C9         7.4524    2.0291   16.3159 C.2       1 RES1    0.0000
     22 C10        7.4907    3.4400   15.7836 C.ar      1 RES1    0.0000
     23 C11        7.4811    4.5491   16.6209 C.ar      1 RES1    0.0000
     24 H13        7.4654    4.4489   17.5661 H         1 RES1    0.0000
     25 C12        7.4944    5.8068   16.0352 C.ar      1 RES1    0.0000
     26 C13        7.4565    6.0097   14.6696 C.ar      1 RES1    0.0000
     27 H14        7.4337    6.8814   14.2945 H         1 RES1    0.0000
     28 C14        7.4527    4.8793   13.8812 C.ar      1 RES1    0.0000
     29 C15        7.4842    3.5987   14.4000 C.ar      1 RES1    0.0000
     30 H15        7.5010    2.8419   13.8245 H         1 RES1    0.0000
     31 C16       10.2467    2.3314   22.7554 C.2       1 RES1    0.0000
     32 C17       10.4956    1.9472   25.1006 C.3       1 RES1    0.0000
     33 H16       10.9332    1.2163   25.6038 H         1 RES1    0.0000
     34 H17        9.5361    1.7220   25.0047 H         1 RES1    0.0000
     35 C18       10.6329    3.2321   25.8672 C.ar      1 RES1    0.0000
     36 C19       10.6757    3.1944   27.2634 C.ar      1 RES1    0.0000
     37 H18       10.6335    2.3615   27.7176 H         1 RES1    0.0000
     38 C20       10.7810    4.3762   27.9893 C.ar      1 RES1    0.0000
     39 H19       10.7933    4.3440   28.9379 H         1 RES1    0.0000
     40 C21       10.8685    5.5904   27.3495 C.ar      1 RES1    0.0000
     41 H20       10.9544    6.3909   27.8528 H         1 RES1    0.0000
     42 C22       10.8302    5.6396   25.9735 C.ar      1 RES1    0.0000
     43 H21       10.8897    6.4771   25.5292 H         1 RES1    0.0000
     44 C23       10.7073    4.4690   25.2333 C.ar      1 RES1    0.0000
     45 H22       10.6731    4.5132   24.2847 H         1 RES1    0.0000
     46 C24        9.2612    3.8836   20.3888 C.3       1 RES1    0.0000
     47 H23        8.9286    4.0581   19.4721 H         1 RES1    0.0000
     48 H24        8.5311    3.4745   20.9163 H         1 RES1    0.0000
     49 C25        8.8190    6.1676   20.6545 C.3       1 RES1    0.0000
     50 H25        7.8906    5.9274   20.8981 H         1 RES1    0.0000
     51 H26        8.8507    6.3164   19.6758 H         1 RES1    0.0000
     52 C26        9.2097    7.4353   21.3675 C.ar      1 RES1    0.0000
     53 C27        9.7575    7.4204   22.6406 C.ar      1 RES1    0.0000
     54 H27        9.9903    6.5939   23.0483 H         1 RES1    0.0000
     55 C28        9.9652    8.6123   23.3214 C.ar      1 RES1    0.0000
     56 H28       10.3377    8.5967   24.1959 H         1 RES1    0.0000
     57 C29        9.6367    9.8174   22.7419 C.ar      1 RES1    0.0000
     58 H29        9.7632   10.6283   23.2197 H         1 RES1    0.0000
     59 C30        9.1240    9.8389   21.4649 C.ar      1 RES1    0.0000
     60 H30        8.9048   10.6689   21.0575 H         1 RES1    0.0000
     61 C31        8.9255    8.6527   20.7693 C.ar      1 RES1    0.0000
     62 H31        8.5931    8.6762   19.8796 H         1 RES1    0.0000
     63 C32       11.6005    3.7532   19.6631 C.2       1 RES1    0.0000
     64 C33       12.0823    5.0366   17.6879 C.3       1 RES1    0.0000
     65 H32       13.0422    4.9310   17.9452 H         1 RES1    0.0000
     66 C34       11.5745    6.3888   18.1492 C.3       1 RES1    0.0000
     67 H33       11.7005    6.4619   19.1292 H         1 RES1    0.0000
     68 H34       10.6031    6.4484   17.9654 H         1 RES1    0.0000
     69 C35       12.2763    7.5555   17.4725 C.3       1 RES1    0.0000
     70 H35       13.2483    7.5293   17.7052 H         1 RES1    0.0000
     71 C36       12.1231    7.3810   15.9579 C.3       1 RES1    0.0000
     72 H36       11.1683    7.4752   15.7124 H         1 RES1    0.0000
     73 H37       12.6289    8.0943   15.4946 H         1 RES1    0.0000
     74 C37       12.6309    6.0191   15.4910 C.3       1 RES1    0.0000
     75 H38       13.6035    5.9612   15.6701 H         1 RES1    0.0000
     76 H39       12.5008    5.9477   14.5123 H         1 RES1    0.0000
     77 C38       11.9277    4.8256   16.1751 C.3       1 RES1    0.0000
     78 H40       10.9531    4.8921   15.9625 H         1 RES1    0.0000
     79 C39       12.4386    3.4463   15.6150 C.3       1 RES1    0.0000
     80 C40       12.3959    3.4886   14.0783 C.ar      1 RES1    0.0000
     81 C41       13.5508    3.7408   13.3176 C.ar      1 RES1    0.0000
     82 H41       14.3708    3.9177   13.7640 H         1 RES1    0.0000
     83 C42       13.5203    3.7374   11.9370 C.ar      1 RES1    0.0000
     84 H42       14.3140    3.9177   11.4465 H         1 RES1    0.0000
     85 C43       12.3569    3.4762   11.2754 C.ar      1 RES1    0.0000
     86 H43       12.3489    3.4441   10.3250 H         1 RES1    0.0000
     87 C44       11.1987    3.2597   11.9778 C.ar      1 RES1    0.0000
     88 H44       10.3839    3.1041   11.5151 H         1 RES1    0.0000
     89 C45       11.2159    3.2683   13.3786 C.ar      1 RES1    0.0000
     90 H45       10.4090    3.1210   13.8568 H         1 RES1    0.0000
     91 C46       11.6939    8.8721   17.9362 C.3       1 RES1    0.0000
     92 H46       12.1812    9.6117   17.5156 H         1 RES1    0.0000
     93 H47       11.7758    8.9401   18.9114 H         1 RES1    0.0000
     94 H48       10.7484    8.9181   17.6830 H         1 RES1    0.0000
     95 C47       13.8425    3.1332   16.1191 C.3       1 RES1    0.0000
     96 H49       14.1846    2.3361   15.6620 H         1 RES1    0.0000
     97 H50       13.8135    2.9688   17.0840 H         1 RES1    0.0000
     98 H51       14.4328    3.8941   15.9343 H         1 RES1    0.0000
     99 C48       11.5170    2.2894   16.0706 C.3       1 RES1    0.0000
    100 H52       11.6728    1.5055   15.5027 H         1 RES1    0.0000
    101 H53       10.5806    2.5678   15.9948 H         1 RES1    0.0000
    102 H54       11.7150    2.0621   17.0033 H         1 RES1    0.0000
    103 N1         7.5418    6.9980   16.8970 N.pl3     1 RES1    0.0000
    104 N2         7.4092    5.0652   12.4144 N.pl3     1 RES1    0.0000
    105 N3        10.9771    2.5932   21.6604 N.am      1 RES1    0.0000
    106 H55       11.7665    2.5171   21.7191 H         1 RES1    0.0000
    107 O1        11.4674    1.0402   19.3360 O.3       1 RES1    0.0000
    108 O2         9.8327   -0.5466   19.3569 O.3       1 RES1    0.0000
    109 O3         7.5644    1.9875   17.6445 O.3       1 RES1    0.0000
    110 O4         7.3281    1.0676   15.6162 O.2       1 RES1    0.0000
    111 O5         7.1834    6.8809   18.0649 O.2       1 RES1    0.0000
    112 O6         7.9698    8.0346   16.4133 O.2       1 RES1    0.0000
    113 O7         7.0945    6.1608   11.9864 O.2       1 RES1    0.0000
    114 O8         7.6988    4.1003   11.7182 O.2       1 RES1    0.0000
    115 O9         9.0326    2.3212   22.8532 O.2       1 RES1    0.0000
    116 O10       11.0963    2.0548   23.7903 O.3       1 RES1    0.0000
    117 O11        9.6902    5.0958   20.9974 O.3       1 RES1    0.0000
    118 O12       12.6288    4.0788   20.2055 O.2       1 RES1    0.0000
    119 O13       11.2643    4.0367   18.4003 O.3       1 RES1    0.0000
@<TRIPOS>BOND
     1    1    2 1
     2    2    3 1
     3    4    5 1
     4    6    4 1
     5    7    4 1
     6    8    4 1
     7    9    8 1
     8   10    9 1
     9   11    9 1
    10   12    9 1
    11   13    2 1
    12   14   13 1
    13   15   13 1
    14   16   15 1
    15   17   15 1
    16   18   15 1
    17   19   18 1
    18   20   18 1
    19   21   22 1
    20   22   23 ar
    21   23   24 1
    22   25   23 ar
    23   26   25 ar
    24   27   26 1
    25   28   26 ar
    26   29   22 ar
    27   30   29 1
    28   31  105 1
    29   32   33 1
    30   34   32 1
    31   35   32 1
    32   36   35 ar
    33   37   36 1
    34   38   36 ar
    35   39   38 1
    36   40   38 ar
    37   41   40 1
    38   42   40 ar
    39   43   42 1
    40   44   35 ar
    41   45   44 1
    42   46    1 1
    43   47   46 1
    44   48   46 1
    45   49   50 1
    46   51   49 1
    47   52   49 1
    48   53   52 ar
    49   54   53 1
    50   55   53 ar
    51   56   55 1
    52   57   55 ar
    53   58   57 1
    54   59   57 ar
    55   60   59 1
    56   61   52 ar
    57   62   61 1
    58   63    1 1
    59   64   65 1
    60   66   64 1
    61   67   66 1
    62   68   66 1
    63   69   66 1
    64   70   69 1
    65   71   69 1
    66   72   71 1
    67   73   71 1
    68   74   71 1
    69   75   74 1
    70   76   74 1
    71   77   64 1
    72   78   77 1
    73   79   77 1
    74   80   79 1
    75   81   80 ar
    76   82   81 1
    77   83   81 ar
    78   84   83 1
    79   85   83 ar
    80   86   85 1
    81   87   85 ar
    82   88   87 1
    83   89   80 ar
    84   90   89 1
    85   91   69 1
    86   92   91 1
    87   93   91 1
    88   94   91 1
    89   95   79 1
    90   96   95 1
    91   97   95 1
    92   98   95 1
    93   99   79 1
    94  100   99 1
    95  101   99 1
    96  102   99 1
    97  103   25 1
    98  104   28 1
    99  105    1 1
   100  106  105 1
   101  107    2 1
   102  108    8 1
   103  109   18 1
   104  110   21 2
   105  111  103 2
   106  112  103 2
   107  113  104 2
   108  114  104 2
   109  115   31 2
   110  116   31 1
   111  117   46 1
   112  118   63 2
   113  119   63 1
   114    8  107 1
   115   13  108 1
   116   21  109 1
   117   28   29 ar
   118   32  116 1
   119   42   44 ar
   120   49  117 1
   121   59   61 ar
   122   64  119 1
   123   74   77 1
   124   87   89 ar
@<TRIPOS>SUBSTRUCTURE
     1 RES1 1

@<TRIPOS>CRYSIN
  13.2060   16.9160   20.1700  90.0000  90.0000  90.0000  19 1

