# MOL2 file generated by ConQuest
# Please check atom types

@<TRIPOS>MOLECULE
ROGTOY
    35    36     1
SMALL
NO_CHARGES
****
Generated from CSD

@<TRIPOS>ATOM
      1 C1         3.2965    5.7680   17.9055 C.3       1 RES1    0.0000
      2 O1         2.4569    4.6640   17.9762 O.3       1 RES1    0.0000
      3 C2         2.2014    4.2375   19.3255 C.3       1 RES1    0.0000
      4 H1         1.6062    3.4586   19.3144 H         1 RES1    0.0000
      5 H2         1.7758    4.9668   19.8231 H         1 RES1    0.0000
      6 H3         3.0466    3.9971   19.7588 H         1 RES1    0.0000
      7 C3         3.3480    6.1973   16.4337 C.3       1 RES1    0.0000
      8 O2         2.0033    6.3593   15.9226 O.3       1 RES1    0.0000
      9 N1         1.4048    7.6016   16.2975 N.pl3     1 RES1    0.0000
     10 O3         0.2134    7.5701   16.2209 O.2       1 RES1    0.0000
     11 O4         2.1321    8.5045   16.6109 O.2       1 RES1    0.0000
     12 C4         4.0242    5.1577   15.5455 C.3       1 RES1    0.0000
     13 O5         4.2657    5.7863   14.2539 O.3       1 RES1    0.0000
     14 N2         3.3851    5.4359   13.2129 N.pl3     1 RES1    0.0000
     15 O6         2.5901    4.5446   13.3922 O.2       1 RES1    0.0000
     16 O7         3.5805    6.0930   12.2251 O.2       1 RES1    0.0000
     17 C5         5.3828    4.8435   16.1435 C.3       1 RES1    0.0000
     18 C6         5.2033    4.4275   17.6071 C.3       1 RES1    0.0000
     19 O8         4.6226    5.5043   18.3515 O.3       1 RES1    0.0000
     20 O9         6.0206    3.7890   15.4331 O.3       1 RES1    0.0000
     21 C7         7.3025    3.5036   16.0248 C.3       1 RES1    0.0000
     22 C8         7.9493    2.3790   15.2862 C.3       1 RES1    0.0000
     23 H4         8.0735    2.6338   14.3477 H         1 RES1    0.0000
     24 H5         7.3783    1.5839   15.3369 H         1 RES1    0.0000
     25 H6         8.8202    2.1818   15.6887 H         1 RES1    0.0000
     26 O10        7.1484    3.0857   17.3699 O.3       1 RES1    0.0000
     27 C9         6.5604    4.1024   18.1807 C.3       1 RES1    0.0000
     28 H7         2.9686    6.4832   18.4841 H         1 RES1    0.0000
     29 H8         3.8470    7.0234   16.3620 H         1 RES1    0.0000
     30 H9         3.4911    4.3671   15.4825 H         1 RES1    0.0000
     31 H10        5.8917    5.6548   16.0972 H         1 RES1    0.0000
     32 H11        4.6346    3.6198   17.6519 H         1 RES1    0.0000
     33 H12        7.7925    4.3401   15.9856 H         1 RES1    0.0000
     34 H13        7.1488    4.9344   18.1833 H         1 RES1    0.0000
     35 H14        6.4975    3.7638   19.1025 H         1 RES1    0.0000
@<TRIPOS>BOND
     1    1    2 1
     2    2    3 1
     3    3    4 1
     4    5    3 1
     5    6    3 1
     6    7    1 1
     7    8    7 1
     8    9    8 1
     9   10    9 2
    10   11    9 2
    11   12    7 1
    12   13   12 1
    13   14   13 1
    14   15   14 2
    15   16   14 2
    16   17   12 1
    17   18   17 1
    18   19    1 1
    19   20   17 1
    20   21   20 1
    21   22   21 1
    22   23   22 1
    23   24   22 1
    24   25   22 1
    25   26   21 1
    26   27   18 1
    27   28    1 1
    28   29    7 1
    29   30   12 1
    30   31   17 1
    31   32   18 1
    32   33   21 1
    33   34   27 1
    34   35   27 1
    35   18   19 1
    36   26   27 1
@<TRIPOS>SUBSTRUCTURE
     1 RES1 1

@<TRIPOS>CRYSIN
   7.5729    9.0044   18.9134  90.0000  90.0000  90.0000  19 1

