# MOL2 file generated by ConQuest
# Please check atom types

@<TRIPOS>MOLECULE
ROGVAL
    32    33     1
SMALL
NO_CHARGES
****
Generated from CSD

@<TRIPOS>ATOM
      1 N1        -3.0906   -0.3788   11.3617 N.pl3     1 RES1    0.0000
      2 N2         1.6756    0.4794    9.0749 N.pl3     1 RES1    0.0000
      3 O1        -3.6519   -0.0231   12.3882 O.2       1 RES1    0.0000
      4 O2        -3.0134   -1.5453   11.0051 O.2       1 RES1    0.0000
      5 O3         1.9070   -0.6153    9.5629 O.2       1 RES1    0.0000
      6 O4         1.7960    1.5350    9.6686 O.2       1 RES1    0.0000
      7 O5         3.3622    1.4351    7.1762 O.2       1 RES1    0.0000
      8 O6         1.8662    1.1155    5.5182 O.3       1 RES1    0.0000
      9 C1        -2.4545    0.6550   10.5241 C.ar      1 RES1    0.0000
     10 C2        -1.7168    0.2398    9.4290 C.ar      1 RES1    0.0000
     11 H1        -1.6397   -0.6629    9.2190 H         1 RES1    0.0000
     12 C3        -1.0970    1.2072    8.6529 C.ar      1 RES1    0.0000
     13 C4        -1.2470    2.5500    8.9926 C.ar      1 RES1    0.0000
     14 H2        -0.8412    3.2019    8.4685 H         1 RES1    0.0000
     15 C5        -1.9897    2.9312   10.0951 C.ar      1 RES1    0.0000
     16 H3        -2.0748    3.8319   10.3092 H         1 RES1    0.0000
     17 C6        -2.6053    1.9787   10.8779 C.ar      1 RES1    0.0000
     18 H4        -3.1070    2.2205   11.6226 H         1 RES1    0.0000
     19 C7        -0.2642    0.8601    7.4610 C.3       1 RES1    0.0000
     20 H5        -0.4680    1.3755    6.6527 H         1 RES1    0.0000
     21 C8         1.2131    0.5372    7.6586 C.3       1 RES1    0.0000
     22 C9         0.2510   -0.5171    7.2114 C.3       1 RES1    0.0000
     23 H6         0.3080   -0.8161    6.2898 H         1 RES1    0.0000
     24 H7         0.0133   -1.2083    7.8478 H         1 RES1    0.0000
     25 C10        2.2797    1.0889    6.7767 C.2       1 RES1    0.0000
     26 C11        2.8135    1.6134    4.5153 C.3       1 RES1    0.0000
     27 H8         2.5969    1.2362    3.6483 H         1 RES1    0.0000
     28 H9         3.7118    1.3337    4.7500 H         1 RES1    0.0000
     29 C12        2.7568    3.1024    4.4417 C.3       1 RES1    0.0000
     30 H10        1.8499    3.3810    4.2971 H         1 RES1    0.0000
     31 H11        3.3058    3.4079    3.7152 H         1 RES1    0.0000
     32 H12        3.0793    3.4756    5.2649 H         1 RES1    0.0000
@<TRIPOS>BOND
     1    1    3 2
     2    2    5 2
     3    4    1 2
     4    6    2 2
     5    7   25 2
     6    8   25 1
     7    9    1 1
     8   10    9 ar
     9   11   10 1
    10   12   10 ar
    11   13   12 ar
    12   14   13 1
    13   15   13 ar
    14   16   15 1
    15   17    9 ar
    16   18   17 1
    17   19   12 1
    18   20   19 1
    19   21    2 1
    20   22   19 1
    21   23   22 1
    22   24   22 1
    23   25   21 1
    24   26    8 1
    25   27   26 1
    26   28   26 1
    27   29   26 1
    28   30   29 1
    29   31   29 1
    30   32   29 1
    31   15   17 ar
    32   19   21 1
    33   21   22 1
@<TRIPOS>SUBSTRUCTURE
     1 RES1 1

@<TRIPOS>CRYSIN
   7.4930    9.9530    8.5790  90.0000 105.5440  90.0000   4 1

