# MOL2 file generated by ConQuest
# Please check atom types

@<TRIPOS>MOLECULE
ROHCIA
    23    24     1
SMALL
NO_CHARGES
****
Generated from CSD

@<TRIPOS>ATOM
      1 C1         1.3040    5.5522    6.6134 C.3       1 RES1    0.0000
      2 H1         1.7152    6.2876    7.1523 H         1 RES1    0.0000
      3 O1         2.1248    4.4061    6.6590 O.3       1 RES1    0.0000
      4 C2         1.8284    3.7727    7.9107 C.3       1 RES1    0.0000
      5 H2         2.5092    4.0043    8.5925 H         1 RES1    0.0000
      6 H3         1.7996    2.7881    7.8083 H         1 RES1    0.0000
      7 C3         0.4565    4.3168    8.3081 C.3       1 RES1    0.0000
      8 H4        -0.1934    3.5806    8.4335 H         1 RES1    0.0000
      9 H5         0.5131    4.8422    9.1455 H         1 RES1    0.0000
     10 O2         0.0768    5.1533    7.1993 O.3       1 RES1    0.0000
     11 C4         1.0830    6.0168    5.1971 C.ar      1 RES1    0.0000
     12 C5         1.2387    5.1369    4.1324 C.ar      1 RES1    0.0000
     13 H6         1.4950    4.2335    4.2791 H         1 RES1    0.0000
     14 C6         1.0105    5.6126    2.8539 C.ar      1 RES1    0.0000
     15 N1         1.1470    4.6838    1.7189 N.pl3     1 RES1    0.0000
     16 O3         1.2661    3.4812    1.9560 O.2       1 RES1    0.0000
     17 O4         1.1270    5.1495    0.5788 O.2       1 RES1    0.0000
     18 C7         0.6359    6.9207    2.5895 C.ar      1 RES1    0.0000
     19 H7         0.4941    7.2173    1.6986 H         1 RES1    0.0000
     20 C8         0.4734    7.7861    3.6620 C.ar      1 RES1    0.0000
     21 H8         0.2100    8.6854    3.5093 H         1 RES1    0.0000
     22 C9         0.6959    7.3386    4.9602 C.ar      1 RES1    0.0000
     23 H9         0.5841    7.9358    5.6904 H         1 RES1    0.0000
@<TRIPOS>BOND
     1    1    2 1
     2    3    1 1
     3    4    3 1
     4    5    4 1
     5    6    4 1
     6    7    4 1
     7    8    7 1
     8    9    7 1
     9   10    1 1
    10   11    1 1
    11   12   11 ar
    12   13   12 1
    13   14   12 ar
    14   15   14 1
    15   16   15 2
    16   17   15 2
    17   18   14 ar
    18   19   18 1
    19   20   18 ar
    20   21   20 1
    21   22   11 ar
    22   23   22 1
    23    7   10 1
    24   20   22 ar
@<TRIPOS>SUBSTRUCTURE
     1 RES1 1

@<TRIPOS>CRYSIN
   7.8931   11.9354   18.0705  90.0000  90.0000  90.0000  61 1

