# MOL2 file generated by ConQuest
# Please check atom types

@<TRIPOS>MOLECULE
ROHCUM
    40    41     2
SMALL
NO_CHARGES
****
Generated from CSD

@<TRIPOS>ATOM
      1 N1        -0.1195    6.4981    6.9820 N.3       1 RES1    0.0000
      2 C1        -0.4496    7.8966    7.3656 C.3       1 RES1    0.0000
      3 C2         0.7129    8.6011    8.0822 C.3       1 RES1    0.0000
      4 C3         2.0318    8.4018    7.4095 C.2       1 RES1    0.0000
      5 C4         2.3138    7.0366    6.8995 C.3       1 RES1    0.0000
      6 C5         1.1041    6.4657    6.1521 C.3       1 RES1    0.0000
      7 O1         0.1984    5.7915    8.2070 O.3       1 RES1    0.0000
      8 N2         2.8933    9.3328    7.3289 N.2       1 RES1    0.0000
      9 O2         2.4786   10.5508    7.9928 O.3       1 RES1    0.0000
     10 O3         4.1304    8.9967    6.5888 Du        2 SUP2    0.0000
     11 C6        -0.9844    8.5928    6.1287 C.ar      1 RES1    0.0000
     12 C7        -2.1987    8.1857    5.6114 C.ar      1 RES1    0.0000
     13 C8        -2.6955    8.7253    4.4507 C.ar      1 RES1    0.0000
     14 C9        -2.0016    9.6866    3.7780 C.ar      1 RES1    0.0000
     15 C10       -0.8120   10.1114    4.2734 C.ar      1 RES1    0.0000
     16 C11       -0.3052    9.5759    5.4326 C.ar      1 RES1    0.0000
     17 C12        1.3028    5.0880    5.5645 C.ar      1 RES1    0.0000
     18 C13        2.1436    4.1498    6.1155 C.ar      1 RES1    0.0000
     19 C14        2.2803    2.9130    5.5542 C.ar      1 RES1    0.0000
     20 C15        1.5968    2.5769    4.4360 C.ar      1 RES1    0.0000
     21 C16        0.7406    3.4901    3.8674 C.ar      1 RES1    0.0000
     22 C17        0.6074    4.7405    4.4316 C.ar      1 RES1    0.0000
     23 H1        -1.1904    7.8486    8.0060 H         1 RES1    0.0000
     24 H2         0.5236    9.5509    8.1291 H         1 RES1    0.0000
     25 H3         0.7702    8.2661    8.9908 H         1 RES1    0.0000
     26 H4         2.5379    6.4553    7.6440 H         1 RES1    0.0000
     27 H5         3.0774    7.0669    6.3031 H         1 RES1    0.0000
     28 H6         0.9400    7.0669    5.3959 H         1 RES1    0.0000
     29 H7        -0.3877    5.1799    8.2551 H         1 RES1    0.0000
     30 H8         3.1473   11.0611    7.8829 H         1 RES1    0.0000
     31 H9        -2.6886    7.5324    6.0569 H         1 RES1    0.0000
     32 H10       -3.5140    8.4331    4.1210 H         1 RES1    0.0000
     33 H11       -2.3396   10.0467    2.9911 H         1 RES1    0.0000
     34 H12       -0.3344   10.7710    3.8235 H         1 RES1    0.0000
     35 H13        0.5114    9.8807    5.7550 H         1 RES1    0.0000
     36 H14        2.6270    4.3606    6.8805 H         1 RES1    0.0000
     37 H15        2.8511    2.2920    5.9455 H         1 RES1    0.0000
     38 H16        1.7052    1.7357    4.0535 H         1 RES1    0.0000
     39 H17        0.2537    3.2657    3.1068 H         1 RES1    0.0000
     40 H18        0.0370    5.3604    4.0374 H         1 RES1    0.0000
@<TRIPOS>BOND
     1    1    2 1
     2    2    3 1
     3    3    4 1
     4    4    5 1
     5    5    6 1
     6    6    1 1
     7    7    1 1
     8    8    4 2
     9    9    8 1
    10   11    2 1
    11   12   11 ar
    12   13   12 ar
    13   14   13 ar
    14   15   14 ar
    15   16   11 ar
    16   17    6 1
    17   18   17 ar
    18   19   18 ar
    19   20   19 ar
    20   21   20 ar
    21   22   17 ar
    22   23    2 1
    23   24    3 1
    24   25    3 1
    25   26    5 1
    26   27    5 1
    27   28    6 1
    28   29    7 1
    29   30    9 1
    30   31   12 1
    31   32   13 1
    32   33   14 1
    33   34   15 1
    34   35   16 1
    35   36   18 1
    36   37   19 1
    37   38   20 1
    38   39   21 1
    39   40   22 1
    40   15   16 ar
    41   21   22 ar
@<TRIPOS>SUBSTRUCTURE
     1 RES1 1
     2 SUP2 10

@<TRIPOS>CRYSIN
   9.8900   10.4370   14.7900  90.0000  97.7500  90.0000 231 1

