# MOL2 file generated by ConQuest
# Please check atom types

@<TRIPOS>MOLECULE
ROHDAT
    42    43     2
SMALL
NO_CHARGES
****
Generated from CSD

@<TRIPOS>ATOM
      1 N1         3.7140    7.4898    0.8432 N.3       1 RES1    0.0000
      2 C1         2.2910    7.1507    0.5320 C.3       1 RES1    0.0000
      3 C2         1.6494    6.3241    1.6543 C.3       1 RES1    0.0000
      4 C3         1.8767    6.9176    2.9974 C.2       1 RES1    0.0000
      5 C4         3.2573    7.4460    3.2906 C.3       1 RES1    0.0000
      6 C5         3.8089    8.2443    2.1181 C.3       1 RES1    0.0000
      7 O1         4.3622    6.2040    1.0721 O.3       1 RES1    0.0000
      8 N2         1.0108    6.9826    3.9149 N.2       1 RES1    0.0000
      9 O2        -0.2678    6.4739    3.5074 O.3       1 RES1    0.0000
     10 O3         1.4385    7.4926    5.1697 Du        2 SUP2    0.0000
     11 N3         1.8092    9.2432   -0.7900 N.3       1 RES1    0.0000
     12 C6         1.5344    8.4251    0.2710 C.2       1 RES1    0.0000
     13 C7         0.5525    9.0228    1.0159 C.2       1 RES1    0.0000
     14 C8         0.2406   10.2365    0.3865 C.2       1 RES1    0.0000
     15 C9         1.0088   10.3636   -0.7017 C.2       1 RES1    0.0000
     16 C10        2.6906    9.0002   -1.9043 C.3       1 RES1    0.0000
     17 N4         5.7175    9.7999    1.6955 N.pl3     1 RES1    0.0000
     18 C11        6.9918    9.9977    2.1211 C.2       1 RES1    0.0000
     19 C12        7.2943    9.0680    3.0396 C.2       1 RES1    0.0000
     20 C13        6.1615    8.2556    3.2113 C.2       1 RES1    0.0000
     21 C14        5.1911    8.7190    2.3640 C.2       1 RES1    0.0000
     22 C15        5.0723   10.6179    0.6916 C.3       1 RES1    0.0000
     23 H1         2.2782    6.6138   -0.2871 H         1 RES1    0.0000
     24 H2         0.6954    6.2591    1.4937 H         1 RES1    0.0000
     25 H3         2.0157    5.4269    1.6372 H         1 RES1    0.0000
     26 H4         3.8520    6.7042    3.4823 H         1 RES1    0.0000
     27 H5         3.2237    8.0140    4.0776 H         1 RES1    0.0000
     28 H6         3.2447    9.0397    2.0227 H         1 RES1    0.0000
     29 H7         5.0923    6.2606    0.4628 H         1 RES1    0.0000
     30 H8        -0.5763    6.6039    4.1518 H         1 RES1    0.0000
     31 H9         0.1651    8.6879    1.7918 H         1 RES1    0.0000
     32 H10       -0.3933   10.8511    0.6776 H         1 RES1    0.0000
     33 H11        1.0036   11.0800   -1.2939 H         1 RES1    0.0000
     34 H12        2.6782    9.7589   -2.4925 H         1 RES1    0.0000
     35 H13        2.3962    8.2217   -2.3811 H         1 RES1    0.0000
     36 H14        3.5837    8.8603   -1.5810 H         1 RES1    0.0000
     37 H15        7.5617   10.6702    1.8250 H         1 RES1    0.0000
     38 H16        8.1077    8.9776    3.4813 H         1 RES1    0.0000
     39 H17        6.0855    7.5350    3.7945 H         1 RES1    0.0000
     40 H18        4.1782   10.3000    0.5461 H         1 RES1    0.0000
     41 H19        5.5680   10.5671   -0.1295 H         1 RES1    0.0000
     42 H20        5.0424   11.5293    0.9928 H         1 RES1    0.0000
@<TRIPOS>BOND
     1    1    2 1
     2    2    3 1
     3    3    4 1
     4    4    5 1
     5    5    6 1
     6    6    1 1
     7    7    1 1
     8    8    4 2
     9    9    8 1
    10   11   12 1
    11   12    2 1
    12   13   12 2
    13   14   13 1
    14   15   11 1
    15   16   11 1
    16   17   18 1
    17   18   19 2
    18   19   20 1
    19   20   21 2
    20   21    6 1
    21   22   17 1
    22   23    2 1
    23   24    3 1
    24   25    3 1
    25   26    5 1
    26   27    5 1
    27   28    6 1
    28   29    7 1
    29   30    9 1
    30   31   13 1
    31   32   14 1
    32   33   15 1
    33   34   16 1
    34   35   16 1
    35   36   16 1
    36   37   18 1
    37   38   19 1
    38   39   20 1
    39   40   22 1
    40   41   22 1
    41   42   22 1
    42   14   15 2
    43   17   21 1
@<TRIPOS>SUBSTRUCTURE
     1 RES1 1
     2 SUP2 10

@<TRIPOS>CRYSIN
  10.1690   14.1290   10.0390  90.0000  90.6700  90.0000  14 1

