# MOL2 file generated by ConQuest
# Please check atom types

@<TRIPOS>MOLECULE
ROHGAY
    53    55     1
SMALL
NO_CHARGES
****
Generated from CSD

@<TRIPOS>ATOM
      1 C1        11.6779    0.6755    7.8779 C.3       1 RES1    0.0000
      2 H1        11.9753   -0.0612    7.2708 H         1 RES1    0.0000
      3 C2        10.7842    1.6059    7.0541 C.3       1 RES1    0.0000
      4 H2         9.9835    1.1086    6.7492 H         1 RES1    0.0000
      5 H3        10.4803    2.3574    7.6214 H         1 RES1    0.0000
      6 C3        11.5347    2.1573    5.8398 C.3       1 RES1    0.0000
      7 H4        11.7618    1.4123    5.2285 H         1 RES1    0.0000
      8 H5        10.9485    2.7866    5.3497 H         1 RES1    0.0000
      9 C4        12.8132    2.8782    6.2559 C.3       1 RES1    0.0000
     10 H6        12.5788    3.7000    6.7565 H         1 RES1    0.0000
     11 H7        13.3157    3.1468    5.4461 H         1 RES1    0.0000
     12 C5        13.6983    1.9898    7.1299 C.3       1 RES1    0.0000
     13 H8        14.4697    2.5185    7.4563 H         1 RES1    0.0000
     14 H9        14.0511    1.2434    6.5842 H         1 RES1    0.0000
     15 C6        12.9333    1.4206    8.3286 C.3       1 RES1    0.0000
     16 H10       13.5213    0.8018    8.8295 H         1 RES1    0.0000
     17 H11       12.6767    2.1591    8.9362 H         1 RES1    0.0000
     18 C7        10.8913    0.0287    9.0191 C.3       1 RES1    0.0000
     19 H12       10.1328   -0.4888    8.6235 H         1 RES1    0.0000
     20 C8        11.7175   -0.9219    9.8982 C.3       1 RES1    0.0000
     21 H13       12.4187   -0.3672   10.3459 H         1 RES1    0.0000
     22 C9        12.4502   -2.0108    9.1034 C.3       1 RES1    0.0000
     23 H14       11.7869   -2.5635    8.6177 H         1 RES1    0.0000
     24 H15       13.0415   -1.5843    8.4336 H         1 RES1    0.0000
     25 C10       13.2880   -2.9111   10.0152 C.3       1 RES1    0.0000
     26 H16       13.7166   -3.6202    9.4738 H         1 RES1    0.0000
     27 H17       14.0040   -2.3752   10.4394 H         1 RES1    0.0000
     28 C11       12.4243   -3.5525   11.1002 C.3       1 RES1    0.0000
     29 H18       11.7626   -4.1594   10.6834 H         1 RES1    0.0000
     30 H19       12.9955   -4.0881   11.7060 H         1 RES1    0.0000
     31 C12       11.6968   -2.4742   11.9012 C.3       1 RES1    0.0000
     32 H20       11.0993   -2.9067   12.5621 H         1 RES1    0.0000
     33 H21       12.3609   -1.9352   12.3999 H         1 RES1    0.0000
     34 C13       10.8760   -1.5573   11.0106 C.3       1 RES1    0.0000
     35 H22       10.4470   -0.8421   11.5628 H         1 RES1    0.0000
     36 C14        8.6106   -1.9264   10.2672 C.2       1 RES1    0.0000
     37 C15        7.6650   -2.9568    9.7448 C.ar      1 RES1    0.0000
     38 C16        8.0258   -4.2995    9.6654 C.ar      1 RES1    0.0000
     39 H23        8.9012   -4.5715    9.9135 H         1 RES1    0.0000
     40 C17        7.1098   -5.2364    9.2247 C.ar      1 RES1    0.0000
     41 H24        7.3379   -6.1573    9.1816 H         1 RES1    0.0000
     42 C18        5.8548   -4.7979    8.8490 C.ar      1 RES1    0.0000
     43 C19        5.4810   -3.4714    8.8865 C.ar      1 RES1    0.0000
     44 H25        4.6157   -3.2011    8.6031 H         1 RES1    0.0000
     45 C20        6.3974   -2.5457    9.3477 C.ar      1 RES1    0.0000
     46 H26        6.1609   -1.6269    9.3934 H         1 RES1    0.0000
     47 N1         4.8603   -5.7906    8.4018 N.pl3     1 RES1    0.0000
     48 O1        10.3450    1.0799    9.8312 O.3       1 RES1    0.0000
     49 H27        9.6737    0.7925   10.2480 H         1 RES1    0.0000
     50 O2         9.8417   -2.4148   10.4159 O.3       1 RES1    0.0000
     51 O3         8.2761   -0.7868   10.5290 O.2       1 RES1    0.0000
     52 O4         5.1815   -6.9566    8.4050 O.2       1 RES1    0.0000
     53 O5         3.7625   -5.4005    8.0493 O.2       1 RES1    0.0000
@<TRIPOS>BOND
     1    1    2 1
     2    3    1 1
     3    4    3 1
     4    5    3 1
     5    6    3 1
     6    7    6 1
     7    8    6 1
     8    9    6 1
     9   10    9 1
    10   11    9 1
    11   12    9 1
    12   13   12 1
    13   14   12 1
    14   15    1 1
    15   16   15 1
    16   17   15 1
    17   18    1 1
    18   19   18 1
    19   20   18 1
    20   21   20 1
    21   22   20 1
    22   23   22 1
    23   24   22 1
    24   25   22 1
    25   26   25 1
    26   27   25 1
    27   28   25 1
    28   29   28 1
    29   30   28 1
    30   31   28 1
    31   32   31 1
    32   33   31 1
    33   34   20 1
    34   35   34 1
    35   36   37 1
    36   37   38 ar
    37   38   39 1
    38   40   38 ar
    39   41   40 1
    40   42   40 ar
    41   43   42 ar
    42   44   43 1
    43   45   37 ar
    44   46   45 1
    45   47   42 1
    46   48   18 1
    47   49   48 1
    48   50   34 1
    49   51   36 2
    50   52   47 2
    51   53   47 2
    52   12   15 1
    53   31   34 1
    54   36   50 1
    55   43   45 ar
@<TRIPOS>SUBSTRUCTURE
     1 RES1 1

@<TRIPOS>CRYSIN
  16.3011    7.7470   14.8991  90.0000 101.3300  90.0000  14 1

