# MOL2 file generated by ConQuest
# Please check atom types

@<TRIPOS>MOLECULE
ROHGEA
   132   136     1
SMALL
NO_CHARGES
****
Generated from CSD

@<TRIPOS>ATOM
      1 N1        11.3572    5.9572   20.0632 N.3       1 RES1    0.0000
      2 N2         5.0988    2.7711   21.3226 N.3       1 RES1    0.0000
      3 O1        11.3281    6.9440   19.2503 O.2       1 RES1    0.0000
      4 O2        11.5130    2.8273   22.8424 O.3       1 RES1    0.0000
      5 O3         9.9560    3.3468   24.3835 O.2       1 RES1    0.0000
      6 O4         8.3370    1.0928   23.3644 O.3       1 RES1    0.0000
      7 O5         7.6750    0.5350   25.4299 O.2       1 RES1    0.0000
      8 O6         4.1064    3.2742   20.6859 O.2       1 RES1    0.0000
      9 C1        12.3397    0.8253   24.6456 C.ar      1 RES1    0.0000
     10 H1        13.0307    1.3798   24.3622 H         1 RES1    0.0000
     11 C2        11.0244    1.2151   24.4506 C.ar      1 RES1    0.0000
     12 C3         9.9864    0.3841   24.8573 C.ar      1 RES1    0.0000
     13 C4         8.5387    0.6924   24.6145 C.2       1 RES1    0.0000
     14 C5         6.9651    1.3888   22.9479 C.3       1 RES1    0.0000
     15 H2         6.3297    0.8008   23.4065 H         1 RES1    0.0000
     16 C6         6.9337    1.1515   21.4634 C.3       1 RES1    0.0000
     17 H3         7.1625    0.2251   21.2873 H         1 RES1    0.0000
     18 H4         7.6050    1.7077   21.0404 H         1 RES1    0.0000
     19 C7         5.5748    1.4532   20.8387 C.3       1 RES1    0.0000
     20 C8         5.2871    3.2726   22.7158 C.3       1 RES1    0.0000
     21 C9         6.6552    2.8314   23.2331 C.3       1 RES1    0.0000
     22 H5         7.3392    3.3860   22.8256 H         1 RES1    0.0000
     23 H6         6.6909    2.9766   24.1915 H         1 RES1    0.0000
     24 C10       10.7448    2.5843   23.9009 C.2       1 RES1    0.0000
     25 C11       11.4038    4.1403   22.2230 C.3       1 RES1    0.0000
     26 H7        11.3469    4.8392   22.9070 H         1 RES1    0.0000
     27 C12       12.6340    4.3181   21.3913 C.3       1 RES1    0.0000
     28 H8        12.6729    3.6110   20.7282 H         1 RES1    0.0000
     29 H9        13.4147    4.2349   21.9611 H         1 RES1    0.0000
     30 C13       12.6762    5.6734   20.6794 C.3       1 RES1    0.0000
     31 C14       10.0542    5.5413   20.6320 C.3       1 RES1    0.0000
     32 C15       10.2037    4.1876   21.3198 C.3       1 RES1    0.0000
     33 H10        9.4054    4.0049   21.8403 H         1 RES1    0.0000
     34 H11       10.2840    3.4952   20.6458 H         1 RES1    0.0000
     35 C16        4.5396    0.3841   21.1662 C.3       1 RES1    0.0000
     36 H12        4.4362    0.3205   22.1190 H         1 RES1    0.0000
     37 H13        4.8318   -0.4616   20.8184 H         1 RES1    0.0000
     38 H14        3.6978    0.6206   20.7683 H         1 RES1    0.0000
     39 C17        5.7421    1.5576   19.3302 C.3       1 RES1    0.0000
     40 H15        4.8921    1.7492   18.9263 H         1 RES1    0.0000
     41 H16        6.0791    0.7266   18.9874 H         1 RES1    0.0000
     42 H17        6.3596    2.2630   19.1250 H         1 RES1    0.0000
     43 C18        4.1503    2.7605   23.5949 C.3       1 RES1    0.0000
     44 H18        4.1803    1.8014   23.6300 H         1 RES1    0.0000
     45 H19        3.3091    3.0402   23.2265 H         1 RES1    0.0000
     46 H20        4.2452    3.1160   24.4820 H         1 RES1    0.0000
     47 C19        5.2448    4.7960   22.6479 C.3       1 RES1    0.0000
     48 H21        4.3874    5.0781   22.3219 H         1 RES1    0.0000
     49 H22        5.9311    5.1099   22.0563 H         1 RES1    0.0000
     50 H23        5.3882    5.1597   23.5247 H         1 RES1    0.0000
     51 C20        9.0713    5.4084   19.4751 C.3       1 RES1    0.0000
     52 H24        9.3852    4.7381   18.8639 H         1 RES1    0.0000
     53 H25        8.9999    6.2492   19.0192 H         1 RES1    0.0000
     54 H26        8.2105    5.1540   19.8136 H         1 RES1    0.0000
     55 C21        9.5681    6.6047   21.6048 C.3       1 RES1    0.0000
     56 H27       10.1911    6.6838   22.3320 H         1 RES1    0.0000
     57 H28        8.7072    6.3552   21.9486 H         1 RES1    0.0000
     58 H29        9.4990    7.4471   21.1492 H         1 RES1    0.0000
     59 C22       13.0232    6.8037   21.6451 C.3       1 RES1    0.0000
     60 H30       12.3701    6.8363   22.3470 H         1 RES1    0.0000
     61 H31       13.0265    7.6388   21.1718 H         1 RES1    0.0000
     62 H32       13.8914    6.6463   22.0237 H         1 RES1    0.0000
     63 C23       13.6960    5.6049   19.5605 C.3       1 RES1    0.0000
     64 H33       13.4646    4.8922   18.9591 H         1 RES1    0.0000
     65 H34       14.5667    5.4402   19.9314 H         1 RES1    0.0000
     66 H35       13.7029    6.4367   19.0819 H         1 RES1    0.0000
     67 C3B       12.6405   -0.3841   25.2593 C.ar      1 RES1    0.0000
     68 C2B       11.6026   -1.2151   25.6660 C.ar      1 RES1    0.0000
     69 C1B       10.2872   -0.8253   25.4710 C.ar      1 RES1    0.0000
     70 H1B        9.5962   -1.3798   25.7544 H         1 RES1    0.0000
     71 C10B      11.8822   -2.5843   26.2157 C.2       1 RES1    0.0000
     72 O2B       11.1140   -2.8273   27.2742 O.3       1 RES1    0.0000
     73 C11B      11.2231   -4.1403   27.8936 C.3       1 RES1    0.0000
     74 H7B       11.2801   -4.8392   27.2096 H         1 RES1    0.0000
     75 C12B       9.9929   -4.3181   28.7253 C.3       1 RES1    0.0000
     76 H8B        9.9541   -3.6110   29.3884 H         1 RES1    0.0000
     77 H9B        9.2122   -4.2349   28.1555 H         1 RES1    0.0000
     78 C13B       9.9508   -5.6734   29.4372 C.3       1 RES1    0.0000
     79 N1B       11.2698   -5.9572   30.0534 N.3       1 RES1    0.0000
     80 O1B       11.2989   -6.9440   30.8663 O.2       1 RES1    0.0000
     81 C14B      12.5728   -5.5413   29.4846 C.3       1 RES1    0.0000
     82 C15B      12.4233   -4.1876   28.7967 C.3       1 RES1    0.0000
     83 H10B      13.2216   -4.0049   28.2763 H         1 RES1    0.0000
     84 H11B      12.3430   -3.4952   29.4708 H         1 RES1    0.0000
     85 C20B      13.5557   -5.4084   30.6415 C.3       1 RES1    0.0000
     86 H24B      13.2418   -4.7381   31.2527 H         1 RES1    0.0000
     87 H25B      13.6271   -6.2492   31.0973 H         1 RES1    0.0000
     88 H26B      14.4165   -5.1540   30.3030 H         1 RES1    0.0000
     89 C21B      13.0589   -6.6047   28.5118 C.3       1 RES1    0.0000
     90 H27B      12.4358   -6.6838   27.7846 H         1 RES1    0.0000
     91 H28B      13.9198   -6.3552   28.1680 H         1 RES1    0.0000
     92 H29B      13.1279   -7.4471   28.9674 H         1 RES1    0.0000
     93 C22B       9.6037   -6.8037   28.4715 C.3       1 RES1    0.0000
     94 H30B      10.2569   -6.8363   27.7696 H         1 RES1    0.0000
     95 H31B       9.6005   -7.6388   28.9448 H         1 RES1    0.0000
     96 H32B       8.7356   -6.6463   28.0929 H         1 RES1    0.0000
     97 C23B       8.9309   -5.6049   30.5561 C.3       1 RES1    0.0000
     98 H33B       9.1623   -4.8922   31.1575 H         1 RES1    0.0000
     99 H34B       8.0603   -5.4402   30.1852 H         1 RES1    0.0000
    100 H35B       8.9240   -6.4367   31.0347 H         1 RES1    0.0000
    101 O3B       12.6710   -3.3468   25.7331 O.2       1 RES1    0.0000
    102 C4B       14.0883   -0.6924   25.5021 C.2       1 RES1    0.0000
    103 O4B       14.2900   -1.0928   26.7522 O.3       1 RES1    0.0000
    104 C5B       15.6618   -1.3888   27.1687 C.3       1 RES1    0.0000
    105 H2B       16.2972   -0.8008   26.7101 H         1 RES1    0.0000
    106 C6B       15.6932   -1.1515   28.6532 C.3       1 RES1    0.0000
    107 H3B       15.4645   -0.2251   28.8293 H         1 RES1    0.0000
    108 H4B       15.0219   -1.7077   29.0761 H         1 RES1    0.0000
    109 C7B       17.0522   -1.4532   29.2779 C.3       1 RES1    0.0000
    110 N2B       17.5282   -2.7711   28.7940 N.3       1 RES1    0.0000
    111 O6B       18.5205   -3.2742   29.4307 O.2       1 RES1    0.0000
    112 C8B       17.3399   -3.2726   27.4007 C.3       1 RES1    0.0000
    113 C9B       15.9718   -2.8314   26.8835 C.3       1 RES1    0.0000
    114 H5B       15.2878   -3.3860   27.2910 H         1 RES1    0.0000
    115 H6B       15.9361   -2.9766   25.9251 H         1 RES1    0.0000
    116 C18B      18.4766   -2.7605   26.5217 C.3       1 RES1    0.0000
    117 H18B      18.4466   -1.8014   26.4866 H         1 RES1    0.0000
    118 H19B      19.3178   -3.0402   26.8901 H         1 RES1    0.0000
    119 H20B      18.3817   -3.1160   25.6346 H         1 RES1    0.0000
    120 C19B      17.3822   -4.7960   27.4687 C.3       1 RES1    0.0000
    121 H21B      18.2396   -5.0781   27.7947 H         1 RES1    0.0000
    122 H22B      16.6958   -5.1099   28.0603 H         1 RES1    0.0000
    123 H23B      17.2387   -5.1597   26.5919 H         1 RES1    0.0000
    124 C16B      18.0874   -0.3841   28.9504 C.3       1 RES1    0.0000
    125 H12B      18.1908   -0.3205   27.9976 H         1 RES1    0.0000
    126 H13B      17.7951    0.4616   29.2982 H         1 RES1    0.0000
    127 H14B      18.9292   -0.6206   29.3483 H         1 RES1    0.0000
    128 C17B      16.8849   -1.5576   30.7864 C.3       1 RES1    0.0000
    129 H15B      17.7349   -1.7492   31.1903 H         1 RES1    0.0000
    130 H16B      16.5479   -0.7266   31.1292 H         1 RES1    0.0000
    131 H17B      16.2674   -2.2630   30.9916 H         1 RES1    0.0000
    132 O5B       14.9519   -0.5350   24.6867 O.2       1 RES1    0.0000
@<TRIPOS>BOND
     1    1    3 1
     2    2    8 1
     3    4   24 1
     4    5   24 2
     5    6   13 1
     6    7   13 2
     7    9   10 1
     8   11    9 ar
     9   12   11 ar
    10   13   12 1
    11   14    6 1
    12   15   14 1
    13   16   14 1
    14   17   16 1
    15   18   16 1
    16   19    2 1
    17   20    2 1
    18   21   14 1
    19   22   21 1
    20   23   21 1
    21   24   11 1
    22   25    4 1
    23   26   25 1
    24   27   25 1
    25   28   27 1
    26   29   27 1
    27   30    1 1
    28   31    1 1
    29   32   25 1
    30   33   32 1
    31   34   32 1
    32   35   19 1
    33   36   35 1
    34   37   35 1
    35   38   35 1
    36   39   19 1
    37   40   39 1
    38   41   39 1
    39   42   39 1
    40   43   20 1
    41   44   43 1
    42   45   43 1
    43   46   43 1
    44   47   20 1
    45   48   47 1
    46   49   47 1
    47   50   47 1
    48   51   31 1
    49   52   51 1
    50   53   51 1
    51   54   51 1
    52   55   31 1
    53   56   55 1
    54   57   55 1
    55   58   55 1
    56   59   30 1
    57   60   59 1
    58   61   59 1
    59   62   59 1
    60   63   30 1
    61   64   63 1
    62   65   63 1
    63   66   63 1
    64   67    9 ar
    65   68   67 ar
    66   69   12 ar
    67   70   69 1
    68   71   68 1
    69   72   71 1
    70   73   72 1
    71   74   73 1
    72   75   73 1
    73   76   75 1
    74   77   75 1
    75   78   75 1
    76   79   78 1
    77   80   79 1
    78   81   79 1
    79   82   73 1
    80   83   82 1
    81   84   82 1
    82   85   81 1
    83   86   85 1
    84   87   85 1
    85   88   85 1
    86   89   81 1
    87   90   89 1
    88   91   89 1
    89   92   89 1
    90   93   78 1
    91   94   93 1
    92   95   93 1
    93   96   93 1
    94   97   78 1
    95   98   97 1
    96   99   97 1
    97  100   97 1
    98  101   71 2
    99  102   67 1
   100  103  102 1
   101  104  103 1
   102  105  104 1
   103  106  104 1
   104  107  106 1
   105  108  106 1
   106  109  106 1
   107  110  109 1
   108  111  110 1
   109  112  110 1
   110  113  104 1
   111  114  113 1
   112  115  113 1
   113  116  112 1
   114  117  116 1
   115  118  116 1
   116  119  116 1
   117  120  112 1
   118  121  120 1
   119  122  120 1
   120  123  120 1
   121  124  109 1
   122  125  124 1
   123  126  124 1
   124  127  124 1
   125  128  109 1
   126  129  128 1
   127  130  128 1
   128  131  128 1
   129  132  102 2
   130   16   19 1
   131   20   21 1
   132   27   30 1
   133   31   32 1
   134   68   69 ar
   135   81   82 1
   136  112  113 1
@<TRIPOS>SUBSTRUCTURE
     1 RES1 1

@<TRIPOS>CRYSIN
  11.7990    8.1550   25.0630  90.0000  91.1100  90.0000  14 1

