# MOL2 file generated by ConQuest
# Please check atom types

@<TRIPOS>MOLECULE
ROJZIB
   122   128     2
SMALL
NO_CHARGES
****
Generated from CSD

@<TRIPOS>ATOM
      1 O1         3.4849    0.9140    0.3466 O.3       1 RES1    0.0000
      2 O2         2.1438    1.9223    1.8637 O.3       1 RES1    0.0000
      3 O3         3.4457    0.3889    3.9702 O.3       1 RES1    0.0000
      4 O4         5.8842    2.2776    3.6074 O.3       1 RES1    0.0000
      5 O5         6.4889    0.7900    5.1880 O.3       1 RES1    0.0000
      6 O6         0.9986    0.5409    6.0434 O.2       1 RES1    0.0000
      7 O7         2.5251    1.8893    6.7490 O.2       1 RES1    0.0000
      8 O8         6.9514   -2.3581    5.2148 O.3       1 RES1    0.0000
      9 O9         5.7380   -1.6378    6.9590 O.2       1 RES1    0.0000
     10 N1         2.1468    0.7854    6.3587 N.pl3     1 RES1    0.0000
     11 C1         2.2488    1.6095    0.4823 C.3       1 RES1    0.0000
     12 C2         1.1228    0.6936    0.1054 C.3       1 RES1    0.0000
     13 H1         1.2342    0.4051   -0.8242 H         1 RES1    0.0000
     14 H2         0.2703    1.1681    0.2009 H         1 RES1    0.0000
     15 H3         1.1286   -0.0901    0.6943 H         1 RES1    0.0000
     16 C3         2.2746    2.8919   -0.3433 C.3       1 RES1    0.0000
     17 H4         2.4433    2.6721   -1.2834 H         1 RES1    0.0000
     18 H5         2.9848    3.4803   -0.0123 H         1 RES1    0.0000
     19 H6         1.4107    3.3489   -0.2652 H         1 RES1    0.0000
     20 C4         4.3557    1.3334    1.3960 C.3       1 RES1    0.0000
     21 C5         3.4737    2.1708    2.3338 C.3       1 RES1    0.0000
     22 C6         3.5185    1.8120    3.8062 C.3       1 RES1    0.0000
     23 C7         5.1409    1.1292    5.4924 C.3       1 RES1    0.0000
     24 C8         4.7851    2.2655    4.5158 C.3       1 RES1    0.0000
     25 C9         4.1643   -0.0292    5.1405 C.3       1 RES1    0.0000
     26 C10        3.1530   -0.3121    6.2680 C.3       1 RES1    0.0000
     27 C11        7.0191    1.8065    4.3322 C.3       1 RES1    0.0000
     28 C12        7.6303    2.9179    5.1630 C.3       1 RES1    0.0000
     29 H7         7.9255    3.6427    4.5732 H         1 RES1    0.0000
     30 H8         8.3997    2.5692    5.6598 H         1 RES1    0.0000
     31 H9         6.9629    3.2606    5.7924 H         1 RES1    0.0000
     32 C13        7.9852    1.1743    3.3672 C.3       1 RES1    0.0000
     33 H10        8.3158    1.8540    2.7431 H         1 RES1    0.0000
     34 H11        7.5303    0.4652    2.8661 H         1 RES1    0.0000
     35 H12        8.7382    0.7915    3.8639 H         1 RES1    0.0000
     36 C14        4.8953   -1.3301    4.7149 C.3       1 RES1    0.0000
     37 C15        5.8890   -1.7716    5.7747 C.2       1 RES1    0.0000
     38 C16        8.0050   -2.7215    6.1351 C.3       1 RES1    0.0000
     39 H13        8.7290   -3.1636    5.6447 H         1 RES1    0.0000
     40 H14        7.6496   -3.3321    6.8147 H         1 RES1    0.0000
     41 H15        8.3507   -1.9144    6.5714 H         1 RES1    0.0000
     42 C17        3.9184   -2.4365    4.3404 C.ar      1 RES1    0.0000
     43 C18        3.4540   -3.3660    5.2735 C.ar      1 RES1    0.0000
     44 C19        2.4867   -4.2995    4.9227 C.ar      1 RES1    0.0000
     45 C20        1.9850   -4.3275    3.6341 C.ar      1 RES1    0.0000
     46 C21        2.4618   -3.4235    2.6954 C.ar      1 RES1    0.0000
     47 C22        3.4193   -2.4809    3.0431 C.ar      1 RES1    0.0000
     48 H16        5.0886    1.8494    1.0374 H         1 RES1    0.0000
     49 H17        4.6689    0.5178    1.8178 H         1 RES1    0.0000
     50 H18        3.7128    3.1007    2.2811 H         1 RES1    0.0000
     51 H19        2.7712    2.2609    4.2356 H         1 RES1    0.0000
     52 H20        5.0808    1.3426    6.4238 H         1 RES1    0.0000
     53 H21        4.6957    3.1164    4.9245 H         1 RES1    0.0000
     54 H22        2.6077   -1.0858    6.0985 H         1 RES1    0.0000
     55 H23        3.6254   -0.3733    7.1482 H         1 RES1    0.0000
     56 H24        5.4522   -1.1400    3.8871 H         1 RES1    0.0000
     57 H25        3.7572   -3.3473    6.1505 H         1 RES1    0.0000
     58 H26        2.1858   -4.9366    5.5709 H         1 RES1    0.0000
     59 H27        1.3383   -4.9619    3.3964 H         1 RES1    0.0000
     60 H28        2.1057   -3.4291    1.8178 H         1 RES1    0.0000
     61 H29        3.7910   -1.8613    2.3686 H         1 RES1    0.0000
     62 O10        5.1293    7.0100   11.6496 O.3       2 RES2    0.0000
     63 O11        3.7046    7.5673   10.0012 O.3       2 RES2    0.0000
     64 O12        3.3967    4.5104   11.2041 O.3       2 RES2    0.0000
     65 O13        3.8470    4.4368   14.7998 O.3       2 RES2    0.0000
     66 O14        4.9747    3.1863   13.2914 O.3       2 RES2    0.0000
     67 O15        4.3047    2.3904    9.0993 O.2       2 RES2    0.0000
     68 O16        4.8636    3.9890    7.7617 O.2       2 RES2    0.0000
     69 O17        0.6079    7.9272   10.0274 O.3       2 RES2    0.0000
     70 O18        1.4018    6.8798    8.1980 O.2       2 RES2    0.0000
     71 N2         4.0922    3.4631    8.5546 N.pl3     2 RES2    0.0000
     72 C23        4.5869    3.2354   14.6565 C.3       2 RES2    0.0000
     73 C24        3.7453    2.0584   14.9975 C.3       2 RES2    0.0000
     74 H30        4.2629    1.2363   14.8636 H         2 RES2    0.0000
     75 H31        2.9539    2.0439   14.4194 H         2 RES2    0.0000
     76 H32        3.4645    2.1177   15.9338 H         2 RES2    0.0000
     77 C25        5.8459    3.3342   15.5343 C.3       2 RES2    0.0000
     78 H33        6.3673    2.5081   15.4527 H         2 RES2    0.0000
     79 H34        5.5828    3.4638   16.4695 H         2 RES2    0.0000
     80 H35        6.3909    4.0936   15.2395 H         2 RES2    0.0000
     81 C26        4.2729    5.3558   13.8068 C.3       2 RES2    0.0000
     82 C27        5.1616    4.5357   12.8577 C.3       2 RES2    0.0000
     83 C28        4.8154    4.6217   11.3844 C.3       2 RES2    0.0000
     84 C29        5.2263    5.9284   10.7271 C.3       2 RES2    0.0000
     85 C30        4.1157    6.2370    9.7020 C.3       2 RES2    0.0000
     86 C31        4.6672    8.1326   10.9005 C.3       2 RES2    0.0000
     87 C32        5.8120    8.7590   10.1230 C.3       2 RES2    0.0000
     88 H36        5.4899    9.5542    9.6507 H         2 RES2    0.0000
     89 H37        6.1580    8.1118    9.4731 H         2 RES2    0.0000
     90 H38        6.5270    9.0134   10.7428 H         2 RES2    0.0000
     91 C33        3.9613    9.0916   11.8216 C.3       2 RES2    0.0000
     92 H39        3.5682    9.8199   11.2963 H         2 RES2    0.0000
     93 H40        4.6033    9.4623   12.4622 H         2 RES2    0.0000
     94 H41        3.2523    8.6185   12.3050 H         2 RES2    0.0000
     95 C34        3.0007    5.1965   10.0131 C.3       2 RES2    0.0000
     96 C35        2.8130    4.1706    8.8777 C.3       2 RES2    0.0000
     97 C36        1.6417    5.8595   10.3822 C.3       2 RES2    0.0000
     98 C37        1.2287    6.9268    9.3923 C.2       2 RES2    0.0000
     99 C38        0.2895    9.0846    9.2232 C.3       2 RES2    0.0000
    100 H42       -0.2203    9.7256    9.7615 H         2 RES2    0.0000
    101 H43       -0.2467    8.8080    8.4507 H         2 RES2    0.0000
    102 H44        1.1180    9.5047    8.9113 H         2 RES2    0.0000
    103 C39        0.5432    4.8314   10.5978 C.ar      2 RES2    0.0000
    104 C40        0.3795    4.2831   11.8687 C.ar      2 RES2    0.0000
    105 C41       -0.5713    3.2915   12.0865 C.ar      2 RES2    0.0000
    106 C42       -1.3539    2.8379   11.0462 C.ar      2 RES2    0.0000
    107 C43       -1.2113    3.3780    9.7833 C.ar      2 RES2    0.0000
    108 C44       -0.2692    4.3835    9.5614 C.ar      2 RES2    0.0000
    109 H45        4.7678    6.1019   14.2267 H         2 RES2    0.0000
    110 H46        3.4818    5.7111   13.3943 H         2 RES2    0.0000
    111 H47        6.0949    4.7733   12.9570 H         2 RES2    0.0000
    112 H48        5.2693    3.8460   10.9437 H         2 RES2    0.0000
    113 H49        6.1177    5.8387   10.3464 H         2 RES2    0.0000
    114 H50        4.4124    6.1589    8.7883 H         2 RES2    0.0000
    115 H51        2.1814    3.4695    9.1546 H         2 RES2    0.0000
    116 H52        2.5408    4.5886    8.0366 H         2 RES2    0.0000
    117 H53        1.7876    6.2971   11.2075 H         2 RES2    0.0000
    118 H54        0.9236    4.5986   12.6153 H         2 RES2    0.0000
    119 H55       -0.6869    2.8989   13.0526 H         2 RES2    0.0000
    120 H56       -1.9856    2.1499   11.1952 H         2 RES2    0.0000
    121 H57       -1.7085    3.0866    9.0070 H         2 RES2    0.0000
    122 H58       -0.1733    4.7566    8.7063 H         2 RES2    0.0000
@<TRIPOS>BOND
     1    1   11 1
     2    2   11 1
     3    3   22 1
     4    4   24 1
     5    5   23 1
     6    6   10 2
     7    7   10 2
     8    8   37 1
     9    9   37 2
    10   10   26 1
    11   11   12 1
    12   12   13 1
    13   14   12 1
    14   15   12 1
    15   16   11 1
    16   17   16 1
    17   18   16 1
    18   19   16 1
    19   20    1 1
    20   21    2 1
    21   22   21 1
    22   23   24 1
    23   24   22 1
    24   25    3 1
    25   26   25 1
    26   27    4 1
    27   28   27 1
    28   29   28 1
    29   30   28 1
    30   31   28 1
    31   32   27 1
    32   33   32 1
    33   34   32 1
    34   35   32 1
    35   36   25 1
    36   37   36 1
    37   38    8 1
    38   39   38 1
    39   40   38 1
    40   41   38 1
    41   42   36 1
    42   43   42 ar
    43   44   43 ar
    44   45   44 ar
    45   46   45 ar
    46   47   42 ar
    47   48   20 1
    48   49   20 1
    49   50   21 1
    50   51   22 1
    51   52   23 1
    52   53   24 1
    53   54   26 1
    54   55   26 1
    55   56   36 1
    56   57   43 1
    57   58   44 1
    58   59   45 1
    59   60   46 1
    60   61   47 1
    61   62   84 1
    62   63   85 1
    63   64   83 1
    64   65   72 1
    65   66   72 1
    66   67   71 2
    67   68   71 2
    68   69   98 1
    69   70   98 2
    70   71   96 1
    71   72   73 1
    72   73   74 1
    73   75   73 1
    74   76   73 1
    75   77   72 1
    76   78   77 1
    77   79   77 1
    78   80   77 1
    79   81   65 1
    80   82   66 1
    81   83   82 1
    82   84   83 1
    83   85   84 1
    84   86   62 1
    85   87   86 1
    86   88   87 1
    87   89   87 1
    88   90   87 1
    89   91   86 1
    90   92   91 1
    91   93   91 1
    92   94   91 1
    93   95   64 1
    94   96   95 1
    95   97   95 1
    96   98   97 1
    97   99   69 1
    98  100   99 1
    99  101   99 1
   100  102   99 1
   101  103   97 1
   102  104  103 ar
   103  105  104 ar
   104  106  105 ar
   105  107  106 ar
   106  108  103 ar
   107  109   81 1
   108  110   81 1
   109  111   82 1
   110  112   83 1
   111  113   84 1
   112  114   85 1
   113  115   96 1
   114  116   96 1
   115  117   97 1
   116  118  104 1
   117  119  105 1
   118  120  106 1
   119  121  107 1
   120  122  108 1
   121    5   27 1
   122   20   21 1
   123   23   25 1
   124   46   47 ar
   125   63   86 1
   126   81   82 1
   127   85   95 1
   128  107  108 ar
@<TRIPOS>SUBSTRUCTURE
     1 RES1 1
     2 RES2 62

@<TRIPOS>CRYSIN
   9.0778    9.2242   14.1404 101.9340  98.4520  91.2710   1 1

