# MOL2 file generated by ConQuest
# Please check atom types

@<TRIPOS>MOLECULE
ROJZEX
    66    68     2
SMALL
NO_CHARGES
****
Generated from CSD

@<TRIPOS>ATOM
      1 O1         3.2591   12.4364   18.5455 O.3       1 RES1    0.0000
      2 O2         1.8982   10.8383   19.3060 O.2       1 RES1    0.0000
      3 O3         2.7757   12.0863   22.2782 O.3       1 RES1    0.0000
      4 O4         3.8179   11.6073   24.2155 O.3       1 RES1    0.0000
      5 O5         4.9917    9.8728   22.0716 O.3       1 RES1    0.0000
      6 O6         4.5941    6.8210   20.9411 O.2       1 RES1    0.0000
      7 O7         4.8776    8.2313   19.3271 O.2       1 RES1    0.0000
      8 N1         4.3182    7.8543   20.3479 N.pl3     1 RES1    0.0000
      9 C1         2.9774   11.4096   19.3257 C.2       1 RES1    0.0000
     10 C2         4.1312   11.0152   20.1976 C.3       1 RES1    0.0000
     11 C3         3.7770   10.0709   21.3384 C.3       1 RES1    0.0000
     12 C4         2.7699   10.6700   22.3492 C.3       1 RES1    0.0000
     13 C5         2.9973   12.5887   23.5988 C.3       1 RES1    0.0000
     14 C6         1.6746   12.7418   24.3245 C.3       1 RES1    0.0000
     15 H1         1.1257   13.4100   23.8652 H         1 RES1    0.0000
     16 H2         1.8394   13.0316   25.2453 H         1 RES1    0.0000
     17 H3         1.2046   11.8830   24.3311 H         1 RES1    0.0000
     18 C7         3.7700   13.8760   23.5113 C.3       1 RES1    0.0000
     19 H4         3.2591   14.5285   22.9883 H         1 RES1    0.0000
     20 H5         4.6321   13.7113   23.0762 H         1 RES1    0.0000
     21 H6         3.9225   14.2272   24.4124 H         1 RES1    0.0000
     22 C8         3.3971   10.3381   23.7271 C.3       1 RES1    0.0000
     23 C9         4.6110    9.4904   23.4036 C.3       1 RES1    0.0000
     24 C10        3.2217    8.7041   20.8894 C.3       1 RES1    0.0000
     25 H7         2.5893   12.5778   18.0258 H         1 RES1    0.0000
     26 H8         4.7870   10.5932   19.6609 H         1 RES1    0.0000
     27 H9         4.5006   11.8039   20.5664 H         1 RES1    0.0000
     28 H10        1.9113   10.3465   22.2015 H         1 RES1    0.0000
     29 H11        2.7588    9.9041   24.3311 H         1 RES1    0.0000
     30 H12        4.4480    8.5295   23.4586 H         1 RES1    0.0000
     31 H13        5.3715    9.6969   23.9706 H         1 RES1    0.0000
     32 H14        2.5893    8.8176   20.1883 H         1 RES1    0.0000
     33 H15        2.8231    8.2226   21.5905 H         1 RES1    0.0000
     34 O8        -1.2076    3.4659   16.0905 O.2       2 RES2    0.0000
     35 O9        -0.0923    1.5920   15.6067 O.3       2 RES2    0.0000
     36 O10        1.3683    5.5960   16.9060 O.3       2 RES2    0.0000
     37 O11        2.6770    6.3508   18.5587 O.3       2 RES2    0.0000
     38 O12        1.4585    3.6462   19.4451 O.3       2 RES2    0.0000
     39 O13       -1.3724    2.3339   20.8242 O.2       2 RES2    0.0000
     40 O14       -1.4104    1.5419   18.8095 O.2       2 RES2    0.0000
     41 N2        -1.2654    2.4585   19.6128 N.pl3     2 RES2    0.0000
     42 C11       -0.2870    2.6933   16.3006 C.2       2 RES2    0.0000
     43 C12        0.7569    2.8935   17.3564 C.3       2 RES2    0.0000
     44 C13        0.4483    3.9010   18.4548 C.3       2 RES2    0.0000
     45 C14        0.5973    5.4017   18.0823 C.3       2 RES2    0.0000
     46 C15        2.3023    6.6429   17.2076 C.3       2 RES2    0.0000
     47 C16        1.6377    8.0087   17.0994 C.3       2 RES2    0.0000
     48 H16        1.3420    8.1567   16.1775 H         2 RES2    0.0000
     49 H17        2.2789    8.7046   17.3511 H         2 RES2    0.0000
     50 H18        0.8639    8.0437   17.7005 H         2 RES2    0.0000
     51 C17        3.4988    6.5350   16.3113 C.3       2 RES2    0.0000
     52 H19        3.2287    6.6994   15.3841 H         2 RES2    0.0000
     53 H20        3.8822    5.6355   16.3841 H         2 RES2    0.0000
     54 H21        4.1686    7.1983   16.5797 H         2 RES2    0.0000
     55 C18        1.6477    4.8513   20.2002 C.3       2 RES2    0.0000
     56 C19        1.4636    5.9938   19.2229 C.3       2 RES2    0.0000
     57 C20       -0.9603    3.8072   19.0717 C.3       2 RES2    0.0000
     58 H22       -0.6663    1.5459   14.9292 H         2 RES2    0.0000
     59 H23        0.9410    2.0354   17.7730 H         2 RES2    0.0000
     60 H24        1.5372    3.1482   16.9269 H         2 RES2    0.0000
     61 H25       -0.2280    5.8087   18.0280 H         2 RES2    0.0000
     62 H26        0.9878    4.9125   20.9136 H         2 RES2    0.0000
     63 H27        2.5016    4.8504   20.5817 H         2 RES2    0.0000
     64 H28        1.0579    6.7483   19.6411 H         2 RES2    0.0000
     65 H29       -1.5664    3.9729   18.4192 H         2 RES2    0.0000
     66 H30       -1.0287    4.4399   19.7840 H         2 RES2    0.0000
@<TRIPOS>BOND
     1    1    9 1
     2    2    9 2
     3    3   12 1
     4    4   13 1
     5    5   11 1
     6    6    8 2
     7    7    8 2
     8    8   24 1
     9    9   10 1
    10   10   11 1
    11   11   12 1
    12   12   22 1
    13   13    3 1
    14   14   13 1
    15   15   14 1
    16   16   14 1
    17   17   14 1
    18   18   13 1
    19   19   18 1
    20   20   18 1
    21   21   18 1
    22   22    4 1
    23   23    5 1
    24   24   11 1
    25   25    1 1
    26   26   10 1
    27   27   10 1
    28   28   12 1
    29   29   22 1
    30   30   23 1
    31   31   23 1
    32   32   24 1
    33   33   24 1
    34   34   42 2
    35   35   42 1
    36   36   45 1
    37   37   46 1
    38   38   44 1
    39   39   41 2
    40   40   41 2
    41   41   57 1
    42   42   43 1
    43   43   44 1
    44   44   45 1
    45   45   56 1
    46   46   36 1
    47   47   46 1
    48   48   47 1
    49   49   47 1
    50   50   47 1
    51   51   46 1
    52   52   51 1
    53   53   51 1
    54   54   51 1
    55   55   38 1
    56   56   37 1
    57   57   44 1
    58   58   35 1
    59   59   43 1
    60   60   43 1
    61   61   45 1
    62   62   55 1
    63   63   55 1
    64   64   56 1
    65   65   57 1
    66   66   57 1
    67   22   23 1
    68   55   56 1
@<TRIPOS>SUBSTRUCTURE
     1 RES1 1
     2 RES2 34

@<TRIPOS>CRYSIN
   5.8449   18.8290   21.9773  90.0000  90.0000  90.0000  19 1

