# MOL2 file generated by ConQuest
# Please check atom types

@<TRIPOS>MOLECULE
ROJZOH
    50    52     1
SMALL
NO_CHARGES
****
Generated from CSD

@<TRIPOS>ATOM
      1 O1         7.9708    6.2298   16.9471 O.3       1 RES1    0.0000
      2 O2         5.3307    2.2270   12.4198 O.3       1 RES1    0.0000
      3 O3         8.7340    7.0913   18.8835 O.3       1 RES1    0.0000
      4 O4         9.7199    4.2478   18.6015 O.3       1 RES1    0.0000
      5 O5         8.3571    0.5788   18.1268 O.2       1 RES1    0.0000
      6 O6         9.1280    1.7215   19.7977 O.2       1 RES1    0.0000
      7 O7        10.6457    1.9989   16.8987 O.2       1 RES1    0.0000
      8 O8        11.1452    3.4194   15.2309 O.3       1 RES1    0.0000
      9 N1         8.4685    1.6163   18.7632 N.pl3     1 RES1    0.0000
     10 C1         9.2094    8.2705   16.8800 C.3       1 RES1    0.0000
     11 H1         8.8913    8.4290   15.9665 H         1 RES1    0.0000
     12 H2        10.0523    7.7713   16.8509 H         1 RES1    0.0000
     13 H3         9.3546    9.1297   17.3292 H         1 RES1    0.0000
     14 C2         8.1817    7.4751   17.6383 C.3       1 RES1    0.0000
     15 C3         7.6785    5.2372   17.9145 C.3       1 RES1    0.0000
     16 H4         6.7377    4.9609   17.9061 H         1 RES1    0.0000
     17 C4         8.5941    3.9773   17.7664 C.3       1 RES1    0.0000
     18 C5         9.1280    3.8223   16.3317 C.3       1 RES1    0.0000
     19 H5         9.3849    4.7331   16.0823 H         1 RES1    0.0000
     20 C6         8.0949    3.3388   15.3226 C.ar      1 RES1    0.0000
     21 C7         7.3554    4.2734   14.5948 C.ar      1 RES1    0.0000
     22 H6         7.5190    5.1909   14.7956 H         1 RES1    0.0000
     23 C8         6.4279    3.8664   13.6546 C.ar      1 RES1    0.0000
     24 H7         5.9288    4.4923   13.1862 H         1 RES1    0.0000
     25 C9         6.2292    2.5091   13.4039 C.ar      1 RES1    0.0000
     26 C10        5.2495    0.8716   11.9687 C.3       1 RES1    0.0000
     27 H8         4.6814    0.8265   11.1726 H         1 RES1    0.0000
     28 H9         4.8653    0.3149   12.6776 H         1 RES1    0.0000
     29 H10        6.1475    0.5470   11.7476 H         1 RES1    0.0000
     30 C11        6.8746    8.2007   17.8313 C.3       1 RES1    0.0000
     31 H11        6.4941    8.4258   16.9572 H         1 RES1    0.0000
     32 H12        7.0300    9.0233   18.3407 H         1 RES1    0.0000
     33 H13        6.2505    7.6251   18.3217 H         1 RES1    0.0000
     34 C12        8.1392    5.8568   19.2631 C.3       1 RES1    0.0000
     35 H14        7.4362    5.9647   19.8856 H         1 RES1    0.0000
     36 C13        9.2103    4.9151   19.7749 C.3       1 RES1    0.0000
     37 H15        9.9456    5.3951   20.1873 H         1 RES1    0.0000
     38 H16        8.8426    4.2451   20.3904 H         1 RES1    0.0000
     39 C14        7.7193    2.8203   18.3022 C.3       1 RES1    0.0000
     40 H17        7.2524    3.1049   19.0695 H         1 RES1    0.0000
     41 H18        7.1237    2.5041   17.6670 H         1 RES1    0.0000
     42 C15       10.3750    2.9650   16.2347 C.2       1 RES1    0.0000
     43 C16       12.3410    2.6513   14.9559 C.3       1 RES1    0.0000
     44 H19       12.7630    2.9856   14.1370 H         1 RES1    0.0000
     45 H20       12.1039    1.7077   14.8392 H         1 RES1    0.0000
     46 H21       12.9670    2.7405   15.7046 H         1 RES1    0.0000
     47 C17        6.9417    1.5637   14.1273 C.ar      1 RES1    0.0000
     48 H22        6.8480    0.6341   13.9852 H         1 RES1    0.0000
     49 C18        7.8716    1.9829   15.0759 C.ar      1 RES1    0.0000
     50 H23        8.3371    1.3649   15.5851 H         1 RES1    0.0000
@<TRIPOS>BOND
     1    1   14 1
     2    2   25 1
     3    3   14 1
     4    4   17 1
     5    5    9 2
     6    6    9 2
     7    7   42 2
     8    8   42 1
     9    9   39 1
    10   10   11 1
    11   12   10 1
    12   13   10 1
    13   14   10 1
    14   15    1 1
    15   16   15 1
    16   17   15 1
    17   18   17 1
    18   19   18 1
    19   20   18 1
    20   21   20 ar
    21   22   21 1
    22   23   21 ar
    23   24   23 1
    24   25   23 ar
    25   26    2 1
    26   27   26 1
    27   28   26 1
    28   29   26 1
    29   30   14 1
    30   31   30 1
    31   32   30 1
    32   33   30 1
    33   34    3 1
    34   35   34 1
    35   36    4 1
    36   37   36 1
    37   38   36 1
    38   39   17 1
    39   40   39 1
    40   41   39 1
    41   42   18 1
    42   43    8 1
    43   44   43 1
    44   45   43 1
    45   46   43 1
    46   47   25 ar
    47   48   47 1
    48   49   20 ar
    49   50   49 1
    50   15   34 1
    51   34   36 1
    52   47   49 ar
@<TRIPOS>SUBSTRUCTURE
     1 RES1 1

@<TRIPOS>CRYSIN
   9.1919   10.7472   18.9784  90.0000  90.0000  90.0000  19 1

