# MOL2 file generated by ConQuest
# Please check atom types

@<TRIPOS>MOLECULE
ROKGOO
    80    86     2
SMALL
NO_CHARGES
****
Generated from CSD

@<TRIPOS>ATOM
      1 O1         3.4552   13.9980    5.5067 O.3       1 RES1    0.0000
      2 O2         7.6697    8.7721    0.8198 O.2       1 RES1    0.0000
      3 O3         4.8785    7.9937    5.5275 O.3       2 RES2    0.0000
      4 O4        -0.1408    3.1010    1.3381 O.2       2 RES2    0.0000
      5 N1         3.8138   14.9276    4.5051 N.2       1 RES1    0.0000
      6 N2         4.5130    8.9392    4.5489 N.2       2 RES2    0.0000
      7 C1         4.5582   13.2772    5.8461 C.2       1 RES1    0.0000
      8 C2         4.3710   12.2300    6.8429 C.ar      1 RES1    0.0000
      9 C3         3.2087   12.1163    7.5921 C.ar      1 RES1    0.0000
     10 H1         2.5333   12.7482    7.4931 H         1 RES1    0.0000
     11 C4         3.0440   11.0806    8.4775 C.ar      1 RES1    0.0000
     12 H2         2.2577   11.0108    8.9694 H         1 RES1    0.0000
     13 C5         4.0409   10.1463    8.6384 C.ar      1 RES1    0.0000
     14 H3         3.9266    9.4458    9.2397 H         1 RES1    0.0000
     15 C6         5.2046   10.2430    7.9142 C.ar      1 RES1    0.0000
     16 H4         5.8787    9.6125    8.0295 H         1 RES1    0.0000
     17 C7         5.3715   11.2759    7.0168 C.ar      1 RES1    0.0000
     18 H5         6.1582   11.3359    6.5233 H         1 RES1    0.0000
     19 C8         5.5982   13.6981    5.1080 C.2       1 RES1    0.0000
     20 H6         6.4712   13.3784    5.1326 H         1 RES1    0.0000
     21 C9         5.0901   14.7287    4.2876 C.2       1 RES1    0.0000
     22 C10        5.7984   15.5850    3.3044 C.ar      1 RES1    0.0000
     23 C11        5.7787   16.9597    3.5003 C.ar      1 RES1    0.0000
     24 H7         5.2983   17.3099    4.2158 H         1 RES1    0.0000
     25 C12        6.4508   17.8136    2.6622 C.ar      1 RES1    0.0000
     26 H8         6.4261   18.7311    2.8128 H         1 RES1    0.0000
     27 C13        7.1599   17.3113    1.6024 C.ar      1 RES1    0.0000
     28 H9         7.6096   17.8861    1.0254 H         1 RES1    0.0000
     29 C14        7.2026   15.9489    1.3980 C.ar      1 RES1    0.0000
     30 H10        7.6975   15.6148    0.6845 H         1 RES1    0.0000
     31 C15        6.5256   15.0564    2.2278 C.ar      1 RES1    0.0000
     32 C16        6.5686   13.6004    1.9402 C.ar      1 RES1    0.0000
     33 C17        7.7789   12.9818    1.6037 C.ar      1 RES1    0.0000
     34 H11        8.5607   13.4848    1.5660 H         1 RES1    0.0000
     35 C18        7.8195   11.6323    1.3273 C.ar      1 RES1    0.0000
     36 H12        8.6285   11.2349    1.1001 H         1 RES1    0.0000
     37 C19        6.6631   10.8549    1.3836 C.ar      1 RES1    0.0000
     38 C20        5.4633   11.4662    1.7034 C.ar      1 RES1    0.0000
     39 H13        4.6841   10.9614    1.7385 H         1 RES1    0.0000
     40 C21        5.4142   12.8219    1.9714 C.ar      1 RES1    0.0000
     41 H14        4.5983   13.2199    2.1758 H         1 RES1    0.0000
     42 C22        6.6895    9.4110    1.0937 C.2       1 RES1    0.0000
     43 H15        5.8793    8.9552    1.1259 H         1 RES1    0.0000
     44 C23        3.7609    7.3280    5.9369 C.2       2 RES2    0.0000
     45 C24        3.9563    6.3000    6.9516 C.ar      2 RES2    0.0000
     46 C25        5.0865    6.2886    7.7671 C.ar      2 RES2    0.0000
     47 H16        5.7296    6.9540    7.6751 H         2 RES2    0.0000
     48 C26        5.2572    5.2977    8.7077 C.ar      2 RES2    0.0000
     49 H17        6.0139    5.2992    9.2478 H         2 RES2    0.0000
     50 C27        4.3134    4.3000    8.8548 C.ar      2 RES2    0.0000
     51 H18        4.4348    3.6336    9.4909 H         2 RES2    0.0000
     52 C28        3.1926    4.2976    8.0545 C.ar      2 RES2    0.0000
     53 H19        2.5561    3.6261    8.1504 H         2 RES2    0.0000
     54 C29        3.0083    5.2924    7.1072 C.ar      2 RES2    0.0000
     55 H20        2.2472    5.2866    6.5722 H         2 RES2    0.0000
     56 C30        2.6975    7.7856    5.2386 C.2       2 RES2    0.0000
     57 H21        1.8166    7.4953    5.2969 H         2 RES2    0.0000
     58 C31        3.2142    8.8015    4.4019 C.2       2 RES2    0.0000
     59 C32        2.4971    9.7296    3.4829 C.ar      2 RES2    0.0000
     60 C33        2.6361   11.0985    3.7076 C.ar      2 RES2    0.0000
     61 H22        3.1995   11.3950    4.3856 H         2 RES2    0.0000
     62 C34        1.9530   12.0215    2.9448 C.ar      2 RES2    0.0000
     63 H23        2.0524   12.9317    3.1089 H         2 RES2    0.0000
     64 C35        1.1234   11.5836    1.9372 C.ar      2 RES2    0.0000
     65 H24        0.6612   12.1982    1.4152 H         2 RES2    0.0000
     66 C36        0.9789   10.2287    1.7034 C.ar      2 RES2    0.0000
     67 H25        0.4169    9.9457    1.0186 H         2 RES2    0.0000
     68 C37        1.6490    9.2774    2.4605 C.ar      2 RES2    0.0000
     69 C38        1.4591    7.8268    2.1682 C.ar      2 RES2    0.0000
     70 C39        0.1832    7.2909    2.0366 C.ar      2 RES2    0.0000
     71 H26       -0.5579    7.8467    2.1228 H         2 RES2    0.0000
     72 C40       -0.0009    5.9534    1.7807 C.ar      2 RES2    0.0000
     73 H27       -0.8626    5.6122    1.6977 H         2 RES2    0.0000
     74 C41        1.0919    5.1096    1.6465 C.ar      2 RES2    0.0000
     75 C42        2.3626    5.6392    1.7425 C.ar      2 RES2    0.0000
     76 H28        3.1020    5.0856    1.6325 H         2 RES2    0.0000
     77 C43        2.5474    6.9817    2.0010 C.ar      2 RES2    0.0000
     78 H29        3.4100    7.3240    2.0644 H         2 RES2    0.0000
     79 C44        0.9144    3.6672    1.4166 C.2       2 RES2    0.0000
     80 H30        1.6832    3.1519    1.3242 H         2 RES2    0.0000
@<TRIPOS>BOND
     1    1    5 1
     2    2   42 2
     3    3    6 1
     4    4   79 2
     5    5   21 2
     6    6   58 2
     7    7    1 1
     8    8    7 1
     9    9    8 ar
    10   10    9 1
    11   11    9 ar
    12   12   11 1
    13   13   11 ar
    14   14   13 1
    15   15   13 ar
    16   16   15 1
    17   17    8 ar
    18   18   17 1
    19   19    7 2
    20   20   19 1
    21   21   19 1
    22   22   21 1
    23   23   22 ar
    24   24   23 1
    25   25   23 ar
    26   26   25 1
    27   27   25 ar
    28   28   27 1
    29   29   27 ar
    30   30   29 1
    31   31   22 ar
    32   32   31 1
    33   33   32 ar
    34   34   33 1
    35   35   33 ar
    36   36   35 1
    37   37   35 ar
    38   38   37 ar
    39   39   38 1
    40   40   32 ar
    41   41   40 1
    42   42   37 1
    43   43   42 1
    44   44    3 1
    45   45   44 1
    46   46   45 ar
    47   47   46 1
    48   48   46 ar
    49   49   48 1
    50   50   48 ar
    51   51   50 1
    52   52   50 ar
    53   53   52 1
    54   54   45 ar
    55   55   54 1
    56   56   44 2
    57   57   56 1
    58   58   56 1
    59   59   58 1
    60   60   59 ar
    61   61   60 1
    62   62   60 ar
    63   63   62 1
    64   64   62 ar
    65   65   64 1
    66   66   64 ar
    67   67   66 1
    68   68   59 ar
    69   69   68 1
    70   70   69 ar
    71   71   70 1
    72   72   70 ar
    73   73   72 1
    74   74   72 ar
    75   75   74 ar
    76   76   75 1
    77   77   69 ar
    78   78   77 1
    79   79   74 1
    80   80   79 1
    81   15   17 ar
    82   29   31 ar
    83   38   40 ar
    84   52   54 ar
    85   66   68 ar
    86   75   77 ar
@<TRIPOS>SUBSTRUCTURE
     1 RES1 1
     2 RES2 3

@<TRIPOS>CRYSIN
  10.4372   11.7904   14.1541  76.6510  80.2360  87.8450   2 1

