# MOL2 file generated by ConQuest
# Please check atom types

@<TRIPOS>MOLECULE
ROKRAK
   158   152     2
SMALL
NO_CHARGES
****
Generated from CSD

@<TRIPOS>ATOM
      1 O1        15.8091   10.1374    7.1275 O.3       1 RES1    0.0000
      2 O2         7.2445    8.9886    8.2953 O.2       1 RES1    0.0000
      3 O3         7.5746   11.0582    8.6040 O.2       1 RES1    0.0000
      4 O4        13.2925    9.4000    5.9817 O.3       1 RES1    0.0000
      5 H1        13.9208    9.7197    6.3990 H         1 RES1    0.0000
      6 O5        13.4099    6.7967    4.4194 O.3       1 RES1    0.0000
      7 O6        21.9948    6.0613    6.1676 O.2       1 RES1    0.0000
      8 O7        21.7588    5.0547    4.2865 O.2       1 RES1    0.0000
      9 O8        15.9260    8.1465    4.8761 O.3       1 RES1    0.0000
     10 H2        15.3049    7.6578    4.6584 H         1 RES1    0.0000
     11 N1        14.3698    9.7854    9.5609 N.2       1 RES1    0.0000
     12 N2         7.9957    9.9352    8.5264 N.pl3     1 RES1    0.0000
     13 N3        14.9063    4.6094    5.3331 N.2       1 RES1    0.0000
     14 N4        21.3229    5.5408    5.2882 N.pl3     1 RES1    0.0000
     15 C1        16.0234   11.1178    6.1504 C.ar      1 RES1    0.0000
     16 C2        15.0515   12.1127    6.0090 C.ar      1 RES1    0.0000
     17 C3        15.2481   13.0585    5.0158 C.ar      1 RES1    0.0000
     18 H3        14.6250   13.7431    4.9244 H         1 RES1    0.0000
     19 C4        16.3286   13.0264    4.1537 C.ar      1 RES1    0.0000
     20 C5        17.2323   11.9889    4.3089 C.ar      1 RES1    0.0000
     21 H4        17.9592   11.9403    3.7313 H         1 RES1    0.0000
     22 C6        17.0961   11.0166    5.2951 C.ar      1 RES1    0.0000
     23 C7        16.5261   14.1071    3.1002 C.3       1 RES1    0.0000
     24 C8        17.2940   13.6072    1.9346 C.3       1 RES1    0.0000
     25 H5        18.1307   13.2467    2.2346 H         1 RES1    0.0000
     26 H6        17.4571   14.3304    1.3259 H         1 RES1    0.0000
     27 H7        16.7903   12.9208    1.4915 H         1 RES1    0.0000
     28 C9        15.2437   14.6539    2.6053 C.3       1 RES1    0.0000
     29 H8        14.7138   13.9435    2.2346 H         1 RES1    0.0000
     30 H9        15.4164   15.3108    1.9277 H         1 RES1    0.0000
     31 H10       14.7674   15.0616    3.3330 H         1 RES1    0.0000
     32 C10       17.3380   15.2081    3.6709 C.3       1 RES1    0.0000
     33 H11       18.1720   14.8582    3.9916 H         1 RES1    0.0000
     34 H12       16.8601   15.6159    4.3968 H         1 RES1    0.0000
     35 H13       17.5075   15.8652    2.9898 H         1 RES1    0.0000
     36 C11       13.7955   12.1532    6.8659 C.3       1 RES1    0.0000
     37 H14       13.9190   11.5771    7.6367 H         1 RES1    0.0000
     38 H15       13.6615   13.0567    7.1901 H         1 RES1    0.0000
     39 C12       16.4000   10.4444    8.4039 C.3       1 RES1    0.0000
     40 H16       16.2115   11.3630    8.6488 H         1 RES1    0.0000
     41 H17       17.3609   10.3232    8.3677 H         1 RES1    0.0000
     42 C13       15.7874    9.4979    9.4057 C.3       1 RES1    0.0000
     43 H18       15.9050    8.5832    9.1057 H         1 RES1    0.0000
     44 H19       16.2359    9.5951   10.2609 H         1 RES1    0.0000
     45 C14       13.5335    8.9455    9.1195 C.2       1 RES1    0.0000
     46 H20       13.8539    8.1217    8.8281 H         1 RES1    0.0000
     47 C15       12.0883    9.1891    9.0419 C.ar      1 RES1    0.0000
     48 C16       11.5153   10.3711    9.4592 C.ar      1 RES1    0.0000
     49 H21       12.0515   11.0100    9.8713 H         1 RES1    0.0000
     50 C17       10.1914   10.6321    9.2902 C.ar      1 RES1    0.0000
     51 H22        9.8267   11.4439    9.5626 H         1 RES1    0.0000
     52 C18        9.4135    9.6718    8.7091 C.ar      1 RES1    0.0000
     53 C19        9.9357    8.5016    8.2970 C.ar      1 RES1    0.0000
     54 H23        9.3898    7.8613    7.9039 H         1 RES1    0.0000
     55 C20       11.2665    8.2586    8.4574 C.ar      1 RES1    0.0000
     56 H24       11.6212    7.4496    8.1660 H         1 RES1    0.0000
     57 C21       12.3737   10.3869    5.7090 C.ar      1 RES1    0.0000
     58 C22       11.2458   10.0088    4.9813 C.ar      1 RES1    0.0000
     59 C23       10.2911   10.9456    4.7123 C.ar      1 RES1    0.0000
     60 H25        9.5245   10.6810    4.2571 H         1 RES1    0.0000
     61 C24       10.4160   12.2836    5.0917 C.ar      1 RES1    0.0000
     62 C25       11.5569   12.6249    5.7883 C.ar      1 RES1    0.0000
     63 H26       11.6651   13.5083    6.0555 H         1 RES1    0.0000
     64 C26       12.5518   11.7085    6.1107 C.ar      1 RES1    0.0000
     65 C27        9.3336   13.3092    4.7296 C.3       1 RES1    0.0000
     66 C28        9.6486   14.6629    5.1900 C.3       1 RES1    0.0000
     67 H27        9.7924   14.6525    6.1383 H         1 RES1    0.0000
     68 H28        8.9167   15.2495    4.9831 H         1 RES1    0.0000
     69 H29       10.4414   14.9745    4.7486 H         1 RES1    0.0000
     70 C29        8.0171   12.8837    5.3520 C.3       1 RES1    0.0000
     71 H30        7.7971   11.9966    5.0606 H         1 RES1    0.0000
     72 H31        7.3250   13.4921    5.0848 H         1 RES1    0.0000
     73 H32        8.0986   12.8941    6.3090 H         1 RES1    0.0000
     74 C30        9.1052   13.3045    3.2623 C.3       1 RES1    0.0000
     75 H33        8.8997   12.4120    2.9726 H         1 RES1    0.0000
     76 H34        9.8973   13.6125    2.8140 H         1 RES1    0.0000
     77 H35        8.3712   13.8861    3.0502 H         1 RES1    0.0000
     78 C31       11.1674    8.5993    4.4175 C.3       1 RES1    0.0000
     79 H36       10.2645    8.4165    4.1158 H         1 RES1    0.0000
     80 H37       11.3924    7.9564    5.1072 H         1 RES1    0.0000
     81 C32       13.2129    7.5916    3.2795 C.ar      1 RES1    0.0000
     82 C33       14.1807    7.5809    2.2881 C.ar      1 RES1    0.0000
     83 C34       14.0345    8.4591    1.2259 C.ar      1 RES1    0.0000
     84 H38       14.6775    8.4577    0.5535 H         1 RES1    0.0000
     85 C35       12.9748    9.3311    1.1277 C.ar      1 RES1    0.0000
     86 C36       12.0355    9.3176    2.1570 C.ar      1 RES1    0.0000
     87 H39       11.3145    9.9020    2.1105 H         1 RES1    0.0000
     88 C37       12.1366    8.4626    3.2519 C.ar      1 RES1    0.0000
     89 C38       12.8581   10.3334   -0.0138 C.3       1 RES1    0.0000
     90 C39       11.8566   11.4651    0.2431 C.3       1 RES1    0.0000
     91 H40       11.8391   12.0549   -0.5138 H         1 RES1    0.0000
     92 H41       12.1223   11.9563    1.0242 H         1 RES1    0.0000
     93 H42       10.9824   11.0946    0.3811 H         1 RES1    0.0000
     94 C40       13.0179   11.7067    0.5121 Du        2 SUP2    0.0000
     95 H43       12.9436   12.3358   -0.2104 Du        2 SUP2    0.0000
     96 H44       13.8799   11.7940    0.9242 Du        2 SUP2    0.0000
     97 H45       12.3320   11.8819    1.1604 Du        2 SUP2    0.0000
     98 C41       14.1449   11.0662   -0.1586 C.3       1 RES1    0.0000
     99 H46       14.0736   11.6990   -0.8759 H         1 RES1    0.0000
    100 H47       14.8487   10.4425   -0.3517 H         1 RES1    0.0000
    101 H48       14.3442   11.5293    0.6587 H         1 RES1    0.0000
    102 C42       13.9583   10.1106   -1.1225 Du        2 SUP2    0.0000
    103 H49       13.8480   10.7632   -1.8173 Du        2 SUP2    0.0000
    104 H50       13.8646    9.2306   -1.4932 Du        2 SUP2    0.0000
    105 H51       14.8291   10.2022   -0.7328 Du        2 SUP2    0.0000
    106 C43       12.4830    9.7231   -1.2156 C.3       1 RES1    0.0000
    107 H52       12.4219   10.3876   -1.9070 H         1 RES1    0.0000
    108 H53       11.6310    9.2968   -1.1052 H         1 RES1    0.0000
    109 H54       13.1410    9.0682   -1.4604 H         1 RES1    0.0000
    110 C44       11.5480   10.1537   -0.7311 Du        2 SUP2    0.0000
    111 H55       11.4843   10.7902   -1.4449 Du        2 SUP2    0.0000
    112 H56       10.8256   10.2922   -0.1138 Du        2 SUP2    0.0000
    113 H57       11.4983    9.2646   -1.0880 Du        2 SUP2    0.0000
    114 C45       15.4218    6.7166    2.3726 C.3       1 RES1    0.0000
    115 H58       15.3079    6.0629    3.0812 H         1 RES1    0.0000
    116 H59       15.5331    6.2359    1.5380 H         1 RES1    0.0000
    117 C46       12.8725    5.4754    4.3658 C.3       1 RES1    0.0000
    118 H60       13.1109    5.0460    3.5295 H         1 RES1    0.0000
    119 H61       11.9068    5.4983    4.4399 H         1 RES1    0.0000
    120 C47       13.4716    4.7339    5.5279 C.3       1 RES1    0.0000
    121 H62       13.2904    5.2128    6.3504 H         1 RES1    0.0000
    122 H63       13.0717    3.8534    5.5952 H         1 RES1    0.0000
    123 C48       15.6825    5.2859    6.0641 C.2       1 RES1    0.0000
    124 H64       15.3138    5.7777    6.7625 H         1 RES1    0.0000
    125 C49       17.1348    5.3376    5.8693 C.ar      1 RES1    0.0000
    126 C50       17.7491    4.6482    4.8503 C.ar      1 RES1    0.0000
    127 H65       17.2303    4.1241    4.2830 H         1 RES1    0.0000
    128 C51       19.0971    4.7125    4.6485 C.ar      1 RES1    0.0000
    129 H66       19.4964    4.2335    3.9589 H         1 RES1    0.0000
    130 C52       19.8493    5.4986    5.4831 C.ar      1 RES1    0.0000
    131 C53       19.2907    6.2223    6.4728 C.ar      1 RES1    0.0000
    132 H67       19.8143    6.7671    7.0142 H         1 RES1    0.0000
    133 C54       17.9338    6.1394    6.6711 C.ar      1 RES1    0.0000
    134 H68       17.5422    6.6336    7.3556 H         1 RES1    0.0000
    135 C55       16.8373    8.2137    3.8502 C.ar      1 RES1    0.0000
    136 C56       17.9515    9.0110    4.0795 C.ar      1 RES1    0.0000
    137 C57       18.9021    9.1057    3.0812 C.ar      1 RES1    0.0000
    138 H69       19.6531    9.6342    3.2329 H         1 RES1    0.0000
    139 C58       18.7920    8.4459    1.8570 C.ar      1 RES1    0.0000
    140 C59       17.6568    7.6781    1.6846 C.ar      1 RES1    0.0000
    141 H70       17.5482    7.2319    0.8759 H         1 RES1    0.0000
    142 C60       16.6691    7.5336    2.6467 C.ar      1 RES1    0.0000
    143 C61       19.8652    8.6008    0.7897 C.3       1 RES1    0.0000
    144 C62       20.2897    9.9927    0.6449 C.3       1 RES1    0.0000
    145 H71       20.4656   10.3661    1.5122 H         1 RES1    0.0000
    146 H72       19.5951   10.4972    0.2155 H         1 RES1    0.0000
    147 H73       21.0888   10.0310    0.1138 H         1 RES1    0.0000
    148 C63       21.1711    7.9876    1.3294 C.3       1 RES1    0.0000
    149 H74       21.3934    8.3966    2.1691 H         1 RES1    0.0000
    150 H75       21.8796    8.1418    0.7000 H         1 RES1    0.0000
    151 H76       21.0530    7.0437    1.4535 H         1 RES1    0.0000
    152 C64       19.5862    7.9733   -0.4345 C.3       1 RES1    0.0000
    153 H77       19.3127    7.0659   -0.2742 H         1 RES1    0.0000
    154 H78       20.3723    7.9779   -0.9845 H         1 RES1    0.0000
    155 H79       18.8798    8.4441   -0.8828 H         1 RES1    0.0000
    156 C65       18.0498    9.8336    5.3400 C.3       1 RES1    0.0000
    157 H80       18.9588   10.1556    5.4451 H         1 RES1    0.0000
    158 H81       17.8372    9.2768    6.1055 H         1 RES1    0.0000
@<TRIPOS>BOND
     1    1   15 1
     2    2   12 2
     3    3   12 2
     4    4    5 1
     5    6   81 1
     6    7   14 2
     7    8   14 2
     8    9   10 1
     9   11   42 1
    10   12   52 1
    11   13  120 1
    12   14  130 1
    13   15   16 ar
    14   16   17 ar
    15   17   18 1
    16   19   17 ar
    17   20   19 ar
    18   21   20 1
    19   22   15 ar
    20   23   19 1
    21   24   23 1
    22   25   24 1
    23   26   24 1
    24   27   24 1
    25   28   23 1
    26   29   28 1
    27   30   28 1
    28   31   28 1
    29   32   23 1
    30   33   32 1
    31   34   32 1
    32   35   32 1
    33   36   16 1
    34   37   36 1
    35   38   36 1
    36   39    1 1
    37   40   39 1
    38   41   39 1
    39   42   39 1
    40   43   42 1
    41   44   42 1
    42   45   11 2
    43   46   45 1
    44   47   45 1
    45   48   47 ar
    46   49   48 1
    47   50   48 ar
    48   51   50 1
    49   52   50 ar
    50   53   52 ar
    51   54   53 1
    52   55   47 ar
    53   56   55 1
    54   57    4 1
    55   58   57 ar
    56   59   58 ar
    57   60   59 1
    58   61   59 ar
    59   62   61 ar
    60   63   62 1
    61   64   36 1
    62   65   61 1
    63   66   65 1
    64   67   66 1
    65   68   66 1
    66   69   66 1
    67   70   65 1
    68   71   70 1
    69   72   70 1
    70   73   70 1
    71   74   65 1
    72   75   74 1
    73   76   74 1
    74   77   74 1
    75   78   58 1
    76   79   78 1
    77   80   78 1
    78   81   82 ar
    79   82   83 ar
    80   83   84 1
    81   85   83 ar
    82   86   85 ar
    83   87   86 1
    84   88   78 1
    85   89   85 1
    86   90   89 1
    87   91   90 1
    88   92   90 1
    89   93   90 1
    90   98   89 1
    91   99   98 1
    92  100   98 1
    93  101   98 1
    94  106   89 1
    95  107  106 1
    96  108  106 1
    97  109  106 1
    98  114   82 1
    99  115  114 1
   100  116  114 1
   101  117    6 1
   102  118  117 1
   103  119  117 1
   104  120  117 1
   105  121  120 1
   106  122  120 1
   107  123   13 2
   108  124  123 1
   109  125  123 1
   110  126  125 ar
   111  127  126 1
   112  128  126 ar
   113  129  128 1
   114  130  128 ar
   115  131  130 ar
   116  132  131 1
   117  133  125 ar
   118  134  133 1
   119  135    9 1
   120  136  135 ar
   121  137  136 ar
   122  138  137 1
   123  139  137 ar
   124  140  139 ar
   125  141  140 1
   126  142  114 1
   127  143  139 1
   128  144  143 1
   129  145  144 1
   130  146  144 1
   131  147  144 1
   132  148  143 1
   133  149  148 1
   134  150  148 1
   135  151  148 1
   136  152  143 1
   137  153  152 1
   138  154  152 1
   139  155  152 1
   140  156   22 1
   141  157  156 1
   142  158  156 1
   143   20   22 ar
   144   53   55 ar
   145   57   64 ar
   146   62   64 ar
   147   81   88 ar
   148   86   88 ar
   149  131  133 ar
   150  135  142 ar
   151  136  156 1
   152  140  142 ar
@<TRIPOS>SUBSTRUCTURE
     1 RES1 1
     2 SUP2 94

@<TRIPOS>CRYSIN
  12.7020   14.6530   17.7150  88.7220  77.3800  66.6400   2 1

