# MOL2 file generated by ConQuest
# Please check atom types

@<TRIPOS>MOLECULE
ROKREO
    40    41     1
SMALL
NO_CHARGES
****
Generated from CSD

@<TRIPOS>ATOM
      1 O1         2.5202    2.0326   16.3733 O.2       1 RES1    0.0000
      2 O2         3.2098    1.1245   14.5540 O.2       1 RES1    0.0000
      3 N1         2.6535    1.0655   15.6466 N.pl3     1 RES1    0.0000
      4 N2         0.4414    0.8335   17.4905 N.2       1 RES1    0.0000
      5 N3         0.1983    0.8155   18.7353 N.2       1 RES1    0.0000
      6 N4        -2.8079    4.9946   20.9144 N.3       1 RES1    0.0000
      7 C1         2.1569   -0.2352   16.0928 C.ar      1 RES1    0.0000
      8 C2         2.7636   -1.3515   15.5693 C.ar      1 RES1    0.0000
      9 C3         2.3745   -2.6014   15.9895 C.ar      1 RES1    0.0000
     10 C4         1.3714   -2.7227   16.9374 C.ar      1 RES1    0.0000
     11 C5         0.7671   -1.6007   17.4531 C.ar      1 RES1    0.0000
     12 C6         1.1455   -0.3229   17.0562 C.ar      1 RES1    0.0000
     13 C7        -0.5590    1.9080   19.2044 C.ar      1 RES1    0.0000
     14 C8        -0.7886    1.9482   20.5692 C.ar      1 RES1    0.0000
     15 C9        -1.5183    2.9645   21.1357 C.ar      1 RES1    0.0000
     16 C10       -2.0645    3.9964   20.3617 C.ar      1 RES1    0.0000
     17 C11       -1.8151    3.9308   18.9745 C.ar      1 RES1    0.0000
     18 C12       -1.0831    2.9252   18.4165 C.ar      1 RES1    0.0000
     19 C13       -2.8680    5.2012   22.3566 C.3       1 RES1    0.0000
     20 C14       -4.0567    4.5439   23.0105 C.3       1 RES1    0.0000
     21 C15       -3.5246    5.9806   20.1047 C.3       1 RES1    0.0000
     22 C16       -2.6969    7.2035   19.8084 C.3       1 RES1    0.0000
     23 H1         3.4767   -1.2269   14.9114 H         1 RES1    0.0000
     24 H2         2.8411   -3.3759   15.6695 H         1 RES1    0.0000
     25 H3         1.0680   -3.6103   17.2696 H         1 RES1    0.0000
     26 H4         0.1025   -1.6556   18.1851 H         1 RES1    0.0000
     27 H5        -0.3890    1.2696   21.1334 H         1 RES1    0.0000
     28 H6        -1.6515    2.9571   22.0846 H         1 RES1    0.0000
     29 H7        -2.1412    4.6184   18.4644 H         1 RES1    0.0000
     30 H8        -0.9655    2.9112   17.4943 H         1 RES1    0.0000
     31 H9        -2.9019    6.1839   22.4626 H         1 RES1    0.0000
     32 H10       -1.9832    4.8865   22.7566 H         1 RES1    0.0000
     33 H11       -3.9629    3.5194   22.8952 H         1 RES1    0.0000
     34 H12       -4.0359    4.7815   23.9158 H         1 RES1    0.0000
     35 H13       -4.9042    4.7938   22.5487 H         1 RES1    0.0000
     36 H14       -3.8361    5.5716   19.2330 H         1 RES1    0.0000
     37 H15       -4.3589    6.2511   20.6294 H         1 RES1    0.0000
     38 H16       -1.8807    6.9699   19.3107 H         1 RES1    0.0000
     39 H17       -2.4035    7.6452   20.6924 H         1 RES1    0.0000
     40 H18       -3.2683    7.8477   19.2981 H         1 RES1    0.0000
@<TRIPOS>BOND
     1    1    3 2
     2    2    3 2
     3    3    7 1
     4    4    5 2
     5    5   13 1
     6    6   16 1
     7    7    8 ar
     8    8    9 ar
     9    9   10 ar
    10   10   11 ar
    11   11   12 ar
    12   12    4 1
    13   13   14 ar
    14   14   15 ar
    15   15   16 ar
    16   16   17 ar
    17   17   18 ar
    18   18   13 ar
    19   19    6 1
    20   20   19 1
    21   21    6 1
    22   22   21 1
    23   23    8 1
    24   24    9 1
    25   25   10 1
    26   26   11 1
    27   27   14 1
    28   28   15 1
    29   29   17 1
    30   30   18 1
    31   31   19 1
    32   32   19 1
    33   33   20 1
    34   34   20 1
    35   35   20 1
    36   36   21 1
    37   37   21 1
    38   38   22 1
    39   39   22 1
    40   40   22 1
    41    7   12 ar
@<TRIPOS>SUBSTRUCTURE
     1 RES1 1

@<TRIPOS>CRYSIN
  17.3660    8.1960   20.9990  90.0000  90.0000  90.0000  60 1

