# MOL2 file generated by ConQuest
# Please check atom types

@<TRIPOS>MOLECULE
ROKSIT
    23    23     1
SMALL
NO_CHARGES
****
Generated from CSD

@<TRIPOS>ATOM
      1 O1         1.5142    1.0085   11.5596 O.2       1 RES1    0.0000
      2 O2        -0.1806    0.1697   10.4121 O.3       1 RES1    0.0000
      3 O3         4.4881    2.8663   12.3840 O.2       1 RES1    0.0000
      4 N1         3.3598    2.3698   10.2423 N.3       1 RES1    0.0000
      5 N2         4.4931    3.0463   10.1488 N.2       1 RES1    0.0000
      6 N3         5.0109    3.2711   11.2788 N.pl3     1 RES1    0.0000
      7 C1         1.4035    1.4132    9.2110 C.ar      1 RES1    0.0000
      8 C2         0.6463    1.2225    8.0559 C.ar      1 RES1    0.0000
      9 C3         1.0699    1.6975    6.8388 C.ar      1 RES1    0.0000
     10 C4         2.2508    2.3664    6.7483 C.ar      1 RES1    0.0000
     11 C5         3.0287    2.5830    7.8601 C.ar      1 RES1    0.0000
     12 C6         2.5967    2.1206    9.1081 C.ar      1 RES1    0.0000
     13 C7         0.9462    0.8588   10.5016 C.2       1 RES1    0.0000
     14 C8         6.2764    3.9954   11.3261 C.3       1 RES1    0.0000
     15 H1        -0.2076    0.8203    8.1269 H         1 RES1    0.0000
     16 H2         0.5102    1.5813    6.1470 H         1 RES1    0.0000
     17 H3         2.5488    2.6516    5.8352 H         1 RES1    0.0000
     18 H4         3.8394    3.0923    7.7986 H         1 RES1    0.0000
     19 H5        -0.3807   -0.2107   11.2029 H         1 RES1    0.0000
     20 H6         3.1019    2.1432   10.9873 H         1 RES1    0.0000
     21 H7         6.0609    4.7822   11.7368 H         1 RES1    0.0000
     22 H8         6.8773    3.5162   11.9325 H         1 RES1    0.0000
     23 H9         6.6037    4.1476   10.4301 H         1 RES1    0.0000
@<TRIPOS>BOND
     1    1   13 2
     2    2   13 1
     3    3    6 1
     4    4    5 1
     5    5    6 2
     6    6   14 1
     7    7    8 ar
     8    8    9 ar
     9    9   10 ar
    10   10   11 ar
    11   11   12 ar
    12   12    4 1
    13   13    7 1
    14   14   21 1
    15   15    8 1
    16   16    9 1
    17   17   10 1
    18   18   11 1
    19   19    2 1
    20   20    4 1
    21   22   14 1
    22   23   14 1
    23    7   12 ar
@<TRIPOS>SUBSTRUCTURE
     1 RES1 1

@<TRIPOS>CRYSIN
   6.6810    8.3620   16.7070  90.0000  97.0100  90.0000  14 1

