# MOL2 file generated by ConQuest
# Please check atom types

@<TRIPOS>MOLECULE
ROKSUH
    26    16     2
SMALL
NO_CHARGES
****
Generated from CSD

@<TRIPOS>ATOM
      1 C1         3.2916    6.0927    1.8322 C.3       1 RES1    0.0000
      2 C2         2.1503    5.1281    1.4838 C.2       1 RES1    0.0000
      3 N1         1.7966    4.4843    2.5736 N.2       1 RES1    0.0000
      4 N2         0.8107    3.5129    2.4329 N.pl3     1 RES1    0.0000
      5 O1         0.4512    3.1014    1.3431 O.2       1 RES1    0.0000
      6 O2         0.3718    3.0954    3.4848 O.2       1 RES1    0.0000
      7 N3         4.6593    5.3832    1.6136 N.pl3     1 RES1    0.0000
      8 O3         4.6546    4.1842    1.7857 O.2       1 RES1    0.0000
      9 O4         5.5781    6.1330    1.4361 O.2       1 RES1    0.0000
     10 N4         3.1900    6.5150    3.2944 N.pl3     1 RES1    0.0000
     11 O5         4.0747    6.1343    4.0271 O.2       1 RES1    0.0000
     12 O6         2.1644    7.1540    3.5065 O.2       1 RES1    0.0000
     13 N5         3.4067    7.3373    0.9686 N.pl3     1 RES1    0.0000
     14 O7         3.5318    8.3731    1.5314 O.2       1 RES1    0.0000
     15 O8         3.3838    7.1346   -0.2359 O.2       1 RES1    0.0000
     16 O9         1.7324    5.0898    0.2597 O.3       1 RES1    0.0000
     17 H1         1.0316    4.6286    0.2175 H         1 RES1    0.0000
     18 N6         4.3730    5.1824    2.6721 Du        2 SUP2    0.0000
     19 O10        4.5511    4.5246    1.6342 Du        2 SUP2    0.0000
     20 O11        4.4513    5.6523    3.7781 Du        2 SUP2    0.0000
     21 N7         2.6970    7.3910    2.5595 Du        2 SUP2    0.0000
     22 O12        2.1249    7.2500    3.6147 Du        2 SUP2    0.0000
     23 O13        3.3555    8.3711    2.2835 Du        2 SUP2    0.0000
     24 N8         4.2338    6.4713    0.6385 Du        2 SUP2    0.0000
     25 O14        5.2968    5.9276    0.8658 Du        2 SUP2    0.0000
     26 O15        3.6229    7.0822   -0.2273 Du        2 SUP2    0.0000
@<TRIPOS>BOND
     1    1    2 1
     2    2    3 2
     3    3    4 1
     4    4    5 2
     5    6    4 2
     6    7    1 1
     7    8    7 2
     8    9    7 2
     9   10    1 1
    10   11   10 2
    11   12   10 2
    12   13    1 1
    13   14   13 2
    14   15   13 2
    15   16    2 1
    16   17   16 1
@<TRIPOS>SUBSTRUCTURE
     1 RES1 1
     2 SUP2 18

@<TRIPOS>CRYSIN
  11.8660    6.7130   10.8480  90.0000  93.9290  90.0000  14 1

