# MOL2 file generated by ConQuest
# Please check atom types

@<TRIPOS>MOLECULE
ROKSIT01
    14    14     1
SMALL
NO_CHARGES
****
Generated from CSD

@<TRIPOS>ATOM
      1 C1        -2.3193    2.1373   15.8003 C.ar      1 RES1    0.0000
      2 C2        -1.1204    1.4151   15.7056 C.ar      1 RES1    0.0000
      3 C3        -0.3616    1.2263   16.8592 C.ar      1 RES1    0.0000
      4 C4        -0.7974    1.7044   18.0843 C.ar      1 RES1    0.0000
      5 C5        -1.9708    2.3713   18.1625 C.ar      1 RES1    0.0000
      6 C6        -2.7338    2.5919   17.0487 C.ar      1 RES1    0.0000
      7 C7        -0.6580    0.8640   14.4006 C.2       1 RES1    0.0000
      8 C8        -6.0169    4.0170   13.5844 C.3       1 RES1    0.0000
      9 N1        -3.0732    2.3755   14.6666 N.pl3     1 RES1    0.0000
     10 N2        -4.2211    3.0658   14.7664 N.2       1 RES1    0.0000
     11 N3        -4.7399    3.2789   13.6227 N.pl3     1 RES1    0.0000
     12 O1        -1.2295    1.0158   13.3418 O.co2     1 RES1    0.0000
     13 O2         0.4723    0.1837   14.4987 O.co2     1 RES1    0.0000
     14 O3        -4.2123    2.8779   12.5289 O.2       1 RES1    0.0000
@<TRIPOS>BOND
     1    1    2 ar
     2    2    3 ar
     3    3    4 ar
     4    4    5 ar
     5    5    6 ar
     6    6    1 ar
     7    7    2 1
     8    8   11 1
     9    9    1 1
    10   10    9 1
    11   11   10 2
    12   12    7 2
    13   13    7 1
    14   14   11 1
@<TRIPOS>SUBSTRUCTURE
     1 RES1 1

@<TRIPOS>CRYSIN
   6.7000    8.3880   16.7480  90.0000  97.0000  90.0000  14 1

