# MOL2 file generated by ConQuest
# Please check atom types

@<TRIPOS>MOLECULE
ROLBEZ
    39    41     1
SMALL
NO_CHARGES
****
Generated from CSD

@<TRIPOS>ATOM
      1 O1         1.5131   10.6006    5.5812 O.3       1 RES1    0.0000
      2 O2         0.3676   11.0587    7.4591 O.2       1 RES1    0.0000
      3 O3         4.0912    7.1938    4.6393 O.3       1 RES1    0.0000
      4 O4         2.5168   17.6028    6.7734 O.2       1 RES1    0.0000
      5 O5         3.4676   17.0896    4.9142 O.2       1 RES1    0.0000
      6 C1         1.0711   11.4088    6.5458 C.2       1 RES1    0.0000
      7 C2         1.1218    9.1967    5.6616 C.3       1 RES1    0.0000
      8 H1         1.1814    8.8946    6.6025 H         1 RES1    0.0000
      9 C3        -0.3191    8.9779    5.1470 C.3       1 RES1    0.0000
     10 H2        -0.9336    9.1612    5.9011 H         1 RES1    0.0000
     11 C4        -0.5361    7.5386    4.7261 C.2       1 RES1    0.0000
     12 H3        -1.4119    7.2879    4.4946 H         1 RES1    0.0000
     13 C5         0.3989    6.6013    4.6553 C.2       1 RES1    0.0000
     14 H4         0.1794    5.7373    4.3575 H         1 RES1    0.0000
     15 C6         1.8056    6.9253    5.0515 C.3       1 RES1    0.0000
     16 H5         1.8973    6.7428    6.0203 H         1 RES1    0.0000
     17 C7         2.0904    8.4080    4.8262 C.3       1 RES1    0.0000
     18 H6         1.9423    8.6234    3.8714 H         1 RES1    0.0000
     19 C8         3.5770    8.4616    5.1198 C.3       1 RES1    0.0000
     20 H7         3.9985    9.2100    4.6477 H         1 RES1    0.0000
     21 H8         3.7389    8.5616    6.0811 H         1 RES1    0.0000
     22 C9         2.9954    6.3016    4.3470 C.3       1 RES1    0.0000
     23 H9         3.1748    5.4026    4.6933 H         1 RES1    0.0000
     24 H10        2.8392    6.2448    3.3811 H         1 RES1    0.0000
     25 C10       -0.6999    9.9273    4.0040 C.3       1 RES1    0.0000
     26 H11       -1.5899    9.7089    3.6847 H         1 RES1    0.0000
     27 H12       -0.0642    9.8319    3.2775 H         1 RES1    0.0000
     28 H13       -0.6881   10.8423    4.3254 H         1 RES1    0.0000
     29 C11        1.5303   12.8143    6.3448 C.ar      1 RES1    0.0000
     30 C12        2.2026   13.2058    5.1942 C.ar      1 RES1    0.0000
     31 H14        2.3796   12.5763    4.5189 H         1 RES1    0.0000
     32 C13        2.6147   14.5222    5.0363 C.ar      1 RES1    0.0000
     33 H15        3.0725   14.7958    4.2622 H         1 RES1    0.0000
     34 C14        2.3333   15.4173    6.0469 C.ar      1 RES1    0.0000
     35 C15        1.6508   15.0654    7.1905 C.ar      1 RES1    0.0000
     36 H16        1.4637   15.7039    7.8544 H         1 RES1    0.0000
     37 C16        1.2478   13.7506    7.3398 C.ar      1 RES1    0.0000
     38 H17        0.7837   13.4874    8.1132 H         1 RES1    0.0000
     39 N1         2.7982   16.8113    5.8966 N.pl3     1 RES1    0.0000
@<TRIPOS>BOND
     1    1    6 1
     2    2    6 2
     3    3   19 1
     4    4   39 2
     5    5   39 2
     6    6   29 1
     7    7    1 1
     8    8    7 1
     9    9    7 1
    10   10    9 1
    11   11    9 1
    12   12   11 1
    13   13   11 2
    14   14   13 1
    15   15   13 1
    16   16   15 1
    17   17    7 1
    18   18   17 1
    19   19   17 1
    20   20   19 1
    21   21   19 1
    22   22    3 1
    23   23   22 1
    24   24   22 1
    25   25    9 1
    26   26   25 1
    27   27   25 1
    28   28   25 1
    29   29   30 ar
    30   30   31 1
    31   32   30 ar
    32   33   32 1
    33   34   32 ar
    34   35   34 ar
    35   36   35 1
    36   37   29 ar
    37   38   37 1
    38   39   34 1
    39   15   17 1
    40   15   22 1
    41   35   37 ar
@<TRIPOS>SUBSTRUCTURE
     1 RES1 1

@<TRIPOS>CRYSIN
   8.0485   14.3010   13.2703  90.0000  91.7690  90.0000  14 1

