# MOL2 file generated by ConQuest
# Please check atom types

@<TRIPOS>MOLECULE
ROLBAV
    24    25     1
SMALL
NO_CHARGES
****
Generated from CSD

@<TRIPOS>ATOM
      1 N1         4.4479   -0.1961    0.9194 N.ar      1 RES1    0.0000
      2 C1         3.2852    0.3474    0.5469 C.ar      1 RES1    0.0000
      3 C2         2.7587    1.4860    1.1479 C.ar      1 RES1    0.0000
      4 H1         1.9552    1.7935    0.8684 H         1 RES1    0.0000
      5 C3         3.4956    2.0600    2.1524 C.ar      1 RES1    0.0000
      6 C4         4.7043    1.5503    2.5400 C.ar      1 RES1    0.0000
      7 H2         5.2316    1.9537    3.2096 H         1 RES1    0.0000
      8 C5         5.1378    0.4122    1.8850 C.ar      1 RES1    0.0000
      9 H3         5.9709   -0.0089    2.1522 H         1 RES1    0.0000
     10 N2         2.9476    3.2446    2.8479 N.pl3     1 RES1    0.0000
     11 O1         1.8552    3.6497    2.5002 O.2       1 RES1    0.0000
     12 O2         3.6202    3.7505    3.7321 O.2       1 RES1    0.0000
     13 C1B        2.5443   -0.3474   -0.5469 C.ar      1 RES1    0.0000
     14 N1B        1.3816    0.1961   -0.9194 N.ar      1 RES1    0.0000
     15 C5B        0.6917   -0.4122   -1.8850 C.ar      1 RES1    0.0000
     16 C4B        1.1252   -1.5503   -2.5400 C.ar      1 RES1    0.0000
     17 C3B        2.3339   -2.0600   -2.1524 C.ar      1 RES1    0.0000
     18 C2B        3.0708   -1.4860   -1.1479 C.ar      1 RES1    0.0000
     19 H1B        3.8743   -1.7935   -0.8684 H         1 RES1    0.0000
     20 N2B        2.8819   -3.2446   -2.8479 N.pl3     1 RES1    0.0000
     21 O1B        3.9743   -3.6497   -2.5002 O.2       1 RES1    0.0000
     22 O2B        2.2093   -3.7505   -3.7321 O.2       1 RES1    0.0000
     23 H2B        0.5979   -1.9537   -3.2096 H         1 RES1    0.0000
     24 H3B       -0.1414    0.0089   -2.1522 H         1 RES1    0.0000
@<TRIPOS>BOND
     1    1    2 ar
     2    2    3 ar
     3    3    4 1
     4    5    3 ar
     5    6    5 ar
     6    7    6 1
     7    8    1 ar
     8    9    8 1
     9   10    5 1
    10   11   10 2
    11   12   10 2
    12   13    2 1
    13   14   13 ar
    14   15   14 ar
    15   16   15 ar
    16   17   16 ar
    17   18   13 ar
    18   19   18 1
    19   20   17 1
    20   21   20 2
    21   22   20 2
    22   23   16 1
    23   24   15 1
    24    6    8 ar
    25   17   18 ar
@<TRIPOS>SUBSTRUCTURE
     1 RES1 1

@<TRIPOS>CRYSIN
   5.8295    5.5407   16.3450  90.0000  94.6070  90.0000  14 1

