# MOL2 file generated by ConQuest
# Please check atom types

@<TRIPOS>MOLECULE
ROLKIM
    27    29     1
SMALL
NO_CHARGES
****
Generated from CSD

@<TRIPOS>ATOM
      1 O1         5.7542    2.8420    0.2458 O.2       1 RES1    0.0000
      2 N1         6.3934    1.9241   -0.3790 N.2       1 RES1    0.0000
      3 N2         5.6938    0.3194    1.3353 N.pl3     1 RES1    0.0000
      4 C1         6.6919   -1.5020    0.4559 C.2       1 RES1    0.0000
      5 C2         6.9954   -0.4679   -0.3812 C.2       1 RES1    0.0000
      6 C3         6.3519    0.6946    0.1397 C.2       1 RES1    0.0000
      7 C4         5.0116    1.0687    2.2807 C.2       1 RES1    0.0000
      8 C5         4.5415    0.4288    3.3777 C.2       1 RES1    0.0000
      9 C6         4.7023   -0.9447    3.5748 C.2       1 RES1    0.0000
     10 C7         5.3785   -1.6661    2.6326 C.2       1 RES1    0.0000
     11 C8         5.9050   -1.0430    1.5280 C.2       1 RES1    0.0000
     12 C9         7.8526   -0.5595   -1.5746 C.ar      1 RES1    0.0000
     13 C10        7.7242    0.3060   -2.6510 C.ar      1 RES1    0.0000
     14 C11        8.5149    0.1496   -3.7914 C.ar      1 RES1    0.0000
     15 C12        9.4423   -0.8688   -3.8336 C.ar      1 RES1    0.0000
     16 C13        9.5862   -1.7208   -2.7626 C.ar      1 RES1    0.0000
     17 C14        8.8006   -1.5701   -1.6298 C.ar      1 RES1    0.0000
     18 H1         6.9590   -2.4679    0.3574 H         1 RES1    0.0000
     19 H2         5.0885    2.0659    2.1442 H         1 RES1    0.0000
     20 H3         4.2081    1.0050    4.1044 H         1 RES1    0.0000
     21 H4         4.4413   -1.3959    4.3751 H         1 RES1    0.0000
     22 H5         5.5061   -2.6912    2.7940 H         1 RES1    0.0000
     23 H6         7.0554    1.0609   -2.6207 H         1 RES1    0.0000
     24 H7         8.2816    0.7482   -4.6458 H         1 RES1    0.0000
     25 H8        10.0827   -1.0497   -4.5267 H         1 RES1    0.0000
     26 H9        10.2415   -2.4456   -2.8157 H         1 RES1    0.0000
     27 H10        8.9228   -2.1887   -0.8664 H         1 RES1    0.0000
@<TRIPOS>BOND
     1    1    2 2
     2    2    6 1
     3    3    6 1
     4    4    5 1
     5    5    6 2
     6    7    3 1
     7    8    7 2
     8    9    8 1
     9   10    9 2
    10   11    3 1
    11   12    5 1
    12   13   12 ar
    13   14   13 ar
    14   15   14 ar
    15   16   15 ar
    16   17   12 ar
    17   18    4 1
    18   19    7 1
    19   20    8 1
    20   21    9 1
    21   22   10 1
    22   23   13 1
    23   24   14 1
    24   25   15 1
    25   26   16 1
    26   27   17 1
    27    4   11 2
    28   10   11 1
    29   16   17 ar
@<TRIPOS>SUBSTRUCTURE
     1 RES1 1

@<TRIPOS>CRYSIN
   8.9910   11.1670   11.0470  90.0000 101.3900  90.0000  14 1

