# MOL2 file generated by ConQuest
# Please check atom types

@<TRIPOS>MOLECULE
ROLVIZ
    80    84     4
SMALL
NO_CHARGES
****
Generated from CSD

@<TRIPOS>ATOM
      1 O1         6.8734    2.5827    2.6186 O.3       1 RES1    0.0000
      2 H1         6.9804    3.3628    2.3264 H         1 RES1    0.0000
      3 N1         0.7657    1.1155    2.3247 N.ar      1 RES1    0.0000
      4 C1         0.2534    1.4835    1.1700 C.ar      1 RES1    0.0000
      5 H2        -0.6342    1.2128    0.9670 H         1 RES1    0.0000
      6 N2         5.9493    2.6050    3.6992 N.3       1 RES1    0.0000
      7 C2         0.9410    2.2472    0.2266 C.ar      1 RES1    0.0000
      8 H3         0.5297    2.4828   -0.5971 H         1 RES1    0.0000
      9 C3         2.2175    2.6516    0.5087 C.ar      1 RES1    0.0000
     10 H4         2.7007    3.1764   -0.1183 H         1 RES1    0.0000
     11 C4         2.8157    2.2861    1.7333 C.ar      1 RES1    0.0000
     12 C5         4.1462    2.6308    2.0804 C.ar      1 RES1    0.0000
     13 H5         4.6773    3.1361    1.4777 H         1 RES1    0.0000
     14 C6         4.6693    2.2341    3.2919 C.ar      1 RES1    0.0000
     15 C7         3.8791    1.4760    4.1816 C.ar      1 RES1    0.0000
     16 H6         4.2379    1.2179    5.0227 H         1 RES1    0.0000
     17 C8         2.6083    1.1079    3.8532 C.ar      1 RES1    0.0000
     18 H7         2.1009    0.5784    4.4557 H         1 RES1    0.0000
     19 C9         2.0415    1.5066    2.6276 C.ar      1 RES1    0.0000
     20 H8         6.2038    2.1302    4.2623 H         1 RES1    0.0000
     21 O2        12.2542    8.5504    3.8383 O.3       2 RES2    0.0000
     22 H9        12.8534    9.0017    3.4605 H         2 RES2    0.0000
     23 N3         7.3018    5.1826    1.9772 N.ar      2 RES2    0.0000
     24 C10        6.3677    5.9762    1.5134 C.ar      2 RES2    0.0000
     25 H10        5.5309    5.5878    1.2862 H         2 RES2    0.0000
     26 N4        12.2625    7.2819    3.3458 N.3       2 RES2    0.0000
     27 C11        6.5166    7.3410    1.3313 C.ar      2 RES2    0.0000
     28 H11        5.7976    7.8625    0.9952 H         2 RES2    0.0000
     29 C12        7.7060    7.9244    1.6411 C.ar      2 RES2    0.0000
     30 H12        7.8345    8.8540    1.4927 H         2 RES2    0.0000
     31 C13        8.7472    7.1443    2.1802 C.ar      2 RES2    0.0000
     32 C14        9.9905    7.6843    2.5782 C.ar      2 RES2    0.0000
     33 H13       10.1389    8.6228    2.5424 H         2 RES2    0.0000
     34 C15       10.9802    6.8501    3.0165 C.ar      2 RES2    0.0000
     35 C16       10.7708    5.4277    3.0249 C.ar      2 RES2    0.0000
     36 H14       11.4870    4.8495    3.2615 H         2 RES2    0.0000
     37 C17        9.5677    4.9010    2.6993 C.ar      2 RES2    0.0000
     38 H15        9.4317    3.9611    2.7433 H         2 RES2    0.0000
     39 C18        8.5058    5.7527    2.2902 C.ar      2 RES2    0.0000
     40 H16       12.6877    6.8419    3.9243 H         2 RES2    0.0000
     41 O3         7.2503    0.0046    7.3687 O.3       3 RES3    0.0000
     42 H17        6.4461   -0.2179    7.4637 H         3 RES3    0.0000
     43 N5        11.1274    4.8817    7.2470 N.ar      3 RES3    0.0000
     44 C19       11.1217    5.4960    8.4181 C.ar      3 RES3    0.0000
     45 H18       11.7771    6.1669    8.5678 H         3 RES3    0.0000
     46 N6         7.3794    0.8922    6.1987 N.3       3 RES3    0.0000
     47 C20       10.2218    5.2279    9.4465 C.ar      3 RES3    0.0000
     48 H19       10.2642    5.7036   10.2671 H         3 RES3    0.0000
     49 C21        9.2746    4.2631    9.2479 C.ar      3 RES3    0.0000
     50 H20        8.6576    4.0572    9.9403 H         3 RES3    0.0000
     51 C22        9.2092    3.5756    8.0264 C.ar      3 RES3    0.0000
     52 C23        8.2804    2.5472    7.7529 C.ar      3 RES3    0.0000
     53 H21        7.6595    2.2855    8.4232 H         3 RES3    0.0000
     54 C24        8.2615    1.9217    6.5339 C.ar      3 RES3    0.0000
     55 C25        9.1769    2.3389    5.5290 C.ar      3 RES3    0.0000
     56 H22        9.1326    1.9464    4.6641 H         3 RES3    0.0000
     57 C26       10.1143    3.2903    5.7862 C.ar      3 RES3    0.0000
     58 H23       10.7437    3.5214    5.1129 H         3 RES3    0.0000
     59 C27       10.1642    3.9360    7.0343 C.ar      3 RES3    0.0000
     60 H24        7.7312    0.3388    5.6518 H         3 RES3    0.0000
     61 O4         3.6898    5.2522    5.3091 O.3       4 RES4    0.0000
     62 H25        3.1609    5.1291    5.9503 H         4 RES4    0.0000
     63 N7         8.3514    8.8786    7.5572 N.ar      4 RES4    0.0000
     64 C28        7.8506    9.9458    8.1568 C.ar      4 RES4    0.0000
     65 H26        8.4564   10.5718    8.5340 H         4 RES4    0.0000
     66 N8         4.9625    4.9106    5.6925 N.3       4 RES4    0.0000
     67 C29        6.4888   10.2039    8.2655 C.ar      4 RES4    0.0000
     68 H27        6.1847   10.9924    8.7011 H         4 RES4    0.0000
     69 C30        5.5991    9.3254    7.7480 C.ar      4 RES4    0.0000
     70 H28        4.6664    9.4937    7.8167 H         4 RES4    0.0000
     71 C31        6.0640    8.1557    7.1041 C.ar      4 RES4    0.0000
     72 C32        5.2071    7.1649    6.5840 C.ar      4 RES4    0.0000
     73 H29        4.2660    7.2925    6.6075 H         4 RES4    0.0000
     74 C33        5.7327    6.0088    6.0387 C.ar      4 RES4    0.0000
     75 C34        7.1458    5.8509    5.9424 C.ar      4 RES4    0.0000
     76 H30        7.5042    5.0668    5.5429 H         4 RES4    0.0000
     77 C35        7.9843    6.8070    6.4139 C.ar      4 RES4    0.0000
     78 H31        8.9238    6.6920    6.3334 H         4 RES4    0.0000
     79 C36        7.4682    7.9743    7.0251 C.ar      4 RES4    0.0000
     80 H32        5.2994    4.4102    5.0509 H         4 RES4    0.0000
@<TRIPOS>BOND
     1    1    2 1
     2    3    4 ar
     3    4    5 1
     4    6    1 1
     5    7    4 ar
     6    8    7 1
     7    9    7 ar
     8   10    9 1
     9   11    9 ar
    10   12   11 ar
    11   13   12 1
    12   14    6 1
    13   15   14 ar
    14   16   15 1
    15   17   15 ar
    16   18   17 1
    17   19    3 ar
    18   20    6 1
    19   21   22 1
    20   23   24 ar
    21   24   25 1
    22   26   21 1
    23   27   24 ar
    24   28   27 1
    25   29   27 ar
    26   30   29 1
    27   31   29 ar
    28   32   31 ar
    29   33   32 1
    30   34   26 1
    31   35   34 ar
    32   36   35 1
    33   37   35 ar
    34   38   37 1
    35   39   23 ar
    36   40   26 1
    37   41   42 1
    38   43   44 ar
    39   44   45 1
    40   46   41 1
    41   47   44 ar
    42   48   47 1
    43   49   47 ar
    44   50   49 1
    45   51   49 ar
    46   52   51 ar
    47   53   52 1
    48   54   46 1
    49   55   54 ar
    50   56   55 1
    51   57   55 ar
    52   58   57 1
    53   59   43 ar
    54   60   46 1
    55   61   62 1
    56   63   64 ar
    57   64   65 1
    58   66   61 1
    59   67   64 ar
    60   68   67 1
    61   69   67 ar
    62   70   69 1
    63   71   69 ar
    64   72   71 ar
    65   73   72 1
    66   74   66 1
    67   75   74 ar
    68   76   75 1
    69   77   75 ar
    70   78   77 1
    71   79   63 ar
    72   80   66 1
    73   11   19 ar
    74   12   14 ar
    75   17   19 ar
    76   31   39 ar
    77   32   34 ar
    78   37   39 ar
    79   51   59 ar
    80   52   54 ar
    81   57   59 ar
    82   71   79 ar
    83   72   74 ar
    84   77   79 ar
@<TRIPOS>SUBSTRUCTURE
     1 RES1 1
     2 RES2 21
     3 RES3 41
     4 RES4 61

@<TRIPOS>CRYSIN
   9.3730    9.7117   18.9370  84.8550  83.0430  67.4770   2 1

