# MOL2 file generated by ConQuest
# Please check atom types

@<TRIPOS>MOLECULE
ROMCOM
    32    32     2
SMALL
USER_CHARGES
****
Generated from CSD

@<TRIPOS>ATOM
      1 O1        -0.1780    4.1327    3.1292 O.3       1 RES1    0.0000
      2 H1        -0.5120    4.6646    3.6576 H         1 RES1    0.0000
      3 O2         0.2291    1.0615    4.6231 O.2       1 RES1   -1.0000
      4 H2        -0.1225    0.6475    5.2368 Du        2 SUP2    0.0000
      5 O3         1.3777    7.8571   -1.5724 O.2       1 RES1    0.0000
      6 O4         2.8841    6.3347   -1.8129 O.2       1 RES1    0.0000
      7 O5         4.4828   -1.4770    0.9070 O.2       1 RES1    0.0000
      8 O6         4.3490   -3.0434    2.3627 O.2       1 RES1    0.0000
      9 N1         1.4199    2.1566    2.5793 N.pl3     1 RES1    1.0000
     10 H3         0.8103    2.5101    3.0714 H         1 RES1    0.0000
     11 N2         1.9194    6.8154   -1.2238 N.pl3     1 RES1    0.0000
     12 N3         4.0432   -1.9397    1.9544 N.pl3     1 RES1    0.0000
     13 C1         0.3099    4.7679    2.1375 C.ar      1 RES1    0.0000
     14 C2        -0.1419    6.0751    1.7687 C.ar      1 RES1    0.0000
     15 H4        -0.8046    6.4884    2.2733 H         1 RES1    0.0000
     16 C3         0.3776    6.7149    0.7032 C.ar      1 RES1    0.0000
     17 H5         0.0669    7.5622    0.4785 H         1 RES1    0.0000
     18 C4         1.3907    6.1094   -0.0753 C.ar      1 RES1    0.0000
     19 C5         1.8713    4.8739    0.2343 C.ar      1 RES1    0.0000
     20 H6         2.5422    4.4915   -0.2837 H         1 RES1    0.0000
     21 C6         1.3545    4.1846    1.3292 C.ar      1 RES1    0.0000
     22 C7         1.8552    2.8864    1.6106 C.2       1 RES1    0.0000
     23 H7         2.5305    2.5454    1.0685 H         1 RES1    0.0000
     24 C8         1.8206    0.8412    2.9344 C.ar      1 RES1    0.0000
     25 C9         1.1619    0.3014    4.0520 C.ar      1 RES1    0.0000
     26 C10        1.5135   -0.9713    4.4953 C.ar      1 RES1    0.0000
     27 H8         1.0932   -1.3356    5.2406 H         1 RES1    0.0000
     28 C11        2.4822   -1.6938    3.8333 C.ar      1 RES1    0.0000
     29 H9         2.7289   -2.5377    4.1361 H         1 RES1    0.0000
     30 C12        3.0850   -1.1496    2.7120 C.ar      1 RES1    0.0000
     31 C13        2.7695    0.1135    2.2504 C.ar      1 RES1    0.0000
     32 H10        3.1877    0.4641    1.4979 H         1 RES1    0.0000
@<TRIPOS>BOND
     1    1    2 1
     2    3   25 1
     3    5   11 2
     4    6   11 2
     5    7   12 2
     6    8   12 2
     7    9   10 1
     8   11   18 1
     9   12   30 1
    10   13    1 1
    11   14   13 ar
    12   15   14 1
    13   16   14 ar
    14   17   16 1
    15   18   16 ar
    16   19   18 ar
    17   20   19 1
    18   21   13 ar
    19   22    9 2
    20   23   22 1
    21   24    9 1
    22   25   24 ar
    23   26   25 ar
    24   27   26 1
    25   28   26 ar
    26   29   28 1
    27   30   28 ar
    28   31   24 ar
    29   32   31 1
    30   19   21 ar
    31   21   22 1
    32   30   31 ar
@<TRIPOS>SUBSTRUCTURE
     1 RES1 1
     2 SUP2 4

@<TRIPOS>CRYSIN
   7.9649    8.6110   19.1190  90.0000  98.4330  90.0000  14 1

