# MOL2 file generated by ConQuest
# Please check atom types

@<TRIPOS>MOLECULE
ROMJIN
    23    23     1
SMALL
NO_CHARGES
****
Generated from CSD

@<TRIPOS>ATOM
      1 N1         7.5405    4.4504    4.3094 N.pl3     1 RES1    0.0000
      2 O1         9.4101    1.7917    9.4002 O.3       1 RES1    0.0000
      3 C1        10.3988    1.8024   10.4583 C.3       1 RES1    0.0000
      4 H1        10.2966    1.0170   11.0008 H         1 RES1    0.0000
      5 H2        10.2775    2.5842   11.0022 H         1 RES1    0.0000
      6 H3        11.2786    1.8131   10.0747 H         1 RES1    0.0000
      7 C2         9.4989    2.7695    8.5041 C.2       1 RES1    0.0000
      8 O2        10.3432    3.6076    8.5225 O.2       1 RES1    0.0000
      9 C3         8.4017    2.7188    7.4984 C.ar      1 RES1    0.0000
     10 O3         8.4958    5.1899    4.2176 O.2       1 RES1    0.0000
     11 O4         6.6413    4.4249    3.4975 O.2       1 RES1    0.0000
     12 C4         7.2751    1.9202    7.6731 C.ar      1 RES1    0.0000
     13 H4         7.2106    1.3651    8.4163 H         1 RES1    0.0000
     14 O5         5.0052    0.3470    7.9435 O.2       1 RES1    0.0000
     15 C5         6.2469    1.9507    6.7413 C.ar      1 RES1    0.0000
     16 O6         4.0956    1.2268    6.1121 O.3       1 RES1    0.0000
     17 H5         3.3602    0.6412    6.2485 H         1 RES1    0.0000
     18 C6         6.3427    2.7679    5.6220 C.ar      1 RES1    0.0000
     19 H6         5.6631    2.7882    4.9881 H         1 RES1    0.0000
     20 C7         7.4702    3.5478    5.4735 C.ar      1 RES1    0.0000
     21 C8         8.5040    3.5475    6.3828 C.ar      1 RES1    0.0000
     22 H7         9.2514    4.0865    6.2558 H         1 RES1    0.0000
     23 C9         5.0401    1.1148    6.9531 C.2       1 RES1    0.0000
@<TRIPOS>BOND
     1    1   10 2
     2    2    3 1
     3    3    4 1
     4    5    3 1
     5    6    3 1
     6    7    2 1
     7    8    7 2
     8    9    7 1
     9   11    1 2
    10   12    9 ar
    11   13   12 1
    12   14   23 2
    13   15   12 ar
    14   16   17 1
    15   18   15 ar
    16   19   18 1
    17   20    1 1
    18   21    9 ar
    19   22   21 1
    20   23   15 1
    21   16   23 1
    22   18   20 ar
    23   20   21 ar
@<TRIPOS>SUBSTRUCTURE
     1 RES1 1

@<TRIPOS>CRYSIN
   7.3450    8.9050   14.4740  90.0000  91.1800  90.0000  14 1

