# MOL2 file generated by ConQuest
# Please check atom types

@<TRIPOS>MOLECULE
ROMVUL
    42    45     1
SMALL
NO_CHARGES
****
Generated from CSD

@<TRIPOS>ATOM
      1 O1         2.0462    3.9387    1.2968 O.3       1 RES1    0.0000
      2 O2         5.7108   -1.7276    4.0694 O.2       1 RES1    0.0000
      3 O3         5.1248   -1.6572    6.1106 O.2       1 RES1    0.0000
      4 O4         2.5772    0.2142   -0.5231 O.2       1 RES1    0.0000
      5 O5        -0.9608    2.2854   -0.6287 O.2       1 RES1    0.0000
      6 N1         3.4690    2.1676    1.0652 N.3       1 RES1    0.0000
      7 H1         3.6707    1.4477    0.6422 H         1 RES1    0.0000
      8 N2         5.1928   -1.1663    5.0071 N.pl3     1 RES1    0.0000
      9 C1         2.3042    2.7090    0.8198 C.2       1 RES1    0.0000
     10 C2         4.4570    2.7020    2.0116 C.3       1 RES1    0.0000
     11 H2         5.3517    2.4861    1.6745 H         1 RES1    0.0000
     12 C3         4.3121    4.1995    2.0363 C.ar      1 RES1    0.0000
     13 C4         3.1262    4.7446    1.6794 C.ar      1 RES1    0.0000
     14 C5         2.8788    6.1198    1.6464 C.ar      1 RES1    0.0000
     15 H3         2.0437    6.4480    1.3990 H         1 RES1    0.0000
     16 C6         3.8821    6.9639    1.9831 C.ar      1 RES1    0.0000
     17 H4         3.7396    7.8816    1.9435 H         1 RES1    0.0000
     18 C7         5.1441    6.4742    2.3936 C.ar      1 RES1    0.0000
     19 C8         6.1927    7.3397    2.7815 C.ar      1 RES1    0.0000
     20 H5         6.0664    8.2605    2.7347 H         1 RES1    0.0000
     21 C9         7.3763    6.8537    3.2196 C.ar      1 RES1    0.0000
     22 H6         8.0503    7.4396    3.4802 H         1 RES1    0.0000
     23 C10        7.5898    5.4706    3.2815 C.ar      1 RES1    0.0000
     24 H7         8.4043    5.1429    3.5891 H         1 RES1    0.0000
     25 C11        6.6132    4.5973    2.8937 C.ar      1 RES1    0.0000
     26 H8         6.7719    3.6812    2.9320 H         1 RES1    0.0000
     27 C12        5.3660    5.0721    2.4356 C.ar      1 RES1    0.0000
     28 C13        4.2927    2.0483    3.3755 C.ar      1 RES1    0.0000
     29 C14        3.6353    2.6643    4.4237 C.ar      1 RES1    0.0000
     30 H9         3.2777    3.5152    4.3012 H         1 RES1    0.0000
     31 C15        3.4989    2.0427    5.6501 C.ar      1 RES1    0.0000
     32 H10        3.0541    2.4791    6.3405 H         1 RES1    0.0000
     33 C16        4.0114    0.7879    5.8617 C.ar      1 RES1    0.0000
     34 H11        3.9338    0.3672    6.6868 H         1 RES1    0.0000
     35 C17        4.6418    0.1799    4.8090 C.ar      1 RES1    0.0000
     36 C18        4.8010    0.7776    3.5804 C.ar      1 RES1    0.0000
     37 H12        5.2453    0.3321    2.8948 H         1 RES1    0.0000
     38 C19        1.2848    2.0997    0.0745 C.2       1 RES1    0.0000
     39 C20        0.0130    2.7518   -0.0742 C.2       1 RES1    0.0000
     40 H13       -0.0714    3.6064    0.2858 H         1 RES1    0.0000
     41 C21        1.5210    0.8471   -0.5451 C.2       1 RES1    0.0000
     42 H14        0.8114    0.4678   -1.0118 H         1 RES1    0.0000
@<TRIPOS>BOND
     1    1    9 1
     2    2    8 2
     3    3    8 2
     4    4   41 2
     5    5   39 2
     6    6    7 1
     7    8   35 1
     8    9    6 1
     9   10    6 1
    10   11   10 1
    11   12   10 1
    12   13    1 1
    13   14   13 ar
    14   15   14 1
    15   16   14 ar
    16   17   16 1
    17   18   16 ar
    18   19   18 ar
    19   20   19 1
    20   21   19 ar
    21   22   21 1
    22   23   21 ar
    23   24   23 1
    24   25   23 ar
    25   26   25 1
    26   27   12 ar
    27   28   10 1
    28   29   28 ar
    29   30   29 1
    30   31   29 ar
    31   32   31 1
    32   33   31 ar
    33   34   33 1
    34   35   33 ar
    35   36   28 ar
    36   37   36 1
    37   38    9 2
    38   39   38 1
    39   40   39 1
    40   41   38 1
    41   42   41 1
    42   12   13 ar
    43   18   27 ar
    44   25   27 ar
    45   35   36 ar
@<TRIPOS>SUBSTRUCTURE
     1 RES1 1

@<TRIPOS>CRYSIN
   7.9191   23.3876    9.6199  90.0000 104.6320  90.0000 231 1

