# MOL2 file generated by ConQuest
# Please check atom types

@<TRIPOS>MOLECULE
ROMYEY
    49    50     1
SMALL
NO_CHARGES
****
Generated from CSD

@<TRIPOS>ATOM
      1 O1         9.7798    4.1374    6.4638 O.3       1 RES1    0.0000
      2 O2         9.3697    1.9573    6.1950 O.2       1 RES1    0.0000
      3 O3         6.5614    6.0847    5.2731 O.2       1 RES1    0.0000
      4 O4         6.9282    4.2722    6.3756 O.2       1 RES1    0.0000
      5 O5         8.0191    4.7802    0.6033 O.3       1 RES1    0.0000
      6 O6         9.6463    2.8407    0.9575 O.3       1 RES1    0.0000
      7 N1         7.0698    4.9629    5.3555 N.pl3     1 RES1    0.0000
      8 N2         6.8374    8.0063   -2.7935 N.3       1 RES1    0.0000
      9 C1        10.4033    3.8979    7.7421 C.3       1 RES1    0.0000
     10 H1        10.7017    4.7312    8.1140 H         1 RES1    0.0000
     11 H2        11.1555    3.3119    7.6251 H         1 RES1    0.0000
     12 H3         9.7690    3.4913    8.3353 H         1 RES1    0.0000
     13 C2         9.2990    3.0791    5.8150 C.2       1 RES1    0.0000
     14 C3         8.7886    3.4779    4.4631 C.ar      1 RES1    0.0000
     15 C4         9.3965    2.9198    3.3635 C.ar      1 RES1    0.0000
     16 H4        10.0247    2.2447    3.4855 H         1 RES1    0.0000
     17 C5         9.0959    3.3364    2.0884 C.ar      1 RES1    0.0000
     18 C6         8.1689    4.3903    1.8999 C.ar      1 RES1    0.0000
     19 C7         7.5368    4.9283    2.9761 C.ar      1 RES1    0.0000
     20 H5         6.9193    5.6134    2.8570 H         1 RES1    0.0000
     21 C8         7.8119    4.4560    4.2534 C.ar      1 RES1    0.0000
     22 C9        10.4984    1.6933    1.0614 C.3       1 RES1    0.0000
     23 H6        10.8166    1.4515    0.1892 H         1 RES1    0.0000
     24 H7        10.0036    0.9614    1.4365 H         1 RES1    0.0000
     25 H8        11.2443    1.9005    1.6289 H         1 RES1    0.0000
     26 C10        7.2115    5.9421    0.3399 C.3       1 RES1    0.0000
     27 H9         7.4973    6.6829    0.8978 H         1 RES1    0.0000
     28 H10        6.2795    5.7538    0.5323 H         1 RES1    0.0000
     29 C11        7.3822    6.2863   -1.1014 C.3       1 RES1    0.0000
     30 H11        7.1381    5.5221   -1.6465 H         1 RES1    0.0000
     31 H12        8.3150    6.4913   -1.2762 H         1 RES1    0.0000
     32 C12        6.5233    7.4783   -1.4926 C.3       1 RES1    0.0000
     33 H13        5.5907    7.2120   -1.4782 H         1 RES1    0.0000
     34 H14        6.6409    8.1801   -0.8321 H         1 RES1    0.0000
     35 C13        6.4425    7.0962   -3.8735 C.3       1 RES1    0.0000
     36 H15        5.4815    6.9714   -3.8494 H         1 RES1    0.0000
     37 H16        6.8594    6.2328   -3.7292 H         1 RES1    0.0000
     38 C14        6.8364    7.6142   -5.2154 C.3       1 RES1    0.0000
     39 H17        6.5030    7.0115   -5.8984 H         1 RES1    0.0000
     40 H18        7.8045    7.6287   -5.2795 H         1 RES1    0.0000
     41 C15        6.3058    8.9900   -5.4719 C.3       1 RES1    0.0000
     42 H19        5.3416    8.9588   -5.5649 H         1 RES1    0.0000
     43 H20        6.6785    9.3375   -6.2976 H         1 RES1    0.0000
     44 C16        6.6782    9.8934   -4.3256 C.3       1 RES1    0.0000
     45 H21        6.2675   10.7624   -4.4554 H         1 RES1    0.0000
     46 H22        7.6397   10.0160   -4.3143 H         1 RES1    0.0000
     47 C17        6.2313    9.3242   -2.9949 C.3       1 RES1    0.0000
     48 H23        6.4970    9.9202   -2.2782 H         1 RES1    0.0000
     49 H24        5.2647    9.2451   -2.9820 H         1 RES1    0.0000
@<TRIPOS>BOND
     1    1    9 1
     2    2   13 2
     3    3    7 2
     4    4    7 2
     5    5   18 1
     6    6   17 1
     7    7   21 1
     8    8   32 1
     9    9   10 1
    10   11    9 1
    11   12    9 1
    12   13    1 1
    13   14   13 1
    14   15   14 ar
    15   16   15 1
    16   17   15 ar
    17   18   17 ar
    18   19   18 ar
    19   20   19 1
    20   21   14 ar
    21   22    6 1
    22   23   22 1
    23   24   22 1
    24   25   22 1
    25   26    5 1
    26   27   26 1
    27   28   26 1
    28   29   26 1
    29   30   29 1
    30   31   29 1
    31   32   29 1
    32   33   32 1
    33   34   32 1
    34   35    8 1
    35   36   35 1
    36   37   35 1
    37   38   35 1
    38   39   38 1
    39   40   38 1
    40   41   38 1
    41   42   41 1
    42   43   41 1
    43   44   41 1
    44   45   44 1
    45   46   44 1
    46   47    8 1
    47   48   47 1
    48   49   47 1
    49   19   21 ar
    50   44   47 1
@<TRIPOS>SUBSTRUCTURE
     1 RES1 1

@<TRIPOS>CRYSIN
  10.0730   11.1400   16.1610  90.0000  97.2300  90.0000 231 1

