# MOL2 file generated by ConQuest
# Please check atom types

@<TRIPOS>MOLECULE
ROQNUI
    51    53     1
SMALL
NO_CHARGES
****
Generated from CSD

@<TRIPOS>ATOM
      1 N1         4.9974   10.7618   12.1002 N.am      1 RES1    0.0000
      2 C1         4.5035    9.6334   12.7478 C.2       1 RES1    0.0000
      3 O1         3.3132    9.4035   12.8359 O.2       1 RES1    0.0000
      4 N2         5.4288    8.7915   13.3141 N.am      1 RES1    0.0000
      5 H1         5.1170    8.0583   13.7413 H         1 RES1    0.0000
      6 C2         6.7996    8.9312   13.3229 C.2       1 RES1    0.0000
      7 O2         7.4895    8.0847   13.8671 O.2       1 RES1    0.0000
      8 C3         7.3108   10.1343   12.6478 C.2       1 RES1    0.0000
      9 C4         6.3425   11.0714   12.0053 C.2       1 RES1    0.0000
     10 O3         6.7000   12.0893   11.4390 O.2       1 RES1    0.0000
     11 C5         4.0046   11.7199   11.5511 C.3       1 RES1    0.0000
     12 H2         4.3862   12.6307   11.6090 H         1 RES1    0.0000
     13 H3         3.2002   11.6982   12.1270 H         1 RES1    0.0000
     14 C6         3.5725   11.4756   10.1225 C.3       1 RES1    0.0000
     15 H4         3.2817   10.5317   10.0442 H         1 RES1    0.0000
     16 H5         2.7833   12.0441    9.9371 H         1 RES1    0.0000
     17 C7         4.6056   11.7393    9.0541 C.3       1 RES1    0.0000
     18 H6         5.3289   11.0670    9.1224 H         1 RES1    0.0000
     19 H7         5.0048   12.6342    9.1952 H         1 RES1    0.0000
     20 C8         3.9856   11.6742    7.6649 C.3       1 RES1    0.0000
     21 H8         4.6693   11.8785    6.9929 H         1 RES1    0.0000
     22 H9         3.2584   12.3283    7.6015 H         1 RES1    0.0000
     23 H10        3.6306   10.7748    7.5067 H         1 RES1    0.0000
     24 C9         8.6058   10.4521   12.4902 C.2       1 RES1    0.0000
     25 H11        8.7460   11.1994   11.9209 H         1 RES1    0.0000
     26 C10        9.8459    9.8803   13.0183 C.ar      1 RES1    0.0000
     27 C11        9.9725    9.5040   14.3533 C.ar      1 RES1    0.0000
     28 H12        9.1992    9.4131   14.8980 H         1 RES1    0.0000
     29 C12       11.2260    9.2635   14.8855 C.ar      1 RES1    0.0000
     30 N3        11.3281    8.8956   16.2898 N.pl3     1 RES1    0.0000
     31 O4        10.3054    8.8876   16.9742 O.2       1 RES1    0.0000
     32 O5        12.4395    8.6151   16.7430 O.2       1 RES1    0.0000
     33 C13       12.3789    9.3850   14.1239 C.ar      1 RES1    0.0000
     34 H13       13.2326    9.2408   14.5134 H         1 RES1    0.0000
     35 C14       12.2643    9.7200   12.7875 C.ar      1 RES1    0.0000
     36 H14       13.0480    9.7978   12.2561 H         1 RES1    0.0000
     37 C15       11.0132    9.9457   12.2068 C.ar      1 RES1    0.0000
     38 N4        10.8755   10.2753   10.8617 N.3       1 RES1    0.0000
     39 C16       12.0873   10.5534   10.0863 C.3       1 RES1    0.0000
     40 H15       12.5594    9.7065    9.8876 H         1 RES1    0.0000
     41 H16       12.6950   11.1321   10.6116 H         1 RES1    0.0000
     42 C17       11.7117   11.2496    8.7867 C.3       1 RES1    0.0000
     43 H17       11.3009   12.1262    8.9919 H         1 RES1    0.0000
     44 H18       12.5304   11.4140    8.2541 H         1 RES1    0.0000
     45 O6        10.7951   10.4656    8.0157 O.3       1 RES1    0.0000
     46 C18        9.6066   10.2110    8.7712 C.3       1 RES1    0.0000
     47 H19        8.9784    9.6699    8.2294 H         1 RES1    0.0000
     48 H20        9.1629   11.0682    8.9919 H         1 RES1    0.0000
     49 C19        9.9394    9.4748   10.0412 C.3       1 RES1    0.0000
     50 H21        9.1094    9.3036   10.5539 H         1 RES1    0.0000
     51 H22       10.3520    8.6016    9.8217 H         1 RES1    0.0000
@<TRIPOS>BOND
     1    1    2 1
     2    2    3 2
     3    4    2 1
     4    5    4 1
     5    6    4 1
     6    7    6 2
     7    8    6 1
     8    9    1 1
     9   10    9 2
    10   11    1 1
    11   12   11 1
    12   13   11 1
    13   14   11 1
    14   15   14 1
    15   16   14 1
    16   17   14 1
    17   18   17 1
    18   19   17 1
    19   20   17 1
    20   21   20 1
    21   22   20 1
    22   23   20 1
    23   24    8 2
    24   25   24 1
    25   26   24 1
    26   27   26 ar
    27   28   27 1
    28   29   27 ar
    29   30   29 1
    30   31   30 2
    31   32   30 2
    32   33   29 ar
    33   34   33 1
    34   35   33 ar
    35   36   35 1
    36   37   26 ar
    37   38   37 1
    38   39   38 1
    39   40   39 1
    40   41   39 1
    41   42   39 1
    42   43   42 1
    43   44   42 1
    44   45   42 1
    45   46   45 1
    46   47   46 1
    47   48   46 1
    48   49   38 1
    49   50   49 1
    50   51   49 1
    51    8    9 1
    52   35   37 ar
    53   46   49 1
@<TRIPOS>SUBSTRUCTURE
     1 RES1 1

@<TRIPOS>CRYSIN
  12.0650   11.4140   13.7520  90.0000  92.5380  90.0000 231 1

