# MOL2 file generated by ConQuest
# Please check atom types

@<TRIPOS>MOLECULE
ROQPAQ
    51    54     1
SMALL
NO_CHARGES
****
Generated from CSD

@<TRIPOS>ATOM
      1 N1         2.9173    9.2115    6.8800 N.am      1 RES1    0.0000
      2 C1         4.3151    9.2105    6.8917 C.2       1 RES1    0.0000
      3 O1         4.9469    8.8617    7.8672 O.2       1 RES1    0.0000
      4 N2         4.9314    9.5986    5.7291 N.am      1 RES1    0.0000
      5 H1         5.7692    9.5698    5.7470 H         1 RES1    0.0000
      6 C2         4.3310    9.8407    4.5075 C.2       1 RES1    0.0000
      7 O2         4.9977    9.8615    3.4943 O.2       1 RES1    0.0000
      8 C3         2.8324   10.0906    4.5237 C.3       1 RES1    0.0000
      9 C4         2.1559    9.6144    5.8067 C.2       1 RES1    0.0000
     10 O3         0.9384    9.6094    5.8842 O.2       1 RES1    0.0000
     11 C5         2.2282    8.8067    8.1284 C.3       1 RES1    0.0000
     12 H2         2.7634    8.1130    8.5891 H         1 RES1    0.0000
     13 H3         1.3471    8.4149    7.9056 H         1 RES1    0.0000
     14 C6         2.0332    9.9916    9.0547 C.3       1 RES1    0.0000
     15 H4         1.5084   10.6889    8.5866 H         1 RES1    0.0000
     16 H5         2.9160   10.3772    9.2827 H         1 RES1    0.0000
     17 C7         1.3079    9.5952   10.3433 C.3       1 RES1    0.0000
     18 H6         1.0801   10.4160   10.8483 H         1 RES1    0.0000
     19 H7         0.4602    9.1422   10.1069 H         1 RES1    0.0000
     20 C8         2.1225    8.6776   11.2400 C.3       1 RES1    0.0000
     21 H8         1.6258    8.5043   12.0670 H         1 RES1    0.0000
     22 H9         2.9770    9.1060   11.4551 H         1 RES1    0.0000
     23 H10        2.2886    7.8314   10.7766 H         1 RES1    0.0000
     24 C9         2.1737    9.3650    3.3350 C.3       1 RES1    0.0000
     25 H11        2.4977    8.4304    3.3070 H         1 RES1    0.0000
     26 H12        1.1938    9.3423    3.4728 H         1 RES1    0.0000
     27 C10        2.4701   10.0279    2.0208 C.ar      1 RES1    0.0000
     28 C11        2.3819    9.2757    0.8628 C.ar      1 RES1    0.0000
     29 H13        2.2404    8.3378    0.9160 H         1 RES1    0.0000
     30 C12        2.5004    9.8907   -0.3777 C.ar      1 RES1    0.0000
     31 N3         2.3718    9.0762   -1.5728 N.pl3     1 RES1    0.0000
     32 O4         2.2561    9.6339   -2.6632 O.2       1 RES1    0.0000
     33 O5         2.3813    7.8506   -1.4473 O.2       1 RES1    0.0000
     34 C13        2.7275   11.2494   -0.4939 C.ar      1 RES1    0.0000
     35 H14        2.7829   11.6606   -1.3482 H         1 RES1    0.0000
     36 C14        2.8719   11.9972    0.6619 C.ar      1 RES1    0.0000
     37 H15        3.0396   12.9293    0.5930 H         1 RES1    0.0000
     38 C15        2.7756   11.4082    1.9392 C.ar      1 RES1    0.0000
     39 N4         3.0210   12.1326    3.1008 N.3       1 RES1    0.0000
     40 C16        3.0537   13.5975    3.0049 C.3       1 RES1    0.0000
     41 H16        2.1339   13.9362    2.8647 H         1 RES1    0.0000
     42 H17        3.5988   13.8611    2.2214 H         1 RES1    0.0000
     43 C17        3.6335   14.2272    4.2513 C.3       1 RES1    0.0000
     44 H18        4.5861   13.9729    4.3373 H         1 RES1    0.0000
     45 H19        3.5850   15.2126    4.1752 H         1 RES1    0.0000
     46 O6         2.9218   13.8046    5.4136 O.3       1 RES1    0.0000
     47 C18        3.0977   12.4037    5.5574 C.3       1 RES1    0.0000
     48 H20        2.6607   12.1062    6.3941 H         1 RES1    0.0000
     49 H21        4.0644   12.2041    5.6327 H         1 RES1    0.0000
     50 C19        2.5133   11.6166    4.3769 C.3       1 RES1    0.0000
     51 H22        1.5198   11.7297    4.3863 H         1 RES1    0.0000
@<TRIPOS>BOND
     1    1    2 1
     2    2    3 2
     3    4    2 1
     4    5    4 1
     5    6    4 1
     6    7    6 2
     7    8    6 1
     8    9    1 1
     9   10    9 2
    10   11    1 1
    11   12   11 1
    12   13   11 1
    13   14   11 1
    14   15   14 1
    15   16   14 1
    16   17   14 1
    17   18   17 1
    18   19   17 1
    19   20   17 1
    20   21   20 1
    21   22   20 1
    22   23   20 1
    23   24    8 1
    24   25   24 1
    25   26   24 1
    26   27   24 1
    27   28   27 ar
    28   29   28 1
    29   30   28 ar
    30   31   30 1
    31   32   31 2
    32   33   31 2
    33   34   30 ar
    34   35   34 1
    35   36   34 ar
    36   37   36 1
    37   38   27 ar
    38   39   38 1
    39   40   39 1
    40   41   40 1
    41   42   40 1
    42   43   40 1
    43   44   43 1
    44   45   43 1
    45   46   43 1
    46   47   46 1
    47   48   47 1
    48   49   47 1
    49   50    8 1
    50   51   50 1
    51    8    9 1
    52   36   38 ar
    53   39   50 1
    54   47   50 1
@<TRIPOS>SUBSTRUCTURE
     1 RES1 1

@<TRIPOS>CRYSIN
   6.7833   11.0656   13.3501  70.2880  87.0620  84.8850   2 1

