# MOL2 file generated by ConQuest
# Please check atom types

@<TRIPOS>MOLECULE
ROQWUP
    46    47     1
SMALL
USER_CHARGES
****
Generated from CSD

@<TRIPOS>ATOM
      1 O1        -2.5020    4.5706    1.7039 O.2       1 RES1    0.0000
      2 O2         1.6564    5.1132    3.6356 O.2       1 RES1   -1.0000
      3 O3         1.1706   -0.2182    2.5388 O.2       1 RES1    0.0000
      4 N1        -1.4513    5.0891    2.1975 N.3       1 RES1    0.0000
      5 C1        -0.3769    4.4251    2.7004 C.2       1 RES1    0.0000
      6 N2         0.5288    5.3421    3.0864 N.pl3     1 RES1    1.0000
      7 C2         0.1444    6.7341    2.6812 C.3       1 RES1    0.0000
      8 C3        -1.3769    6.5624    2.4474 C.3       1 RES1    0.0000
      9 C4        -0.2872    2.9805    2.7673 C.2       1 RES1    0.0000
     10 C5        -1.3518    2.1925    2.6791 C.2       1 RES1    0.0000
     11 H1        -2.2607    2.4983    2.6589 H         1 RES1    0.0000
     12 C6        -1.0313    0.7422    2.6111 C.3       1 RES1    0.0000
     13 N3         0.4352    0.8190    2.5622 N.3       1 RES1    0.0000
     14 C7         1.0095    2.1715    2.7928 C.3       1 RES1    0.0000
     15 C8         0.5127    7.7054    3.7918 C.3       1 RES1    0.0000
     16 H2         1.4566    7.8103    3.9353 H         1 RES1    0.0000
     17 H3         0.1212    8.5618    3.6037 H         1 RES1    0.0000
     18 H4         0.1080    7.3343    4.5793 H         1 RES1    0.0000
     19 C9         0.9434    7.0325    1.4240 C.3       1 RES1    0.0000
     20 H5         0.7757    6.4249    0.7003 H         1 RES1    0.0000
     21 H6         0.6643    7.9150    1.1722 H         1 RES1    0.0000
     22 H7         1.8819    7.0381    1.6270 H         1 RES1    0.0000
     23 C10       -2.2332    6.8275    3.6749 C.3       1 RES1    0.0000
     24 H8        -3.1486    6.7117    3.4092 H         1 RES1    0.0000
     25 H9        -2.0212    6.2017    4.3710 H         1 RES1    0.0000
     26 H10       -2.1051    7.7221    3.9990 H         1 RES1    0.0000
     27 C11       -1.9249    7.3078    1.2434 C.3       1 RES1    0.0000
     28 H11       -1.4318    7.2221    0.4240 H         1 RES1    0.0000
     29 H12       -2.8004    6.9301    1.1307 H         1 RES1    0.0000
     30 H13       -2.0045    8.2364    1.4740 H         1 RES1    0.0000
     31 C12       -1.5670    0.0763    1.3486 C.3       1 RES1    0.0000
     32 H14       -1.2432    0.6327    0.6366 H         1 RES1    0.0000
     33 H15       -1.1952   -0.8049    1.2604 H         1 RES1    0.0000
     34 H16       -2.5243    0.0246    1.3050 H         1 RES1    0.0000
     35 C13       -1.4943   -0.0131    3.8577 C.3       1 RES1    0.0000
     36 H17       -1.1966    0.4206    4.6611 H         1 RES1    0.0000
     37 H18       -2.4524   -0.0674    3.8598 H         1 RES1    0.0000
     38 H19       -1.1230   -0.8964    3.8141 H         1 RES1    0.0000
     39 C14        1.7444    2.1383    4.1265 C.3       1 RES1    0.0000
     40 H20        2.1454    2.9957    4.2881 H         1 RES1    0.0000
     41 H21        1.1021    1.9507    4.8162 H         1 RES1    0.0000
     42 H22        2.4245    1.4612    4.1308 H         1 RES1    0.0000
     43 C15        1.9356    2.5327    1.6462 C.3       1 RES1    0.0000
     44 H23        1.4658    2.5336    0.8087 H         1 RES1    0.0000
     45 H24        2.3542    3.3869    1.7790 H         1 RES1    0.0000
     46 H25        2.6070    1.8456    1.6355 H         1 RES1    0.0000
@<TRIPOS>BOND
     1    1    4 1
     2    2    6 1
     3    3   13 1
     4    4    5 1
     5    5    6 2
     6    6    7 1
     7    7    8 1
     8    8    4 1
     9    9    5 1
    10   10    9 2
    11   11   10 1
    12   12   10 1
    13   13   12 1
    14   14    9 1
    15   15    7 1
    16   16   15 1
    17   17   15 1
    18   18   15 1
    19   19    7 1
    20   20   19 1
    21   21   19 1
    22   22   19 1
    23   23    8 1
    24   24   23 1
    25   25   23 1
    26   26   23 1
    27   27    8 1
    28   28   27 1
    29   29   27 1
    30   30   27 1
    31   31   12 1
    32   32   31 1
    33   33   31 1
    34   34   31 1
    35   35   12 1
    36   36   35 1
    37   37   35 1
    38   38   35 1
    39   39   14 1
    40   40   39 1
    41   41   39 1
    42   42   39 1
    43   43   14 1
    44   44   43 1
    45   45   43 1
    46   46   43 1
    47   13   14 1
@<TRIPOS>SUBSTRUCTURE
     1 RES1 1

@<TRIPOS>CRYSIN
   7.1810   11.0320   11.9450 106.7100 105.9300 104.0200   2 1

