# MOL2 file generated by ConQuest
# Please check atom types

@<TRIPOS>MOLECULE
RORJUF
    46    49     1
SMALL
NO_CHARGES
****
Generated from CSD

@<TRIPOS>ATOM
      1 O1         0.1741    8.2352   13.8698 O.3       1 RES1    0.0000
      2 O2         7.0718    9.0905   13.8650 O.3       1 RES1    0.0000
      3 O3         7.6170    6.9940   15.6258 O.3       1 RES1    0.0000
      4 N1         1.3598    7.8556   14.5187 N.2       1 RES1    0.0000
      5 C1        -0.9155    8.0233   14.7778 C.3       1 RES1    0.0000
      6 H1        -0.9118    7.0912   15.0811 H         1 RES1    0.0000
      7 H2        -1.7625    8.2150   14.3229 H         1 RES1    0.0000
      8 H3        -0.8183    8.6189   15.5508 H         1 RES1    0.0000
      9 C2         2.3697    8.1912   13.8012 C.2       1 RES1    0.0000
     10 H4         2.2452    8.6421   12.9742 H         1 RES1    0.0000
     11 C3         3.7132    7.8695   14.2769 C.ar      1 RES1    0.0000
     12 C4         4.8535    8.6082   13.8634 C.ar      1 RES1    0.0000
     13 C5         5.0767    9.7735   13.0321 C.2       1 RES1    0.0000
     14 C6         6.4193   10.0251   13.0761 C.2       1 RES1    0.0000
     15 C7         7.2916   11.0654   12.5200 C.ar      1 RES1    0.0000
     16 C8         8.6386   11.1162   12.8928 C.ar      1 RES1    0.0000
     17 H5         8.9849   10.4726   13.4998 H         1 RES1    0.0000
     18 C9         9.4751   12.1014   12.3812 C.ar      1 RES1    0.0000
     19 H6        10.3895   12.1245   12.6385 H         1 RES1    0.0000
     20 C10        8.9853   13.0504   11.4985 C.ar      1 RES1    0.0000
     21 H7         9.5625   13.7187   11.1485 H         1 RES1    0.0000
     22 C11        3.9453    6.8219   15.1646 C.ar      1 RES1    0.0000
     23 H8         3.2034    6.3047   15.4551 H         1 RES1    0.0000
     24 C12        5.2117    6.4938   15.6489 C.ar      1 RES1    0.0000
     25 H9         5.3087    5.7777   16.2649 H         1 RES1    0.0000
     26 C13        6.3333    7.2049   15.2390 C.ar      1 RES1    0.0000
     27 C14        6.1043    8.2504   14.3433 C.ar      1 RES1    0.0000
     28 C15        4.0136   10.5276   12.3204 C.ar      1 RES1    0.0000
     29 C16        3.7152   10.2463   10.9851 C.ar      1 RES1    0.0000
     30 H10        4.2258    9.5973   10.5139 H         1 RES1    0.0000
     31 C17        2.6785   10.9074   10.3408 C.ar      1 RES1    0.0000
     32 H11        2.4814   10.7112    9.4318 H         1 RES1    0.0000
     33 C18        1.9301   11.8557   11.0243 C.ar      1 RES1    0.0000
     34 H12        1.2211   12.3087   10.5831 H         1 RES1    0.0000
     35 C19        2.2177   12.1419   12.3514 C.ar      1 RES1    0.0000
     36 H13        1.7061   12.7935   12.8182 H         1 RES1    0.0000
     37 C20        3.2505   11.4783   12.9988 C.ar      1 RES1    0.0000
     38 H14        3.4395   11.6730   13.9092 H         1 RES1    0.0000
     39 C21        7.6475   13.0191   11.1279 C.ar      1 RES1    0.0000
     40 H15        7.3071   13.6743   10.5301 H         1 RES1    0.0000
     41 C22        6.8043   12.0347   11.6285 C.ar      1 RES1    0.0000
     42 H16        5.8918   12.0169   11.3650 H         1 RES1    0.0000
     43 C23        7.8245    5.9904   16.6306 C.3       1 RES1    0.0000
     44 H17        7.2850    6.2026   17.4207 H         1 RES1    0.0000
     45 H18        8.7722    5.9674   16.8789 H         1 RES1    0.0000
     46 H19        7.5571    5.1154   16.2781 H         1 RES1    0.0000
@<TRIPOS>BOND
     1    1    4 1
     2    2   14 1
     3    3   26 1
     4    4    9 2
     5    5    1 1
     6    6    5 1
     7    7    5 1
     8    8    5 1
     9    9   10 1
    10   11    9 1
    11   12   11 ar
    12   13   12 1
    13   14   13 2
    14   15   14 1
    15   16   15 ar
    16   17   16 1
    17   18   16 ar
    18   19   18 1
    19   20   18 ar
    20   21   20 1
    21   22   11 ar
    22   23   22 1
    23   24   22 ar
    24   25   24 1
    25   26   24 ar
    26   27    2 1
    27   28   13 1
    28   29   28 ar
    29   30   29 1
    30   31   29 ar
    31   32   31 1
    32   33   31 ar
    33   34   33 1
    34   35   33 ar
    35   36   35 1
    36   37   28 ar
    37   38   37 1
    38   39   20 ar
    39   40   39 1
    40   41   15 ar
    41   42   41 1
    42   43    3 1
    43   44   43 1
    44   45   43 1
    45   46   43 1
    46   12   27 ar
    47   26   27 ar
    48   35   37 ar
    49   39   41 ar
@<TRIPOS>SUBSTRUCTURE
     1 RES1 1

@<TRIPOS>CRYSIN
  11.2184   11.0939   15.1186  90.0000 103.1300  90.0000  14 1

