# MOL2 file generated by ConQuest
# Please check atom types

@<TRIPOS>MOLECULE
RORKEQ
    80    88     1
SMALL
NO_CHARGES
****
Generated from CSD

@<TRIPOS>ATOM
      1 O1         3.9383    1.6416    4.4990 O.3       1 RES1    0.0000
      2 O2         0.5552    4.1396   -0.2210 O.3       1 RES1    0.0000
      3 N1         1.0962    3.7574    0.9931 N.2       1 RES1    0.0000
      4 C1         8.1682   -0.1988    2.7149 C.ar      1 RES1    0.0000
      5 H1         9.0267   -0.5954    2.6316 H         1 RES1    0.0000
      6 C2         7.9065    0.6832    3.7421 C.ar      1 RES1    0.0000
      7 H2         8.5899    0.8971    4.3681 H         1 RES1    0.0000
      8 C3         6.6528    1.2600    3.8669 C.ar      1 RES1    0.0000
      9 H3         6.4856    1.8718    4.5744 H         1 RES1    0.0000
     10 C4         5.6366    0.9523    2.9652 C.ar      1 RES1    0.0000
     11 C5         4.2908    1.5098    3.1606 C.2       1 RES1    0.0000
     12 C6         3.2799    1.8788    2.3367 C.2       1 RES1    0.0000
     13 C7         2.1748    2.2579    3.1998 C.ar      1 RES1    0.0000
     14 C8         0.8403    2.6934    3.0433 C.ar      1 RES1    0.0000
     15 C9         0.2652    3.1076    1.7438 C.2       1 RES1    0.0000
     16 C10        0.0203    2.7777    4.1872 C.ar      1 RES1    0.0000
     17 C11        5.9081    0.0631    1.9229 C.ar      1 RES1    0.0000
     18 H4         5.2289   -0.1553    1.2953 H         1 RES1    0.0000
     19 C12        7.1701   -0.5009    1.8061 C.ar      1 RES1    0.0000
     20 H5         7.3504   -1.1030    1.0934 H         1 RES1    0.0000
     21 C13        2.6392    2.0590    4.5033 C.ar      1 RES1    0.0000
     22 C14        3.3245    1.8095    0.8565 C.ar      1 RES1    0.0000
     23 C15        4.3741    2.4030    0.1494 C.ar      1 RES1    0.0000
     24 H6         5.0406    2.8971    0.6146 H         1 RES1    0.0000
     25 C16        4.4446    2.2736   -1.2280 C.ar      1 RES1    0.0000
     26 H7         5.1632    2.6709   -1.7046 H         1 RES1    0.0000
     27 C17        3.4769    1.5701   -1.9087 C.ar      1 RES1    0.0000
     28 H8         3.5360    1.4767   -2.8516 H         1 RES1    0.0000
     29 C18        2.4192    0.9984   -1.2246 C.ar      1 RES1    0.0000
     30 H9         1.7408    0.5313   -1.6989 H         1 RES1    0.0000
     31 C19        2.3491    1.1089    0.1586 C.ar      1 RES1    0.0000
     32 H10        1.6319    0.7035    0.6294 H         1 RES1    0.0000
     33 C20        0.5483    2.5345    5.4745 C.ar      1 RES1    0.0000
     34 H11       -0.0165    2.6068    6.2345 H         1 RES1    0.0000
     35 C21        1.8751    2.1927    5.6439 C.ar      1 RES1    0.0000
     36 H12        2.2461    2.0552    6.5082 H         1 RES1    0.0000
     37 C22        1.5667    4.8454   -0.9580 C.3       1 RES1    0.0000
     38 H13        1.7904    5.6783   -0.4914 H         1 RES1    0.0000
     39 H14        1.2328    5.0537   -1.8551 H         1 RES1    0.0000
     40 H15        2.3694    4.2872   -1.0296 H         1 RES1    0.0000
     41 O1A       -5.0745    1.6416    1.2020 O.3       1 RES1    0.0000
     42 O2A       -1.6913    4.1396    5.9219 O.3       1 RES1    0.0000
     43 N1A       -2.2324    3.7574    4.7078 N.2       1 RES1    0.0000
     44 C1A       -9.3044   -0.1988    2.9860 C.ar      1 RES1    0.0000
     45 H1A      -10.1629   -0.5954    3.0694 H         1 RES1    0.0000
     46 C2A       -9.0427    0.6832    1.9588 C.ar      1 RES1    0.0000
     47 H2A       -9.7261    0.8971    1.3329 H         1 RES1    0.0000
     48 C3A       -7.7890    1.2600    1.8340 C.ar      1 RES1    0.0000
     49 H3A       -7.6218    1.8718    1.1265 H         1 RES1    0.0000
     50 C4A       -6.7728    0.9523    2.7358 C.ar      1 RES1    0.0000
     51 C5A       -5.4270    1.5098    2.5403 C.2       1 RES1    0.0000
     52 C6A       -4.4160    1.8788    3.3642 C.2       1 RES1    0.0000
     53 C7A       -3.3109    2.2579    2.5011 C.ar      1 RES1    0.0000
     54 C8A       -1.9765    2.6934    2.6577 C.ar      1 RES1    0.0000
     55 C9A       -1.4014    3.1076    3.9571 C.2       1 RES1    0.0000
     56 C10A      -1.1565    2.7777    1.5137 C.ar      1 RES1    0.0000
     57 C11A      -7.0443    0.0631    3.7780 C.ar      1 RES1    0.0000
     58 H4A       -6.3651   -0.1553    4.4057 H         1 RES1    0.0000
     59 C12A      -8.3062   -0.5009    3.8949 C.ar      1 RES1    0.0000
     60 H5A       -8.4866   -1.1030    4.6075 H         1 RES1    0.0000
     61 C13A      -3.7753    2.0590    1.1977 C.ar      1 RES1    0.0000
     62 C14A      -4.4606    1.8095    4.8444 C.ar      1 RES1    0.0000
     63 C15A      -5.5103    2.4030    5.5516 C.ar      1 RES1    0.0000
     64 H6A       -6.1767    2.8971    5.0864 H         1 RES1    0.0000
     65 C16A      -5.5808    2.2736    6.9289 C.ar      1 RES1    0.0000
     66 H7A       -6.2994    2.6709    7.4055 H         1 RES1    0.0000
     67 C17A      -4.6131    1.5701    7.6096 C.ar      1 RES1    0.0000
     68 H8A       -4.6722    1.4767    8.5525 H         1 RES1    0.0000
     69 C18A      -3.5553    0.9984    6.9255 C.ar      1 RES1    0.0000
     70 H9A       -2.8770    0.5313    7.3998 H         1 RES1    0.0000
     71 C19A      -3.4852    1.1089    5.5423 C.ar      1 RES1    0.0000
     72 H10A      -2.7680    0.7035    5.0716 H         1 RES1    0.0000
     73 C20A      -1.6845    2.5345    0.2264 C.ar      1 RES1    0.0000
     74 H11A      -1.1196    2.6068   -0.5336 H         1 RES1    0.0000
     75 C21A      -3.0112    2.1927    0.0570 C.ar      1 RES1    0.0000
     76 H12A      -3.3822    2.0552   -0.8073 H         1 RES1    0.0000
     77 C22A      -2.7029    4.8454    6.6589 C.3       1 RES1    0.0000
     78 H13A      -2.9266    5.6783    6.1924 H         1 RES1    0.0000
     79 H14A      -2.3690    5.0537    7.5560 H         1 RES1    0.0000
     80 H15A      -3.5056    4.2872    6.7305 H         1 RES1    0.0000
@<TRIPOS>BOND
     1    1   11 1
     2    2    3 1
     3    3   15 2
     4    4    5 1
     5    6    4 ar
     6    7    6 1
     7    8    6 ar
     8    9    8 1
     9   10    8 ar
    10   11   10 1
    11   12   11 2
    12   13   12 1
    13   14   13 ar
    14   15   14 1
    15   16   14 ar
    16   17   10 ar
    17   18   17 1
    18   19    4 ar
    19   20   19 1
    20   21    1 1
    21   22   12 1
    22   23   22 ar
    23   24   23 1
    24   25   23 ar
    25   26   25 1
    26   27   25 ar
    27   28   27 1
    28   29   27 ar
    29   30   29 1
    30   31   22 ar
    31   32   31 1
    32   33   16 ar
    33   34   33 1
    34   35   21 ar
    35   36   35 1
    36   37    2 1
    37   38   37 1
    38   39   37 1
    39   40   37 1
    40   41   51 1
    41   42   43 1
    42   43   55 2
    43   44   45 1
    44   46   44 ar
    45   47   46 1
    46   48   46 ar
    47   49   48 1
    48   50   48 ar
    49   51   50 1
    50   52   51 2
    51   53   52 1
    52   54   53 ar
    53   55   16 1
    54   56   15 1
    55   57   50 ar
    56   58   57 1
    57   59   44 ar
    58   60   59 1
    59   61   41 1
    60   62   52 1
    61   63   62 ar
    62   64   63 1
    63   65   63 ar
    64   66   65 1
    65   67   65 ar
    66   68   67 1
    67   69   67 ar
    68   70   69 1
    69   71   62 ar
    70   72   71 1
    71   73   56 ar
    72   74   73 1
    73   75   61 ar
    74   76   75 1
    75   77   42 1
    76   78   77 1
    77   79   77 1
    78   80   77 1
    79   13   21 ar
    80   17   19 ar
    81   29   31 ar
    82   33   35 ar
    83   53   61 ar
    84   54   55 1
    85   54   56 ar
    86   57   59 ar
    87   69   71 ar
    88   73   75 ar
@<TRIPOS>SUBSTRUCTURE
     1 RES1 1

@<TRIPOS>CRYSIN
  25.9190   11.2554   11.6261  90.0000 101.2710  90.0000  15 1

