# MOL2 file generated by ConQuest
# Please check atom types

@<TRIPOS>MOLECULE
ROSGEN
    32    36     1
SMALL
NO_CHARGES
****
Generated from CSD

@<TRIPOS>ATOM
      1 O1         3.0893   10.3495    1.9499 O.2       1 RES1    0.0000
      2 O2         3.1232   10.1756    4.0964 O.2       1 RES1    0.0000
      3 O3        -0.7481    7.4367    5.8039 O.2       1 RES1    0.0000
      4 O4         1.3679    7.4501    5.7384 O.2       1 RES1    0.0000
      5 N1         2.8808    9.7400    2.9800 N.pl3     1 RES1    0.0000
      6 N2         0.2970    7.8599    5.3686 N.pl3     1 RES1    0.0000
      7 C1         2.2663    8.3824    2.8688 C.3       1 RES1    0.0000
      8 H1         2.6110    7.8050    3.5950 H         1 RES1    0.0000
      9 H2         2.5230    7.9747    2.0047 H         1 RES1    0.0000
     10 C2         0.7310    8.4590    2.9626 C.3       1 RES1    0.0000
     11 C3         0.0660    9.3075    1.8629 C.3       1 RES1    0.0000
     12 H3         0.2041   10.2977    1.8944 H         1 RES1    0.0000
     13 C4         0.3459    8.5914    0.5372 C.3       1 RES1    0.0000
     14 H4         0.9632    8.9774   -0.1476 H         1 RES1    0.0000
     15 C5         0.4266    7.0952    0.9606 C.3       1 RES1    0.0000
     16 H5         1.2163    6.5654    0.6546 H         1 RES1    0.0000
     17 C6         0.1247    7.1273    2.4725 C.3       1 RES1    0.0000
     18 H6         0.4058    6.3150    2.9830 H         1 RES1    0.0000
     19 C7         0.2543    8.9422    4.3296 C.3       1 RES1    0.0000
     20 H7         0.8251    9.6955    4.6231 H         1 RES1    0.0000
     21 H8        -0.6735    9.2785    4.2478 H         1 RES1    0.0000
     22 C8        -1.4045    8.7829    1.7539 C.3       1 RES1    0.0000
     23 H9        -2.1514    9.4120    1.9709 H         1 RES1    0.0000
     24 C9        -1.1613    8.4031    0.2544 C.3       1 RES1    0.0000
     25 H10       -1.6258    8.8729   -0.4963 H         1 RES1    0.0000
     26 C10       -0.9498    6.8241    0.2668 C.3       1 RES1    0.0000
     27 H11       -0.9596    6.3326   -0.6048 H         1 RES1    0.0000
     28 C11       -1.8593    6.3895    1.3270 C.3       1 RES1    0.0000
     29 H12       -1.7052    5.4469    1.5885 H         1 RES1    0.0000
     30 H13       -2.8103    6.5178    1.0815 H         1 RES1    0.0000
     31 C12       -1.3972    7.3891    2.4298 C.3       1 RES1    0.0000
     32 H14       -1.8751    7.3249    3.3050 H         1 RES1    0.0000
@<TRIPOS>BOND
     1    1    5 2
     2    2    5 2
     3    3    6 2
     4    4    6 2
     5    5    7 1
     6    6   19 1
     7    7    8 1
     8    9    7 1
     9   10    7 1
    10   11   10 1
    11   12   11 1
    12   13   11 1
    13   14   13 1
    14   15   13 1
    15   16   15 1
    16   17   10 1
    17   18   17 1
    18   19   10 1
    19   20   19 1
    20   21   19 1
    21   22   11 1
    22   23   22 1
    23   24   13 1
    24   25   24 1
    25   26   15 1
    26   27   26 1
    27   28   26 1
    28   29   28 1
    29   30   28 1
    30   31   17 1
    31   32   31 1
    32   15   17 1
    33   22   24 1
    34   22   31 1
    35   24   26 1
    36   28   31 1
@<TRIPOS>SUBSTRUCTURE
     1 RES1 1

@<TRIPOS>CRYSIN
  12.2239   10.3474   17.7880  90.0000  90.0000  90.0000  61 1

