# MOL2 file generated by ConQuest
# Please check atom types

@<TRIPOS>MOLECULE
ROTCEK
    53    58     1
SMALL
NO_CHARGES
****
Generated from CSD

@<TRIPOS>ATOM
      1 C1         1.3756    8.8477    5.0473 C.2       1 RES1    0.0000
      2 C2         1.1201    9.7372    6.0246 C.2       1 RES1    0.0000
      3 H1         0.3644   10.2742    5.9499 H         1 RES1    0.0000
      4 C3         1.9602    9.8944    7.1751 C.2       1 RES1    0.0000
      5 C4         3.0522    9.0733    7.3227 C.2       1 RES1    0.0000
      6 C5         3.2963    8.0693    6.3323 C.2       1 RES1    0.0000
      7 C6         4.0997    6.5043    5.1213 C.ar      1 RES1    0.0000
      8 C7         4.8476    5.4429    4.6015 C.ar      1 RES1    0.0000
      9 H2         5.5455    5.0697    5.0901 H         1 RES1    0.0000
     10 C8         4.5309    4.9615    3.3546 C.ar      1 RES1    0.0000
     11 H3         5.0008    4.2423    2.9984 H         1 RES1    0.0000
     12 C9         3.5026    5.5536    2.6262 C.ar      1 RES1    0.0000
     13 C10        2.7191    6.5848    3.1024 C.ar      1 RES1    0.0000
     14 H4         2.0380    6.9633    2.5950 H         1 RES1    0.0000
     15 C11        3.0126    7.0198    4.3828 C.ar      1 RES1    0.0000
     16 C12        0.5795    8.7257    3.7944 C.ar      1 RES1    0.0000
     17 C13       -0.3201    7.6861    3.5909 C.ar      1 RES1    0.0000
     18 H5        -0.4756    7.0641    4.2641 H         1 RES1    0.0000
     19 C14       -0.9800    7.5825    2.3891 C.ar      1 RES1    0.0000
     20 H6        -1.5895    6.8915    2.2591 H         1 RES1    0.0000
     21 C15       -0.7527    8.4734    1.3872 C.ar      1 RES1    0.0000
     22 H7        -1.1893    8.3774    0.5708 H         1 RES1    0.0000
     23 C16        0.1190    9.5180    1.5799 C.ar      1 RES1    0.0000
     24 H8         0.2606   10.1410    0.9031 H         1 RES1    0.0000
     25 C17        0.7855    9.6387    2.7819 C.ar      1 RES1    0.0000
     26 H9         1.3785   10.3423    2.9105 H         1 RES1    0.0000
     27 C18        1.5884   10.9622    8.1647 C.ar      1 RES1    0.0000
     28 C19        1.0764   12.1812    7.7177 C.ar      1 RES1    0.0000
     29 H10        0.9805   12.3309    6.8049 H         1 RES1    0.0000
     30 C20        0.7081   13.1713    8.6136 C.ar      1 RES1    0.0000
     31 H11        0.3498   13.9704    8.3005 H         1 RES1    0.0000
     32 C21        0.8715   12.9752    9.9647 C.ar      1 RES1    0.0000
     33 H12        0.6465   13.6499   10.5644 H         1 RES1    0.0000
     34 C22        1.3702   11.7744   10.4271 C.ar      1 RES1    0.0000
     35 H13        1.4772   11.6362   11.3399 H         1 RES1    0.0000
     36 C23        1.7100   10.7774    9.5307 C.ar      1 RES1    0.0000
     37 H14        2.0272    9.9649    9.8527 H         1 RES1    0.0000
     38 C24        4.0776    9.2121    8.4003 C.ar      1 RES1    0.0000
     39 C25        4.8638   10.3454    8.4739 C.ar      1 RES1    0.0000
     40 H15        4.7734   11.0087    7.8273 H         1 RES1    0.0000
     41 C26        5.7769   10.5085    9.4879 C.ar      1 RES1    0.0000
     42 H16        6.3148   11.2670    9.5083 H         1 RES1    0.0000
     43 C27        5.9000    9.5659   10.4621 C.ar      1 RES1    0.0000
     44 H17        6.4926    9.6961   11.1665 H         1 RES1    0.0000
     45 C28        5.1402    8.4147   10.3994 C.ar      1 RES1    0.0000
     46 H18        5.2280    7.7645   11.0581 H         1 RES1    0.0000
     47 C29        4.2525    8.2301    9.3635 C.ar      1 RES1    0.0000
     48 H19        3.7661    7.4391    9.3096 H         1 RES1    0.0000
     49 N1         2.4728    8.0184    5.2001 N.pl3     1 RES1    0.0000
     50 N2         4.2712    7.1682    6.3089 N.2       1 RES1    0.0000
     51 N3         3.2301    5.0701    1.2695 N.pl3     1 RES1    0.0000
     52 O1         3.8694    4.1234    0.8531 O.2       1 RES1    0.0000
     53 O2         2.3597    5.6140    0.6169 O.2       1 RES1    0.0000
@<TRIPOS>BOND
     1    1    2 2
     2    2    3 1
     3    4    2 1
     4    5    4 2
     5    6    5 1
     6    7    8 ar
     7    8    9 1
     8   10    8 ar
     9   11   10 1
    10   12   10 ar
    11   13   12 ar
    12   14   13 1
    13   15    7 ar
    14   16    1 1
    15   17   16 ar
    16   18   17 1
    17   19   17 ar
    18   20   19 1
    19   21   19 ar
    20   22   21 1
    21   23   21 ar
    22   24   23 1
    23   25   16 ar
    24   26   25 1
    25   27    4 1
    26   28   27 ar
    27   29   28 1
    28   30   28 ar
    29   31   30 1
    30   32   30 ar
    31   33   32 1
    32   34   32 ar
    33   35   34 1
    34   36   27 ar
    35   37   36 1
    36   38    5 1
    37   39   38 ar
    38   40   39 1
    39   41   39 ar
    40   42   41 1
    41   43   41 ar
    42   44   43 1
    43   45   43 ar
    44   46   45 1
    45   47   38 ar
    46   48   47 1
    47   49    1 1
    48   50    6 2
    49   51   12 1
    50   52   51 2
    51   53   51 2
    52    6   49 1
    53    7   50 1
    54   13   15 ar
    55   15   49 1
    56   23   25 ar
    57   34   36 ar
    58   45   47 ar
@<TRIPOS>SUBSTRUCTURE
     1 RES1 1

@<TRIPOS>CRYSIN
   7.9933   11.4810   12.6510  86.6590  72.3160  86.7510   2 1

