# MOL2 file generated by ConQuest
# Please check atom types

@<TRIPOS>MOLECULE
ROTXUV
    35    37     1
SMALL
NO_CHARGES
****
Generated from CSD

@<TRIPOS>ATOM
      1 N1         2.5889    0.3857    7.2166 N.ar      1 RES1    0.0000
      2 O1        -3.0623   -3.7602   10.3349 O.2       1 RES1    0.0000
      3 C1         7.1247    1.1622    6.3842 C.3       1 RES1    0.0000
      4 H1         7.9904    1.4582    6.7067 H         1 RES1    0.0000
      5 H2         7.1834    0.2113    6.2017 H         1 RES1    0.0000
      6 C2         3.8278    0.4932    7.7218 C.ar      1 RES1    0.0000
      7 N2        -2.1703   -3.3063    9.6590 N.pl3     1 RES1    0.0000
      8 O2        -2.1273   -3.4464    8.4517 O.2       1 RES1    0.0000
      9 O3         6.8171    1.8460    5.1853 O.3       1 RES1    0.0000
     10 N3         4.2056    0.0732    8.9370 N.ar      1 RES1    0.0000
     11 C3         6.0964    1.3958    7.4512 C.3       1 RES1    0.0000
     12 H3         6.3010    0.8538    8.2286 H         1 RES1    0.0000
     13 H4         6.1059    2.3281    7.7194 H         1 RES1    0.0000
     14 C4         3.2673   -0.5023    9.6697 C.ar      1 RES1    0.0000
     15 H5         3.5474   -0.8351   10.4988 H         1 RES1    0.0000
     16 N4         4.7783    1.0435    6.9368 N.3       1 RES1    0.0000
     17 C5         1.9648   -0.6867    9.2572 C.ar      1 RES1    0.0000
     18 C6         1.6959   -0.2051    7.9921 C.ar      1 RES1    0.0000
     19 H6         0.7693   -0.2315    7.6526 H         1 RES1    0.0000
     20 C7         0.9407   -1.3338   10.0940 C.ar      1 RES1    0.0000
     21 C8        -0.1357   -1.9858    9.5161 C.ar      1 RES1    0.0000
     22 H7        -0.2306   -2.0879    8.5444 H         1 RES1    0.0000
     23 C9        -1.0806   -2.5939   10.3098 C.ar      1 RES1    0.0000
     24 C10       -1.0132   -2.5733   11.6817 C.ar      1 RES1    0.0000
     25 H8        -1.6429   -2.9974   12.1616 H         1 RES1    0.0000
     26 C11        0.0519   -1.9270   12.2441 C.ar      1 RES1    0.0000
     27 H9         0.1131   -1.8357   13.2128 H         1 RES1    0.0000
     28 C12        1.0137   -1.3189   11.4847 C.ar      1 RES1    0.0000
     29 H10        1.7138   -0.8765   11.9084 H         1 RES1    0.0000
     30 C13        5.5638    1.3900    4.6814 C.3       1 RES1    0.0000
     31 H11        5.6203    0.4395    4.4948 H         1 RES1    0.0000
     32 H12        5.3676    1.8464    3.8476 H         1 RES1    0.0000
     33 C14        4.4508    1.6393    5.6556 C.3       1 RES1    0.0000
     34 H13        4.3167    2.5939    5.7636 H         1 RES1    0.0000
     35 H14        3.6272    1.2544    5.3170 H         1 RES1    0.0000
@<TRIPOS>BOND
     1    1    6 ar
     2    2    7 2
     3    3    4 1
     4    5    3 1
     5    6   10 ar
     6    7    8 2
     7    9    3 1
     8   10   14 ar
     9   11    3 1
    10   12   11 1
    11   13   11 1
    12   14   15 1
    13   16    6 1
    14   17   14 ar
    15   18    1 ar
    16   19   18 1
    17   20   17 1
    18   21   20 ar
    19   22   21 1
    20   23    7 1
    21   24   23 ar
    22   25   24 1
    23   26   24 ar
    24   27   26 1
    25   28   20 ar
    26   29   28 1
    27   30    9 1
    28   31   30 1
    29   32   30 1
    30   33   16 1
    31   34   33 1
    32   35   33 1
    33   11   16 1
    34   17   18 ar
    35   21   23 ar
    36   26   28 ar
    37   30   33 1
@<TRIPOS>SUBSTRUCTURE
     1 RES1 1

@<TRIPOS>CRYSIN
  22.1710    4.1344   14.2241  90.0000  90.0000  90.0000  29 1

