# MOL2 file generated by ConQuest
# Please check atom types

@<TRIPOS>MOLECULE
ROVMAS
    74    78     1
SMALL
NO_CHARGES
****
Generated from CSD

@<TRIPOS>ATOM
      1 C1        -1.8932    4.4520    8.4274 C.2       1 RES1    0.0000
      2 C2         0.2136    9.0413    7.5997 C.2       1 RES1    0.0000
      3 C3         1.1194   10.7552    4.4316 C.ar      1 RES1    0.0000
      4 C4        -2.2873    9.7883   10.2118 C.2       1 RES1    0.0000
      5 C5         2.4183   13.2837    7.9450 C.ar      1 RES1    0.0000
      6 H1         2.5569   12.5134    8.4477 H         1 RES1    0.0000
      7 C6         1.2780   14.0432    8.1273 C.ar      1 RES1    0.0000
      8 C7        -1.7414    7.9607   12.3246 C.3       1 RES1    0.0000
      9 H2        -1.9987    8.8660   12.5589 H         1 RES1    0.0000
     10 H3        -0.7966    7.9605   12.1049 H         1 RES1    0.0000
     11 C8         0.1176    9.5329    6.2070 C.ar      1 RES1    0.0000
     12 C9        -0.9534    9.7254    4.0931 C.ar      1 RES1    0.0000
     13 C10       -1.3137   11.6736   10.8345 C.2       1 RES1    0.0000
     14 C11       -3.2692   10.6783   10.4009 C.2       1 RES1    0.0000
     15 H4        -4.1812   10.5334   10.2910 H         1 RES1    0.0000
     16 C12       -1.0200    7.8310    9.2709 C.3       1 RES1    0.0000
     17 H5        -0.2417    8.0932    9.8053 H         1 RES1    0.0000
     18 C13        3.3474   13.6827    7.0075 C.ar      1 RES1    0.0000
     19 C14        1.1877   10.3014    5.7201 C.ar      1 RES1    0.0000
     20 H6         1.9211   10.4949    6.2580 H         1 RES1    0.0000
     21 C15       -0.1457   12.4840   11.1685 C.3       1 RES1    0.0000
     22 H7         0.3768   12.0189   11.8400 H         1 RES1    0.0000
     23 H8        -0.4452   13.3225   11.5558 H         1 RES1    0.0000
     24 C16       -0.0225    5.4377    9.1441 C.2       1 RES1    0.0000
     25 H9         0.8576    5.5846    9.4045 H         1 RES1    0.0000
     26 C17       -1.0117    6.3519    9.0614 C.2       1 RES1    0.0000
     27 C18        1.0490   15.1678    7.3302 C.ar      1 RES1    0.0000
     28 H10        0.2672   15.6642    7.4117 H         1 RES1    0.0000
     29 C19       -0.9449    9.2508    5.3805 C.ar      1 RES1    0.0000
     30 H11       -1.6557    8.7397    5.6941 H         1 RES1    0.0000
     31 C20        0.0927   10.4962    3.5847 C.ar      1 RES1    0.0000
     32 H12        0.0863   10.8159    2.7117 H         1 RES1    0.0000
     33 C21       -2.9342    3.5873    7.9428 C.2       1 RES1    0.0000
     34 H13       -2.7123    2.6885    7.8476 H         1 RES1    0.0000
     35 C22       -0.6097    4.1967    8.7478 C.2       1 RES1    0.0000
     36 H14       -0.1867    3.3691    8.7172 H         1 RES1    0.0000
     37 C23       -2.6324   11.9052   10.8074 C.2       1 RES1    0.0000
     38 H15       -3.0576   12.7060   11.0123 H         1 RES1    0.0000
     39 C24        0.2765   13.7429    9.1928 C.2       1 RES1    0.0000
     40 C25       -1.9957    7.0382   13.4931 C.3       1 RES1    0.0000
     41 H16       -1.6881    6.1454   13.2689 H         1 RES1    0.0000
     42 H17       -1.4864    7.3462   14.2596 H         1 RES1    0.0000
     43 C26       -4.1069    6.5371   12.7243 C.3       1 RES1    0.0000
     44 H18       -5.0476    6.5007   12.9598 H         1 RES1    0.0000
     45 H19       -3.8227    5.6381   12.4955 H         1 RES1    0.0000
     46 C27        2.0247   15.5158    6.4165 C.ar      1 RES1    0.0000
     47 C28       -2.3031    8.3051    9.9570 C.3       1 RES1    0.0000
     48 H20       -3.0490    8.1189    9.3501 H         1 RES1    0.0000
     49 C29       -3.9313    7.4320   11.5286 C.3       1 RES1    0.0000
     50 H21       -4.4354    7.0786   10.7790 H         1 RES1    0.0000
     51 H22       -4.2677    8.3180   11.7301 H         1 RES1    0.0000
     52 C30        3.1925   14.8150    6.2376 C.ar      1 RES1    0.0000
     53 H23        3.8423   15.0884    5.6307 H         1 RES1    0.0000
     54 N1         4.5657   12.8558    6.8331 N.pl3     1 RES1    0.0000
     55 N2         1.8180   16.7586    5.6250 N.pl3     1 RES1    0.0000
     56 N3         2.2424   11.5780    3.8870 N.pl3     1 RES1    0.0000
     57 N4        -2.5142    7.5102   11.1765 N.3       1 RES1    0.0000
     58 N5        -2.0831    9.4447    3.2111 N.pl3     1 RES1    0.0000
     59 O1        -1.0650   10.3497   10.4781 O.3       1 RES1    0.0000
     60 O2         0.7138   12.7749   10.0159 O.3       1 RES1    0.0000
     61 O3        -0.9649    8.4809    7.9801 O.3       1 RES1    0.0000
     62 O4        -2.1680    5.7971    8.6040 O.3       1 RES1    0.0000
     63 O5         4.6579   11.8168    7.4559 O.2       1 RES1    0.0000
     64 O6         5.4292   13.2818    6.0632 O.2       1 RES1    0.0000
     65 O7         0.7114   17.2593    5.6409 O.2       1 RES1    0.0000
     66 O8         2.7990   17.1752    5.0170 O.2       1 RES1    0.0000
     67 O9        -3.3694    6.9868   13.8350 O.3       1 RES1    0.0000
     68 O10       -2.9692    8.7268    3.6459 O.2       1 RES1    0.0000
     69 O11       -2.0982    9.9458    2.1003 O.2       1 RES1    0.0000
     70 O12        3.1908   11.7984    4.6162 O.2       1 RES1    0.0000
     71 O13        2.1623   11.9485    2.7367 O.2       1 RES1    0.0000
     72 O14       -0.7757   14.3092    9.3116 O.2       1 RES1    0.0000
     73 O15        1.1752    9.1226    8.2915 O.2       1 RES1    0.0000
     74 O16       -4.0618    3.8934    7.6461 O.2       1 RES1    0.0000
@<TRIPOS>BOND
     1    1   33 1
     2    2   11 1
     3    3   19 ar
     4    4   14 2
     5    5    6 1
     6    7    5 ar
     7    8    9 1
     8   10    8 1
     9   11   19 ar
    10   12   29 ar
    11   13   21 1
    12   14   15 1
    13   16   17 1
    14   18    5 ar
    15   19   20 1
    16   21   22 1
    17   23   21 1
    18   24   25 1
    19   26   16 1
    20   27    7 ar
    21   28   27 1
    22   29   11 ar
    23   30   29 1
    24   31    3 ar
    25   32   31 1
    26   33   34 1
    27   35    1 2
    28   36   35 1
    29   37   13 2
    30   38   37 1
    31   39    7 1
    32   40    8 1
    33   41   40 1
    34   42   40 1
    35   43   44 1
    36   45   43 1
    37   46   27 ar
    38   47    4 1
    39   48   47 1
    40   49   43 1
    41   50   49 1
    42   51   49 1
    43   52   18 ar
    44   53   52 1
    45   54   18 1
    46   55   46 1
    47   56    3 1
    48   57    8 1
    49   58   12 1
    50   59    4 1
    51   60   21 1
    52   61    2 1
    53   62    1 1
    54   63   54 2
    55   64   54 2
    56   65   55 2
    57   66   55 2
    58   67   40 1
    59   68   58 2
    60   69   58 2
    61   70   56 2
    62   71   56 2
    63   72   39 2
    64   73    2 2
    65   74   33 2
    66   12   31 ar
    67   13   59 1
    68   14   37 1
    69   16   47 1
    70   16   61 1
    71   24   26 2
    72   24   35 1
    73   26   62 1
    74   39   60 1
    75   43   67 1
    76   46   52 ar
    77   47   57 1
    78   49   57 1
@<TRIPOS>SUBSTRUCTURE
     1 RES1 1

@<TRIPOS>CRYSIN
   6.4620   21.4050   11.7220  90.0000 105.0010  90.0000   4 1

