# MOL2 file generated by ConQuest
# Please check atom types

@<TRIPOS>MOLECULE
ROVTON
    33    34     1
SMALL
NO_CHARGES
****
Generated from CSD

@<TRIPOS>ATOM
      1 N1         2.6014    3.3084    7.1834 N.pl3     1 RES1    0.0000
      2 H1         2.2081    2.7399    6.6717 H         1 RES1    0.0000
      3 N2         3.1386    3.9574    9.2983 N.pl3     1 RES1    0.0000
      4 H2         3.0806    3.8099   10.1438 H         1 RES1    0.0000
      5 N3         1.8533    1.6120   10.3341 N.2       1 RES1    0.0000
      6 O1         1.1253    1.0813    6.9828 O.2       1 RES1    0.0000
      7 O2         2.5818    2.2716   11.1613 O.2       1 RES1    0.0000
      8 C1         3.2884    4.4456    6.5555 C.3       1 RES1    0.0000
      9 H3         3.7344    4.1487    5.7453 H         1 RES1    0.0000
     10 H4         2.6392    5.1231    6.3117 H         1 RES1    0.0000
     11 C2         3.8808    5.1290    8.8573 C.3       1 RES1    0.0000
     12 H5         3.3330    5.9214    8.9769 H         1 RES1    0.0000
     13 H6         4.6771    5.2300    9.4020 H         1 RES1    0.0000
     14 C3         2.5511    3.1105    8.4790 C.2       1 RES1    0.0000
     15 C4         1.8293    1.9714    9.0476 C.2       1 RES1    0.0000
     16 C5         1.0002    1.1033    8.2043 C.2       1 RES1    0.0000
     17 C6        -0.0129    0.2032    8.8277 C.ar      1 RES1    0.0000
     18 C7        -0.8750    0.6337    9.8258 C.ar      1 RES1    0.0000
     19 H7        -0.7848    1.4885   10.1802 H         1 RES1    0.0000
     20 C8        -1.8733   -0.2106   10.2965 C.ar      1 RES1    0.0000
     21 H8        -2.4598    0.0983   10.9494 H         1 RES1    0.0000
     22 C9        -2.0146   -1.5091    9.8133 C.ar      1 RES1    0.0000
     23 C10       -1.1473   -1.9156    8.8185 C.ar      1 RES1    0.0000
     24 H9        -1.2211   -2.7784    8.4778 H         1 RES1    0.0000
     25 C11       -0.1768   -1.0767    8.3172 C.ar      1 RES1    0.0000
     26 H10        0.3747   -1.3709    7.6300 H         1 RES1    0.0000
     27 C12       -3.0831   -2.4357   10.3466 C.3       1 RES1    0.0000
     28 H11       -3.3429   -3.0547    9.6595 H         1 RES1    0.0000
     29 H12       -3.8476   -1.9209   10.6178 H         1 RES1    0.0000
     30 H13       -2.7400   -2.9199   11.1009 H         1 RES1    0.0000
     31 C13        4.2620    5.0128    7.4614 C.3       1 RES1    0.0000
     32 H14        4.4922    5.8982    7.1378 H         1 RES1    0.0000
     33 H15        5.0658    4.4721    7.4147 H         1 RES1    0.0000
@<TRIPOS>BOND
     1    1    2 1
     2    3    4 1
     3    5    7 2
     4    6   16 2
     5    8    1 1
     6    9    8 1
     7   10    8 1
     8   11    3 1
     9   12   11 1
    10   13   11 1
    11   14    1 1
    12   15    5 1
    13   16   15 1
    14   17   16 1
    15   18   17 ar
    16   19   18 1
    17   20   18 ar
    18   21   20 1
    19   22   20 ar
    20   23   22 ar
    21   24   23 1
    22   25   17 ar
    23   26   25 1
    24   27   22 1
    25   28   27 1
    26   29   27 1
    27   30   27 1
    28   31    8 1
    29   32   31 1
    30   33   31 1
    31    3   14 1
    32   11   31 1
    33   14   15 2
    34   23   25 ar
@<TRIPOS>SUBSTRUCTURE
     1 RES1 1

@<TRIPOS>CRYSIN
  16.3230    6.6421   12.1230  90.0000 109.9580  90.0000  14 1

