# MOL2 file generated by ConQuest
# Please check atom types

@<TRIPOS>MOLECULE
ROXKIA
    50    53     1
SMALL
NO_CHARGES
****
Generated from CSD

@<TRIPOS>ATOM
      1 O1         1.9387    0.2904    9.3070 O.2       1 RES1    0.0000
      2 N1         2.1833    2.2098    7.2166 N.3       1 RES1    0.0000
      3 N2        -2.2315    2.6523    5.2570 N.3       1 RES1    0.0000
      4 N3         0.8597    0.8482    9.5465 N.pl3     1 RES1    0.0000
      5 C1        -1.4452    2.3758    6.3462 C.ar      1 RES1    0.0000
      6 C2        -0.0333    2.4710    6.2977 C.ar      1 RES1    0.0000
      7 H1         0.3634    2.8247    5.5110 H         1 RES1    0.0000
      8 C3         0.8068    2.0779    7.3345 C.ar      1 RES1    0.0000
      9 C4         4.2266    2.3095    5.8568 C.ar      1 RES1    0.0000
     10 N4        -3.9145    3.2124    3.0006 N.3       1 RES1    0.0000
     11 C5        -2.5307    2.8001    2.8220 C.3       1 RES1    0.0000
     12 H2        -2.1666    3.2197    2.0030 H         1 RES1    0.0000
     13 H3        -2.4929    1.8176    2.7062 H         1 RES1    0.0000
     14 C6         0.1761    1.5592    8.4987 C.ar      1 RES1    0.0000
     15 C7        -4.7236    2.8739    1.8362 C.3       1 RES1    0.0000
     16 H4        -4.3458    3.3037    1.0405 H         1 RES1    0.0000
     17 H5        -5.6414    3.1887    1.9727 H         1 RES1    0.0000
     18 H6        -4.7276    1.9016    1.7118 H         1 RES1    0.0000
     19 C8         4.9751    2.0599    7.0055 C.ar      1 RES1    0.0000
     20 C9        -4.4536    2.5879    4.1981 C.3       1 RES1    0.0000
     21 H7        -4.4273    1.6034    4.0998 H         1 RES1    0.0000
     22 H8        -5.3973    2.8603    4.3178 H         1 RES1    0.0000
     23 C10        2.7337    2.5622    5.9085 C.3       1 RES1    0.0000
     24 H9         2.5556    3.5186    5.7241 H         1 RES1    0.0000
     25 H10        2.2855    2.0257    5.2071 H         1 RES1    0.0000
     26 C11       -1.2130    1.5792    8.6043 C.ar      1 RES1    0.0000
     27 H11       -1.6120    1.3083    9.4230 H         1 RES1    0.0000
     28 C12        4.3371    2.1308    8.3730 C.3       1 RES1    0.0000
     29 H12        4.9225    2.6461    8.9823 H         1 RES1    0.0000
     30 H13        4.2439    1.2160    8.7405 H         1 RES1    0.0000
     31 C13        2.9715    2.7898    8.3102 C.3       1 RES1    0.0000
     32 H14        2.4972    2.6567    9.1685 H         1 RES1    0.0000
     33 H15        3.0772    3.7630    8.1646 H         1 RES1    0.0000
     34 C14        6.3198    1.7003    6.8680 C.ar      1 RES1    0.0000
     35 H16        6.8342    1.5164    7.6460 H         1 RES1    0.0000
     36 C15       -1.6826    3.1979    4.0106 C.3       1 RES1    0.0000
     37 H17       -0.7603    2.8633    3.8834 H         1 RES1    0.0000
     38 H18       -1.6444    4.1853    4.0728 H         1 RES1    0.0000
     39 C16        6.1795    1.9114    4.4874 C.ar      1 RES1    0.0000
     40 H19        6.5901    1.8796    3.6321 H         1 RES1    0.0000
     41 C17        6.9144    1.6072    5.6296 C.ar      1 RES1    0.0000
     42 H20        7.8227    1.3371    5.5555 H         1 RES1    0.0000
     43 C18        4.8435    2.2610    4.6081 C.ar      1 RES1    0.0000
     44 H21        4.3413    2.4706    3.8293 H         1 RES1    0.0000
     45 C19       -3.6556    2.9950    5.4052 C.3       1 RES1    0.0000
     46 H22       -3.7439    3.9719    5.5412 H         1 RES1    0.0000
     47 H23       -4.0190    2.5417    6.2062 H         1 RES1    0.0000
     48 O2         0.3176    0.7692   10.6616 O.2       1 RES1    0.0000
     49 C20       -2.0155    1.9697    7.5863 C.ar      1 RES1    0.0000
     50 H24       -2.9590    1.9727    7.7001 H         1 RES1    0.0000
@<TRIPOS>BOND
     1    1    4 2
     2    2    8 1
     3    3    5 1
     4    4   14 1
     5    5    6 ar
     6    6    7 1
     7    8    6 ar
     8    9   19 ar
     9   10   11 1
    10   11   12 1
    11   13   11 1
    12   14    8 ar
    13   15   10 1
    14   16   15 1
    15   17   15 1
    16   18   15 1
    17   19   28 1
    18   20   10 1
    19   21   20 1
    20   22   20 1
    21   23    2 1
    22   24   23 1
    23   25   23 1
    24   26   14 ar
    25   27   26 1
    26   28   29 1
    27   30   28 1
    28   31    2 1
    29   32   31 1
    30   33   31 1
    31   34   19 ar
    32   35   34 1
    33   36    3 1
    34   37   36 1
    35   38   36 1
    36   39   40 1
    37   41   34 ar
    38   42   41 1
    39   43    9 ar
    40   44   43 1
    41   45    3 1
    42   46   45 1
    43   47   45 1
    44   48    4 2
    45   49    5 ar
    46   50   49 1
    47    9   23 1
    48   11   36 1
    49   20   45 1
    50   26   49 ar
    51   28   31 1
    52   39   41 ar
    53   39   43 ar
@<TRIPOS>SUBSTRUCTURE
     1 RES1 1

@<TRIPOS>CRYSIN
  14.6428    7.5669   16.1976  90.0000 100.8280  90.0000  14 1

