# MOL2 file generated by ConQuest
# Please check atom types

@<TRIPOS>MOLECULE
ROXWOS
    54    58     1
SMALL
NO_CHARGES
****
Generated from CSD

@<TRIPOS>ATOM
      1 C1        -3.0146    2.2194    6.9632 C.ar      1 RES1    0.0000
      2 C2        -3.6673    3.1675    6.1921 C.ar      1 RES1    0.0000
      3 H1        -3.2081    3.6545    5.5179 H         1 RES1    0.0000
      4 C3        -5.0204    3.3817    6.4410 C.ar      1 RES1    0.0000
      5 H2        -5.4855    4.0336    5.9319 H         1 RES1    0.0000
      6 C4        -5.6995    2.6738    7.4047 C.ar      1 RES1    0.0000
      7 H3        -6.6209    2.8438    7.5574 H         1 RES1    0.0000
      8 C5        -5.0348    1.7084    8.1558 C.ar      1 RES1    0.0000
      9 H4        -5.4999    1.2121    8.8187 H         1 RES1    0.0000
     10 C6        -3.6935    1.4797    7.9289 C.ar      1 RES1    0.0000
     11 C7        -2.7477    0.4632    8.5262 C.3       1 RES1    0.0000
     12 C8        -2.9281   -0.8742    7.7780 C.3       1 RES1    0.0000
     13 H5        -3.8491   -1.1898    7.8911 H         1 RES1    0.0000
     14 H6        -2.3075   -1.5389    8.1434 H         1 RES1    0.0000
     15 H7        -2.7424   -0.7427    6.8256 H         1 RES1    0.0000
     16 C9        -2.9273    0.2280   10.0189 C.3       1 RES1    0.0000
     17 H8        -2.9623    1.0905   10.4838 H         1 RES1    0.0000
     18 H9        -2.1733   -0.2968   10.3605 H         1 RES1    0.0000
     19 H10       -3.7621   -0.2602   10.1750 H         1 RES1    0.0000
     20 C10       -1.3844    1.1035    8.1440 C.3       1 RES1    0.0000
     21 C11       -0.2247    0.1591    8.0130 C.2       1 RES1    0.0000
     22 H11       -0.1660   -0.3491    7.2124 H         1 RES1    0.0000
     23 C12        0.7151   -0.0230    8.9137 C.2       1 RES1    0.0000
     24 H12        0.6815    0.5152    9.6965 H         1 RES1    0.0000
     25 C13        1.8152   -0.9929    8.8056 C.ar      1 RES1    0.0000
     26 C14        2.4286   -1.4647    9.9612 C.ar      1 RES1    0.0000
     27 H13        2.1780   -1.1035   10.8028 H         1 RES1    0.0000
     28 C15        3.3971   -2.4496    9.9058 C.ar      1 RES1    0.0000
     29 H14        3.7948   -2.7824   10.7021 H         1 RES1    0.0000
     30 C16        3.7720   -2.9382    8.6799 C.ar      1 RES1    0.0000
     31 C17        3.2315   -2.4620    7.5111 C.ar      1 RES1    0.0000
     32 H15        3.5276   -2.7928    6.6706 H         1 RES1    0.0000
     33 C18        2.2513   -1.4943    7.5801 C.ar      1 RES1    0.0000
     34 H16        1.8658   -1.1637    6.7769 H         1 RES1    0.0000
     35 C19       -0.3005    3.1392    8.8633 C.ar      1 RES1    0.0000
     36 C20        0.2362    3.8737    9.9165 C.ar      1 RES1    0.0000
     37 H17        0.0687    3.6100   10.8130 H         1 RES1    0.0000
     38 C21        1.0149    4.9881    9.6581 C.ar      1 RES1    0.0000
     39 H18        1.3891    5.4941   10.3696 H         1 RES1    0.0000
     40 C22        1.2354    5.3485    8.3493 C.ar      1 RES1    0.0000
     41 C23        0.7167    4.6370    7.2927 C.ar      1 RES1    0.0000
     42 H19        0.8917    4.9110    6.4002 H         1 RES1    0.0000
     43 C24       -0.0661    3.5142    7.5367 C.ar      1 RES1    0.0000
     44 C25       -0.6045    2.6546    6.4263 C.3       1 RES1    0.0000
     45 H20       -0.9501    3.2334    5.7012 H         1 RES1    0.0000
     46 H21        0.1271    2.1012    6.0541 H         1 RES1    0.0000
     47 N1        -1.6709    1.7881    6.8994 N.3       1 RES1    0.0000
     48 N2         4.7774   -4.0114    8.6036 N.pl3     1 RES1    0.0000
     49 N3         2.0421    6.5435    8.0642 N.pl3     1 RES1    0.0000
     50 O1        -1.0927    2.0798    9.2087 O.3       1 RES1    0.0000
     51 O2         5.2266   -4.4583    9.6536 O.2       1 RES1    0.0000
     52 O3         5.1173   -4.4137    7.5026 O.2       1 RES1    0.0000
     53 O4         2.5385    7.1357    9.0020 O.2       1 RES1    0.0000
     54 O5         2.1750    6.8909    6.8932 O.2       1 RES1    0.0000
@<TRIPOS>BOND
     1    1    2 ar
     2    2    3 1
     3    4    2 ar
     4    5    4 1
     5    6    4 ar
     6    7    6 1
     7    8    6 ar
     8    9    8 1
     9   10    1 ar
    10   11   10 1
    11   12   11 1
    12   13   12 1
    13   14   12 1
    14   15   12 1
    15   16   11 1
    16   17   16 1
    17   18   16 1
    18   19   16 1
    19   20   11 1
    20   21   20 1
    21   22   21 1
    22   23   21 2
    23   24   23 1
    24   25   23 1
    25   26   25 ar
    26   27   26 1
    27   28   26 ar
    28   29   28 1
    29   30   28 ar
    30   31   30 ar
    31   32   31 1
    32   33   25 ar
    33   34   33 1
    34   35   36 ar
    35   36   37 1
    36   38   36 ar
    37   39   38 1
    38   40   38 ar
    39   41   40 ar
    40   42   41 1
    41   43   35 ar
    42   44   43 1
    43   45   44 1
    44   46   44 1
    45   47    1 1
    46   48   30 1
    47   49   40 1
    48   50   20 1
    49   51   48 2
    50   52   48 2
    51   53   49 2
    52   54   49 2
    53    8   10 ar
    54   20   47 1
    55   31   33 ar
    56   35   50 1
    57   41   43 ar
    58   44   47 1
@<TRIPOS>SUBSTRUCTURE
     1 RES1 1

@<TRIPOS>CRYSIN
  14.3140   13.0750   12.0340  90.0000 109.9500  90.0000  14 1

