# MOL2 file generated by ConQuest
# Please check atom types

@<TRIPOS>MOLECULE
ROYZAI
    51    55     1
SMALL
NO_CHARGES
****
Generated from CSD

@<TRIPOS>ATOM
      1 C1         4.7117    1.9822    3.5115 C.2       1 RES1    0.0000
      2 C2         3.7574    2.9015    2.7017 C.3       1 RES1    0.0000
      3 C3         3.2117    1.9486    1.6781 C.ar      1 RES1    0.0000
      4 C4         3.7671    0.6926    1.8916 C.ar      1 RES1    0.0000
      5 C5         3.4167   -0.3894    1.1234 C.ar      1 RES1    0.0000
      6 H1         3.7907   -1.2278    1.2708 H         1 RES1    0.0000
      7 C6         2.4847   -0.1839    0.1226 C.ar      1 RES1    0.0000
      8 H2         2.2233   -0.9031   -0.4054 H         1 RES1    0.0000
      9 C7         1.9331    1.0558   -0.1142 C.ar      1 RES1    0.0000
     10 H3         1.3148    1.1654   -0.7994 H         1 RES1    0.0000
     11 C8         2.3019    2.1436    0.6722 C.ar      1 RES1    0.0000
     12 H4         1.9379    2.9854    0.5186 H         1 RES1    0.0000
     13 C9         5.3873   -0.4020    3.5065 C.3       1 RES1    0.0000
     14 H5         6.0426   -0.6930    2.8685 H         1 RES1    0.0000
     15 H6         4.7710   -1.1169    3.6804 H         1 RES1    0.0000
     16 H7         5.8260   -0.1507    4.3226 H         1 RES1    0.0000
     17 C10        4.4720    4.1542    2.1415 C.3       1 RES1    0.0000
     18 H8         3.8571    4.5590    1.4950 H         1 RES1    0.0000
     19 C11        4.5088    5.0921    3.3518 C.3       1 RES1    0.0000
     20 H9         5.3754    5.0130    3.8030 H         1 RES1    0.0000
     21 C12        3.3728    4.5909    4.3039 C.3       1 RES1    0.0000
     22 H10        3.7967    4.1623    5.0759 H         1 RES1    0.0000
     23 C13        5.7760    3.9377    1.4147 C.ar      1 RES1    0.0000
     24 C14        6.9842    3.7295    2.0715 C.ar      1 RES1    0.0000
     25 H11        7.0106    3.7443    3.0005 H         1 RES1    0.0000
     26 C15        8.1444    3.5011    1.3609 C.ar      1 RES1    0.0000
     27 H12        8.9435    3.3556    1.8135 H         1 RES1    0.0000
     28 C16        8.1246    3.4874   -0.0105 C.ar      1 RES1    0.0000
     29 H13        8.9075    3.3352   -0.4872 H         1 RES1    0.0000
     30 C17        6.9412    3.7000   -0.6763 C.ar      1 RES1    0.0000
     31 H14        6.9270    3.6977   -1.6060 H         1 RES1    0.0000
     32 C18        5.7754    3.9170    0.0274 C.ar      1 RES1    0.0000
     33 H15        4.9794    4.0516   -0.4337 H         1 RES1    0.0000
     34 C19        2.4042    5.6201    4.8233 C.ar      1 RES1    0.0000
     35 C20        2.7423    6.3393    5.9550 C.ar      1 RES1    0.0000
     36 H16        3.5556    6.1799    6.3760 H         1 RES1    0.0000
     37 C21        1.8831    7.2929    6.4671 C.ar      1 RES1    0.0000
     38 H17        2.1231    7.7742    7.2256 H         1 RES1    0.0000
     39 C22        0.6834    7.5285    5.8584 C.ar      1 RES1    0.0000
     40 H18        0.1085    8.1748    6.2000 H         1 RES1    0.0000
     41 C23        0.3255    6.8132    4.7479 C.ar      1 RES1    0.0000
     42 H19       -0.4971    6.9684    4.3435 H         1 RES1    0.0000
     43 C24        1.1816    5.8579    4.2233 C.ar      1 RES1    0.0000
     44 H20        0.9332    5.3775    3.4667 H         1 RES1    0.0000
     45 N1         4.6656    0.7421    2.9725 N.am      1 RES1    0.0000
     46 N2         2.7258    3.5425    3.5076 N.3       1 RES1    0.0000
     47 H21        2.3033    2.9793    4.0198 H         1 RES1    0.0000
     48 N3         4.2947    6.5169    2.9140 N.pl3     1 RES1    0.0000
     49 O1         5.3700    2.3129    4.4812 O.2       1 RES1    0.0000
     50 O2         3.3928    6.7817    2.1578 O.2       1 RES1    0.0000
     51 O3         5.0339    7.3495    3.3703 O.2       1 RES1    0.0000
@<TRIPOS>BOND
     1    1    2 1
     2    2    3 1
     3    3    4 ar
     4    4    5 ar
     5    5    6 1
     6    7    5 ar
     7    8    7 1
     8    9    7 ar
     9   10    9 1
    10   11    3 ar
    11   12   11 1
    12   13   14 1
    13   15   13 1
    14   16   13 1
    15   17    2 1
    16   18   17 1
    17   19   17 1
    18   20   19 1
    19   21   19 1
    20   22   21 1
    21   23   17 1
    22   24   23 ar
    23   25   24 1
    24   26   24 ar
    25   27   26 1
    26   28   26 ar
    27   29   28 1
    28   30   28 ar
    29   31   30 1
    30   32   23 ar
    31   33   32 1
    32   34   21 1
    33   35   34 ar
    34   36   35 1
    35   37   35 ar
    36   38   37 1
    37   39   37 ar
    38   40   39 1
    39   41   39 ar
    40   42   41 1
    41   43   34 ar
    42   44   43 1
    43   45    1 1
    44   46    2 1
    45   47   46 1
    46   48   19 1
    47   49    1 2
    48   50   48 2
    49   51   48 2
    50    4   45 1
    51    9   11 ar
    52   13   45 1
    53   21   46 1
    54   30   32 ar
    55   41   43 ar
@<TRIPOS>SUBSTRUCTURE
     1 RES1 1

@<TRIPOS>CRYSIN
   9.1813   10.8619   11.6038  99.1150 110.3620 104.3560   2 1

