# MOL2 file generated by ConQuest
# Please check atom types

@<TRIPOS>MOLECULE
ROZMOJ
   104   110     2
SMALL
USER_CHARGES
****
Generated from CSD

@<TRIPOS>ATOM
      1 O1         0.9782    2.4739    9.6817 O.3       1 RES1    0.0000
      2 C1         1.1724    4.7595   10.3458 C.3       1 RES1    0.0000
      3 H1         0.4072    4.5073   10.8681 H         1 RES1    0.0000
      4 N1         1.9446    6.3447    8.6281 N.pl3     1 RES1    1.0000
      5 O2         2.2295    7.6176    8.4177 O.2       1 RES1   -1.0000
      6 C2         1.4511    3.6834    9.3296 C.2       1 RES1    0.0000
      7 C3        -0.4929    6.0625    8.9386 C.ar      1 RES1    0.0000
      8 O3         2.0857    5.8572   12.3381 O.3       1 RES1    0.0000
      9 H2         1.6292    6.5946   12.0284 H         1 RES1    0.0000
     10 C4         0.8742    6.0715    9.6111 C.3       1 RES1    0.0000
     11 H3         0.8574    6.7724   10.2672 H         1 RES1    0.0000
     12 C5         2.5245    5.3707    7.9983 C.2       1 RES1    0.0000
     13 H4         3.2151    5.5599    7.3578 H         1 RES1    0.0000
     14 C6         2.3747    4.9154   11.3189 C.3       1 RES1    0.0000
     15 H5         3.1300    5.2199   10.8119 H         1 RES1    0.0000
     16 C7         2.7056    3.6065   11.9974 C.ar      1 RES1    0.0000
     17 C8        -0.6624    6.0572    7.5658 C.ar      1 RES1    0.0000
     18 H6         0.1039    6.1004    6.9898 H         1 RES1    0.0000
     19 C9         0.7338    0.1170    9.3599 C.ar      1 RES1    0.0000
     20 C10        2.1730    3.9942    8.2337 C.2       1 RES1    0.0000
     21 H7         2.4420    3.3006    7.6282 H         1 RES1    0.0000
     22 C11        0.5349   -0.1005   10.7162 C.ar      1 RES1    0.0000
     23 H8         0.8403    0.5500   11.3539 H         1 RES1    0.0000
     24 C12        2.0177    3.2289   13.1444 C.ar      1 RES1    0.0000
     25 H9         1.3278    3.7961   13.4965 H         1 RES1    0.0000
     26 C13       -1.6200    6.0453    9.7576 C.ar      1 RES1    0.0000
     27 H10       -1.5181    6.0767   10.7116 H         1 RES1    0.0000
     28 C14       -0.3165   -2.0004    8.8831 C.ar      1 RES1    0.0000
     29 H11       -0.5923   -2.6703    8.2545 H         1 RES1    0.0000
     30 C15        1.4082    1.3656    8.8669 C.3       1 RES1    0.0000
     31 H12        2.3616    1.2716    8.9276 H         1 RES1    0.0000
     32 H13        1.1614    1.5288    7.9534 H         1 RES1    0.0000
     33 C16        0.3093   -0.8386    8.4428 C.ar      1 RES1    0.0000
     34 H14        0.4469   -0.6907    7.5050 H         1 RES1    0.0000
     35 C17       -0.1032   -1.2685   11.1500 C.ar      1 RES1    0.0000
     36 H15       -0.2417   -1.4182   12.0873 H         1 RES1    0.0000
     37 C18       -0.5287   -2.2083   10.2262 C.ar      1 RES1    0.0000
     38 H16       -0.9849   -3.0011   10.5202 H         1 RES1    0.0000
     39 C19        3.6811    2.7505   11.4934 C.ar      1 RES1    0.0000
     40 H17        4.1590    2.9915   10.6968 H         1 RES1    0.0000
     41 C20       -2.8892    5.9777    9.2113 C.ar      1 RES1    0.0000
     42 H18       -3.6574    5.9620    9.7855 H         1 RES1    0.0000
     43 C21       -1.9393    5.9930    7.0198 C.ar      1 RES1    0.0000
     44 H19       -2.0478    5.9898    6.0664 H         1 RES1    0.0000
     45 C22        2.3041    2.0378   13.7895 C.ar      1 RES1    0.0000
     46 H20        1.8319    1.8000   14.5912 H         1 RES1    0.0000
     47 C23       -3.0443    5.9430    7.8329 C.ar      1 RES1    0.0000
     48 H21       -3.9217    5.8714    7.4502 H         1 RES1    0.0000
     49 C24        3.2703    1.1967   13.2877 C.ar      1 RES1    0.0000
     50 H22        3.4652    0.3679   13.7294 H         1 RES1    0.0000
     51 C25        3.9539    1.5457   12.1341 C.ar      1 RES1    0.0000
     52 H23        4.6268    0.9601   11.7782 H         1 RES1    0.0000
     53 O4         5.7775    0.8907    3.0672 O.3       2 RES2    0.0000
     54 O5         4.5540    5.9290    1.3735 O.2       2 RES2   -1.0000
     55 C26        5.5098    3.2080    3.5788 C.3       2 RES2    0.0000
     56 H24        6.2669    2.9963    4.1299 H         2 RES2    0.0000
     57 C27        4.2870    3.3873    4.5211 C.3       2 RES2    0.0000
     58 H25        3.5162    3.6127    3.9948 H         2 RES2    0.0000
     59 C28        4.0124    2.1195    5.2902 C.ar      2 RES2    0.0000
     60 C29        5.7970    4.4950    2.7915 C.3       2 RES2    0.0000
     61 H26        5.7444    5.2231    3.4139 H         2 RES2    0.0000
     62 N2         4.7791    4.6814    1.7270 N.pl3     2 RES2    1.0000
     63 C30        4.2326    3.6504    1.1488 C.2       2 RES2    0.0000
     64 H27        3.5653    3.7800    0.4711 H         2 RES2    0.0000
     65 C31        4.5951    2.2963    1.4941 C.2       2 RES2    0.0000
     66 H28        4.3367    1.5701    0.9221 H         2 RES2    0.0000
     67 O6         4.5711    4.4601    5.4104 O.3       2 RES2    0.0000
     68 H29        4.0154    5.0968    5.1791 H         2 RES2    0.0000
     69 C32        5.4103   -0.2753    2.3058 C.3       2 RES2    0.0000
     70 H30        4.4564   -0.3781    2.3152 H         2 RES2    0.0000
     71 H31        5.7128   -0.1663    1.4012 H         2 RES2    0.0000
     72 C33        5.2881    2.0684    2.6268 C.2       2 RES2    0.0000
     73 C34        6.3065   -1.5787    4.2747 C.ar      2 RES2    0.0000
     74 H32        6.0580   -0.8565    4.8566 H         2 RES2    0.0000
     75 C35        7.2031    4.5184    2.2063 C.ar      2 RES2    0.0000
     76 C36        6.9116   -2.7097    4.7972 C.ar      2 RES2    0.0000
     77 H33        7.0932   -2.7677    5.7385 H         2 RES2    0.0000
     78 C37        6.0641   -1.4792    2.9124 C.ar      2 RES2    0.0000
     79 C38        7.2511   -3.7698    3.9652 C.ar      2 RES2    0.0000
     80 H34        7.6721   -4.5508    4.3320 H         2 RES2    0.0000
     81 C39        6.4142   -2.5426    2.0805 C.ar      2 RES2    0.0000
     82 H35        6.2498   -2.4827    1.1362 H         2 RES2    0.0000
     83 C40        6.9932   -3.6841    2.6050 C.ar      2 RES2    0.0000
     84 H36        7.2131   -4.4215    2.0302 H         2 RES2    0.0000
     85 C41        4.7212    1.8404    6.4520 C.ar      2 RES2    0.0000
     86 H37        5.3584    2.4747    6.7877 H         2 RES2    0.0000
     87 C42        7.4555    4.4232    0.8430 C.ar      2 RES2    0.0000
     88 H38        6.7223    4.3652    0.2275 H         2 RES2    0.0000
     89 C43        3.0841    1.1811    4.8368 C.ar      2 RES2    0.0000
     90 H39        2.5759    1.3584    4.0416 H         2 RES2    0.0000
     91 C44        8.2838    4.6286    3.0754 C.ar      2 RES2    0.0000
     92 H40        8.1312    4.7225    4.0188 H         2 RES2    0.0000
     93 C45        8.7583    4.4205    0.3734 C.ar      2 RES2    0.0000
     94 H41        8.9294    4.3482   -0.5688 H         2 RES2    0.0000
     95 C46        4.5188    0.6611    7.1459 C.ar      2 RES2    0.0000
     96 H42        5.0171    0.4859    7.9467 H         2 RES2    0.0000
     97 C47        2.8855   -0.0091    5.5298 C.ar      2 RES2    0.0000
     98 H43        2.2501   -0.6539    5.2086 H         2 RES2    0.0000
     99 C48        3.6023   -0.2657    6.6900 C.ar      2 RES2    0.0000
    100 H44        3.4684   -1.0838    7.1745 H         2 RES2    0.0000
    101 C49        9.5824    4.6179    2.5976 C.ar      2 RES2    0.0000
    102 H45       10.3148    4.6712    3.2159 H         2 RES2    0.0000
    103 C50        9.8235    4.5163    1.2366 C.ar      2 RES2    0.0000
    104 H46       10.7182    4.5140    0.8926 H         2 RES2    0.0000
@<TRIPOS>BOND
     1    1    6 1
     2    2    3 1
     3    4    5 1
     4    6    2 1
     5    7   10 1
     6    8    9 1
     7   10    2 1
     8   11   10 1
     9   12    4 2
    10   13   12 1
    11   14    2 1
    12   15   14 1
    13   16   14 1
    14   17    7 ar
    15   18   17 1
    16   19   22 ar
    17   20    6 2
    18   21   20 1
    19   22   23 1
    20   24   16 ar
    21   25   24 1
    22   26    7 ar
    23   27   26 1
    24   28   29 1
    25   30    1 1
    26   31   30 1
    27   32   30 1
    28   33   19 ar
    29   34   33 1
    30   35   22 ar
    31   36   35 1
    32   37   28 ar
    33   38   37 1
    34   39   16 ar
    35   40   39 1
    36   41   26 ar
    37   42   41 1
    38   43   17 ar
    39   44   43 1
    40   45   24 ar
    41   46   45 1
    42   47   41 ar
    43   48   47 1
    44   49   45 ar
    45   50   49 1
    46   51   39 ar
    47   52   51 1
    48   53   69 1
    49   54   62 1
    50   55   56 1
    51   57   55 1
    52   58   57 1
    53   59   57 1
    54   60   55 1
    55   61   60 1
    56   62   60 1
    57   63   62 2
    58   64   63 1
    59   65   63 1
    60   66   65 1
    61   67   57 1
    62   68   67 1
    63   69   70 1
    64   71   69 1
    65   72   53 1
    66   73   74 1
    67   75   60 1
    68   76   73 ar
    69   77   76 1
    70   78   69 1
    71   79   76 ar
    72   80   79 1
    73   81   78 ar
    74   82   81 1
    75   83   79 ar
    76   84   83 1
    77   85   59 ar
    78   86   85 1
    79   87   75 ar
    80   88   87 1
    81   89   59 ar
    82   90   89 1
    83   91   75 ar
    84   92   91 1
    85   93   87 ar
    86   94   93 1
    87   95   85 ar
    88   96   95 1
    89   97   89 ar
    90   98   97 1
    91   99   95 ar
    92  100   99 1
    93  101   91 ar
    94  102  101 1
    95  103   93 ar
    96  104  103 1
    97    4   10 1
    98    8   14 1
    99   12   20 1
   100   19   30 1
   101   28   33 ar
   102   35   37 ar
   103   43   47 ar
   104   49   51 ar
   105   55   72 1
   106   65   72 2
   107   73   78 ar
   108   81   83 ar
   109   97   99 ar
   110  101  103 ar
@<TRIPOS>SUBSTRUCTURE
     1 RES1 1
     2 RES2 53

@<TRIPOS>CRYSIN
  12.6060   12.7430   13.5770  80.5110  88.3720  68.2780   2 1

