# MOL2 file generated by ConQuest
# Please check atom types

@<TRIPOS>MOLECULE
ROZPUT
    16    16     1
SMALL
NO_CHARGES
****
Generated from CSD

@<TRIPOS>ATOM
      1 N1         3.4567    2.6119    3.2756 N.am      1 RES1    0.0000
      2 H1         4.0130    3.0994    2.7975 H         1 RES1    0.0000
      3 N2         2.1218    2.8936    3.4085 N.2       1 RES1    0.0000
      4 C1         1.6990    1.9767    4.2274 C.2       1 RES1    0.0000
      5 N3         2.6907    1.1111    4.6058 N.am      1 RES1    0.0000
      6 H2         2.6102    0.4325    5.1602 H         1 RES1    0.0000
      7 C2         3.8293    1.5012    3.9598 C.2       1 RES1    0.0000
      8 C3         0.2789    1.9196    4.6287 C.3       1 RES1    0.0000
      9 H3        -0.2490    2.5789    4.0925 H         1 RES1    0.0000
     10 N4         0.0695    2.1877    6.1194 N.pl3     1 RES1    0.0000
     11 O1        -1.0840    2.1668    6.5029 O.2       1 RES1    0.0000
     12 O2         1.0551    2.3857    6.7937 O.2       1 RES1    0.0000
     13 N5        -0.2923    0.5310    4.4320 N.pl3     1 RES1    0.0000
     14 O3        -1.1509    0.3906    3.5913 O.2       1 RES1    0.0000
     15 O4         0.1846   -0.3404    5.1492 O.2       1 RES1    0.0000
     16 O5         4.9421    0.9509    3.9981 O.2       1 RES1    0.0000
@<TRIPOS>BOND
     1    1    2 1
     2    3    1 1
     3    4    3 2
     4    5    4 1
     5    6    5 1
     6    7    1 1
     7    8    4 1
     8    9    8 1
     9   10    8 1
    10   11   10 2
    11   12   10 2
    12   13    8 1
    13   14   13 2
    14   15   13 2
    15   16    7 2
    16    5    7 1
@<TRIPOS>SUBSTRUCTURE
     1 RES1 1

@<TRIPOS>CRYSIN
  11.9706    5.2363   11.1114  90.0000 110.2170  90.0000  14 1

