# MOL2 file generated by ConQuest
# Please check atom types

@<TRIPOS>MOLECULE
RTMPRO
    60    60     2
SMALL
NO_CHARGES
****
Generated from CSD

@<TRIPOS>ATOM
      1 C1         1.3880    2.8021    4.5556 C.3       1 RES1    0.0000
      2 C2        -1.2343    2.5051   10.6331 C.3       2 RES2    0.0000
      3 C3         0.4408    1.9826    5.3927 C.3       1 RES1    0.0000
      4 C4         0.6113    3.9057    3.8284 C.3       1 RES1    0.0000
      5 C5         4.4633    4.1669    4.3757 C.3       1 RES1    0.0000
      6 C6         4.5092    2.7100    6.3948 C.3       1 RES1    0.0000
      7 C7         2.2679    2.0206    3.5835 C.3       1 RES1    0.0000
      8 C8        -2.0746    1.3810   11.2453 C.3       2 RES2    0.0000
      9 C9        -0.2221    3.0515   11.6227 C.3       2 RES2    0.0000
     10 C10       -0.5660    2.1008    9.3236 C.3       2 RES2    0.0000
     11 C11       -4.5642    2.9561    9.8834 C.3       2 RES2    0.0000
     12 C12       -4.0220    4.5073   11.7776 C.3       2 RES2    0.0000
     13 C13        3.5048    1.7366    4.3182 C.3       1 RES1    0.0000
     14 C14       -3.2513    2.0910   11.9350 C.3       2 RES2    0.0000
     15 C15        3.7905    3.0417    5.1204 C.3       1 RES1    0.0000
     16 C16       -3.5912    3.2899   11.0054 C.3       2 RES2    0.0000
     17 C17        4.7254    1.2824    3.5160 C.2       1 RES1    0.0000
     18 C18       -4.4411    1.1501   12.1524 C.2       2 RES2    0.0000
     19 H1         0.0366    2.7100    6.0225 H         1 RES1    0.0000
     20 H2         0.0816    3.9783   11.2453 H         2 RES2    0.0000
     21 H3         5.4587    2.3523    6.2474 H         1 RES1    0.0000
     22 H4        -4.1770    5.2357   11.2203 H         2 RES2    0.0000
     23 H5         4.5882    3.5772    7.0471 H         1 RES1    0.0000
     24 H6        -4.7548    4.3252   12.2699 H         2 RES2    0.0000
     25 H7         3.9665    1.9078    6.9471 H         1 RES1    0.0000
     26 H8        -3.1582    4.8672   12.2699 H         2 RES2    0.0000
     27 H9         1.7738    1.0732    3.2736 H         1 RES1    0.0000
     28 H10       -1.4707    0.8238   11.9700 H         2 RES2    0.0000
     29 H11        2.5103    2.6558    2.6989 H         1 RES1    0.0000
     30 H12       -2.4523    0.7263   10.4207 H         2 RES2    0.0000
     31 H13        3.2323    0.9431    5.0229 H         1 RES1    0.0000
     32 H14       -2.9021    2.0921   12.9696 H         2 RES2    0.0000
     33 H15        6.2752    0.0000    3.7484 H         1 RES1    0.0000
     34 H16       -6.0633    0.7480   13.3444 H         2 RES2    0.0000
     35 H17        5.0008    0.0000    4.9979 H         1 RES1    0.0000
     36 H18       -5.0186    2.2222   13.8192 H         2 RES2    0.0000
     37 H19        1.0345    1.2791    6.0225 H         1 RES1    0.0000
     38 H20       -0.4365    3.2520   12.6947 H         2 RES2    0.0000
     39 H21       -0.3537    1.5176    4.7980 H         1 RES1    0.0000
     40 H22        0.5362    2.1680   11.6701 H         2 RES2    0.0000
     41 H23       -0.0605    4.2384    4.2482 H         1 RES1    0.0000
     42 H24       -1.1913    1.8103    8.5464 H         2 RES2    0.0000
     43 H25        1.2795    4.7913    3.5985 H         1 RES1    0.0000
     44 H26       -0.0619    2.8943    8.9463 H         2 RES2    0.0000
     45 H27        0.2618    3.5989    2.8238 H         1 RES1    0.0000
     46 H28        0.0952    1.4417    9.5710 H         2 RES2    0.0000
     47 H29        4.4739    5.0623    4.9979 H         1 RES1    0.0000
     48 H30       -4.2572    2.1572    9.3461 H         2 RES2    0.0000
     49 H31        5.4855    3.9349    4.0733 H         1 RES1    0.0000
     50 H32       -4.6563    3.9674    9.3461 H         2 RES2    0.0000
     51 H33        3.8755    4.4227    3.4486 H         1 RES1    0.0000
     52 H34       -5.4976    2.8834   10.3957 H         2 RES2    0.0000
     53 N1         2.3910    3.4341    5.3977 N.3       1 RES1    0.0000
     54 N2        -2.2539    3.5197   10.3807 N.3       2 RES2    0.0000
     55 N3         5.3030    0.2038    4.0058 N.am      1 RES1    0.0000
     56 N4        -5.1957    1.4092   13.2045 N.am      2 RES2    0.0000
     57 O1         2.1111    4.3241    6.2449 O.2       1 RES1    0.0000
     58 O2        -2.0247    4.5658    9.6860 O.2       2 RES2    0.0000
     59 O3         5.1405    1.8244    2.5264 O.2       1 RES1    0.0000
     60 O4        -4.6567    0.2081   11.3977 O.2       2 RES2    0.0000
@<TRIPOS>BOND
     1    1    3 1
     2    2    8 1
     3    3   19 1
     4    4    1 1
     5    5   15 1
     6    6   15 1
     7    7    1 1
     8    8   14 1
     9    9    2 1
    10   10    2 1
    11   11   16 1
    12   12   16 1
    13   13    7 1
    14   14   16 1
    15   15   13 1
    16   16   54 1
    17   17   13 1
    18   18   14 1
    19   20    9 1
    20   21    6 1
    21   22   12 1
    22   23    6 1
    23   24   12 1
    24   25    6 1
    25   26   12 1
    26   27    7 1
    27   28    8 1
    28   29    7 1
    29   30    8 1
    30   31   13 1
    31   32   14 1
    32   33   55 1
    33   34   56 1
    34   35   55 1
    35   36   56 1
    36   37    3 1
    37   38    9 1
    38   39    3 1
    39   40    9 1
    40   41    4 1
    41   42   10 1
    42   43    4 1
    43   44   10 1
    44   45    4 1
    45   46   10 1
    46   47    5 1
    47   48   11 1
    48   49    5 1
    49   50   11 1
    50   51    5 1
    51   52   11 1
    52   53    1 1
    53   54    2 1
    54   55   17 1
    55   56   18 1
    56   57   53 1
    57   58   54 1
    58   59   17 2
    59   60   18 2
    60   15   53 1
@<TRIPOS>SUBSTRUCTURE
     1 RES1 1
     2 RES2 2

@<TRIPOS>CRYSIN
   7.9830   10.8400   25.3490  90.0000  99.6600  90.0000  14 1

