# MOL2 file generated by ConQuest
# Please check atom types

@<TRIPOS>MOLECULE
RUBHON
   102   111     1
SMALL
NO_CHARGES
****
Generated from CSD

@<TRIPOS>ATOM
      1 O1        -7.5123    6.8742    2.7937 O.2       1 RES1    0.0000
      2 O2        -7.0486    4.7863    2.6493 O.2       1 RES1    0.0000
      3 O3        -0.6613    7.6704    8.6273 O.2       1 RES1    0.0000
      4 N1        -0.4030    5.9480    6.2709 N.3       1 RES1    0.0000
      5 N2        -0.9154    4.9837    7.1295 N.2       1 RES1    0.0000
      6 N3        -6.8618    5.9040    3.1031 N.pl3     1 RES1    0.0000
      7 C1        -2.1218    5.3207    7.4484 C.2       1 RES1    0.0000
      8 C2        -2.5870    6.6387    6.8705 C.3       1 RES1    0.0000
      9 C3        -1.2402    7.2112    6.3491 C.3       1 RES1    0.0000
     10 C4        -3.6996    6.4394    5.8466 C.ar      1 RES1    0.0000
     11 C5        -4.7195    7.3764    5.7540 C.ar      1 RES1    0.0000
     12 C6        -5.7440    7.2161    4.8337 C.ar      1 RES1    0.0000
     13 C7        -5.7562    6.0887    4.0626 C.ar      1 RES1    0.0000
     14 C8        -4.7870    5.1292    4.1490 C.ar      1 RES1    0.0000
     15 C9        -3.7538    5.3119    5.0504 C.ar      1 RES1    0.0000
     16 C10       -0.5887    8.0730    7.4767 C.2       1 RES1    0.0000
     17 C11        0.1373    9.3382    7.1736 C.ar      1 RES1    0.0000
     18 C12        1.4077    9.5287    7.7028 C.ar      1 RES1    0.0000
     19 C13        2.0735   10.7109    7.4924 C.ar      1 RES1    0.0000
     20 C14        1.4607   11.7211    6.7904 C.ar      1 RES1    0.0000
     21 C15        0.1735   11.5462    6.2848 C.ar      1 RES1    0.0000
     22 C16       -0.4852   10.3396    6.4528 C.ar      1 RES1    0.0000
     23 C17       -1.9069   10.1334    5.9424 C.3       1 RES1    0.0000
     24 C18       -1.9934    9.1477    4.7866 C.3       1 RES1    0.0000
     25 C19       -1.1925    7.8688    4.9813 C.3       1 RES1    0.0000
     26 C20        1.0386    6.0525    6.3005 C.ar      1 RES1    0.0000
     27 C21        1.7147    6.2762    5.1054 C.ar      1 RES1    0.0000
     28 C22        3.0818    6.4355    5.1164 C.ar      1 RES1    0.0000
     29 C23        3.7773    6.3769    6.2957 C.ar      1 RES1    0.0000
     30 C24        3.1154    6.1512    7.4673 C.ar      1 RES1    0.0000
     31 C25        1.7447    5.9636    7.4924 C.ar      1 RES1    0.0000
     32 H1        -2.9185    7.2083    7.5976 H         1 RES1    0.0000
     33 H2        -4.7162    8.1179    6.3146 H         1 RES1    0.0000
     34 H3        -6.4071    7.8619    4.7442 H         1 RES1    0.0000
     35 H4        -4.8221    4.3701    3.6135 H         1 RES1    0.0000
     36 H5        -3.0873    4.6681    5.1211 H         1 RES1    0.0000
     37 H6         1.8082    8.8536    8.2022 H         1 RES1    0.0000
     38 H7         2.9353   10.8281    7.8222 H         1 RES1    0.0000
     39 H8         1.9074   12.5251    6.6538 H         1 RES1    0.0000
     40 H9        -0.2448   12.2428    5.8325 H         1 RES1    0.0000
     41 H10       -2.4599    9.8110    6.6726 H         1 RES1    0.0000
     42 H11       -2.2661   10.9873    5.6550 H         1 RES1    0.0000
     43 H12       -1.6815    9.5893    3.9810 H         1 RES1    0.0000
     44 H13       -2.9239    8.9122    4.6500 H         1 RES1    0.0000
     45 H14       -1.5013    7.2210    4.3280 H         1 RES1    0.0000
     46 H15       -0.2641    8.0632    4.7756 H         1 RES1    0.0000
     47 H16        1.2453    6.3183    4.3029 H         1 RES1    0.0000
     48 H17        3.5359    6.5850    4.3202 H         1 RES1    0.0000
     49 H18        4.7011    6.4892    6.2973 H         1 RES1    0.0000
     50 H19        3.5930    6.1238    8.2650 H         1 RES1    0.0000
     51 H20        1.3054    5.7819    8.2917 H         1 RES1    0.0000
     52 O1B        2.4624    2.8958   12.9103 O.2       1 RES1    0.0000
     53 O2B        1.9987    4.9837   13.0548 O.2       1 RES1    0.0000
     54 O3B       -4.3885    2.0996    7.0767 O.2       1 RES1    0.0000
     55 N1B       -4.6469    3.8220    9.4331 N.3       1 RES1    0.0000
     56 N2B       -4.1345    4.7863    8.5746 N.2       1 RES1    0.0000
     57 N3B        1.8119    3.8660   12.6009 N.pl3     1 RES1    0.0000
     58 C1B       -2.9280    4.4493    8.2556 C.2       1 RES1    0.0000
     59 C2B       -2.4629    3.1313    8.8335 C.3       1 RES1    0.0000
     60 C3B       -3.8097    2.5588    9.3549 C.3       1 RES1    0.0000
     61 C4B       -1.3503    3.3306    9.8574 C.ar      1 RES1    0.0000
     62 C5B       -0.3304    2.3937    9.9501 C.ar      1 RES1    0.0000
     63 C6B        0.6941    2.5539   10.8703 C.ar      1 RES1    0.0000
     64 C7B        0.7063    3.6813   11.6414 C.ar      1 RES1    0.0000
     65 C8B       -0.2629    4.6408   11.5550 C.ar      1 RES1    0.0000
     66 C9B       -1.2960    4.4581   10.6536 C.ar      1 RES1    0.0000
     67 C10B      -4.4612    1.6970    8.2273 C.2       1 RES1    0.0000
     68 C11B      -5.1872    0.4318    8.5304 C.ar      1 RES1    0.0000
     69 C12B      -6.4575    0.2413    8.0012 C.ar      1 RES1    0.0000
     70 C13B      -7.1233   -0.9409    8.2116 C.ar      1 RES1    0.0000
     71 C14B      -6.5106   -1.9511    8.9136 C.ar      1 RES1    0.0000
     72 C15B      -5.2234   -1.7762    9.4193 C.ar      1 RES1    0.0000
     73 C16B      -4.5646   -0.5696    9.2512 C.ar      1 RES1    0.0000
     74 C17B      -3.1430   -0.3634    9.7616 C.3       1 RES1    0.0000
     75 C18B      -3.0565    0.6223   10.9174 C.3       1 RES1    0.0000
     76 C19B      -3.8574    1.9012   10.7227 C.3       1 RES1    0.0000
     77 C20B      -6.0885    3.7175    9.4036 C.ar      1 RES1    0.0000
     78 C21B      -6.7646    3.4938   10.5987 C.ar      1 RES1    0.0000
     79 C22B      -8.1317    3.3345   10.5877 C.ar      1 RES1    0.0000
     80 C23B      -8.8272    3.3931    9.4083 C.ar      1 RES1    0.0000
     81 C24B      -8.1653    3.6188    8.2368 C.ar      1 RES1    0.0000
     82 C25B      -6.7946    3.8064    8.2116 C.ar      1 RES1    0.0000
     83 H1B       -2.1314    2.5617    8.1064 H         1 RES1    0.0000
     84 H2B       -0.3336    1.6521    9.3894 H         1 RES1    0.0000
     85 H3B        1.3572    1.9081   10.9598 H         1 RES1    0.0000
     86 H4B       -0.2278    5.3999   12.0905 H         1 RES1    0.0000
     87 H5B       -1.9626    5.1019   10.5830 H         1 RES1    0.0000
     88 H6B       -6.8581    0.9164    7.5018 H         1 RES1    0.0000
     89 H7B       -7.9851   -1.0581    7.8819 H         1 RES1    0.0000
     90 H8B       -6.9573   -2.7551    9.0502 H         1 RES1    0.0000
     91 H9B       -4.8050   -2.4728    9.8716 H         1 RES1    0.0000
     92 H10B      -2.5899   -0.0410    9.0314 H         1 RES1    0.0000
     93 H11B      -2.7838   -1.2173   10.0490 H         1 RES1    0.0000
     94 H12B      -3.3683    0.1807   11.7231 H         1 RES1    0.0000
     95 H13B      -2.1259    0.8578   11.0541 H         1 RES1    0.0000
     96 H14B      -3.5485    2.5490   11.3760 H         1 RES1    0.0000
     97 H15B      -4.7858    1.7068   10.9284 H         1 RES1    0.0000
     98 H16B      -6.2951    3.4517   11.4011 H         1 RES1    0.0000
     99 H17B      -8.5857    3.1850   11.3839 H         1 RES1    0.0000
    100 H18B      -9.7510    3.2808    9.4067 H         1 RES1    0.0000
    101 H19B      -8.6429    3.6462    7.4390 H         1 RES1    0.0000
    102 H20B      -6.3553    3.9881    7.4123 H         1 RES1    0.0000
@<TRIPOS>BOND
     1    1    6 2
     2    2    6 2
     3    3   16 2
     4    4    5 1
     5    5    7 2
     6    6   13 1
     7    7    8 1
     8    8    9 1
     9    9    4 1
    10   10    8 1
    11   11   10 ar
    12   12   11 ar
    13   13   12 ar
    14   14   13 ar
    15   15   10 ar
    16   16    9 1
    17   17   16 1
    18   18   17 ar
    19   19   18 ar
    20   20   19 ar
    21   21   20 ar
    22   22   17 ar
    23   23   22 1
    24   24   23 1
    25   25    9 1
    26   26    4 1
    27   27   26 ar
    28   28   27 ar
    29   29   28 ar
    30   30   29 ar
    31   31   26 ar
    32   32    8 1
    33   33   11 1
    34   34   12 1
    35   35   14 1
    36   36   15 1
    37   37   18 1
    38   38   19 1
    39   39   20 1
    40   40   21 1
    41   41   23 1
    42   42   23 1
    43   43   24 1
    44   44   24 1
    45   45   25 1
    46   46   25 1
    47   47   27 1
    48   48   28 1
    49   49   29 1
    50   50   30 1
    51   51   31 1
    52   52   57 2
    53   53   57 2
    54   54   67 2
    55   55   56 1
    56   56   58 2
    57   57   64 1
    58   58    7 1
    59   59   58 1
    60   60   55 1
    61   61   59 1
    62   62   61 ar
    63   63   62 ar
    64   64   63 ar
    65   65   64 ar
    66   66   61 ar
    67   67   60 1
    68   68   67 1
    69   69   68 ar
    70   70   69 ar
    71   71   70 ar
    72   72   71 ar
    73   73   68 ar
    74   74   73 1
    75   75   74 1
    76   76   60 1
    77   77   55 1
    78   78   77 ar
    79   79   78 ar
    80   80   79 ar
    81   81   80 ar
    82   82   77 ar
    83   83   59 1
    84   84   62 1
    85   85   63 1
    86   86   65 1
    87   87   66 1
    88   88   69 1
    89   89   70 1
    90   90   71 1
    91   91   72 1
    92   92   74 1
    93   93   74 1
    94   94   75 1
    95   95   75 1
    96   96   76 1
    97   97   76 1
    98   98   78 1
    99   99   79 1
   100  100   80 1
   101  101   81 1
   102  102   82 1
   103   14   15 ar
   104   21   22 ar
   105   24   25 1
   106   30   31 ar
   107   59   60 1
   108   65   66 ar
   109   72   73 ar
   110   75   76 1
   111   81   82 ar
@<TRIPOS>SUBSTRUCTURE
     1 RES1 1

@<TRIPOS>CRYSIN
  13.2040    9.7700   16.4960  90.0000 107.8260  90.0000  14 1

