# MOL2 file generated by ConQuest
# Please check atom types

@<TRIPOS>MOLECULE
RUBXOD
    28    29     1
SMALL
NO_CHARGES
****
Generated from CSD

@<TRIPOS>ATOM
      1 O1         0.6004    1.6195   10.5754 O.2       1 RES1    0.0000
      2 O2         0.0378    5.9202    6.5034 O.2       1 RES1    0.0000
      3 O3        -2.9380   -0.3126    7.1823 O.2       1 RES1    0.0000
      4 O4        -3.0502    0.6812    5.2684 O.2       1 RES1    0.0000
      5 N1         2.3439    2.1529    9.2455 N.am      1 RES1    0.0000
      6 N2        -0.7192    5.0721    6.0504 N.pl3     1 RES1    0.0000
      7 N3        -2.6208    0.5802    6.4081 N.pl3     1 RES1    0.0000
      8 O5        -1.4190    5.2461    5.0711 O.2       1 RES1    0.0000
      9 C1        -0.7695    3.7519    6.7052 C.ar      1 RES1    0.0000
     10 C2         0.1116    3.5037    7.7427 C.ar      1 RES1    0.0000
     11 H1         0.6987    4.1632    8.0362 H         1 RES1    0.0000
     12 C3        -0.8103    1.2803    7.9254 C.ar      1 RES1    0.0000
     13 H2        -0.8479    0.4487    8.3402 H         1 RES1    0.0000
     14 C4         0.1012    2.2474    8.3386 C.ar      1 RES1    0.0000
     15 C5         1.0401    1.9622    9.4848 C.2       1 RES1    0.0000
     16 C6        -1.6598    2.8157    6.2359 C.ar      1 RES1    0.0000
     17 H3        -2.2300    2.9962    5.5241 H         1 RES1    0.0000
     18 C7        -1.6609    1.5940    6.8779 C.ar      1 RES1    0.0000
     19 C8         2.9839    2.3148    7.9264 C.3       1 RES1    0.0000
     20 H4         2.7415    3.1591    7.5158 H         1 RES1    0.0000
     21 H5         2.7506    1.5884    7.3280 H         1 RES1    0.0000
     22 C9         3.3331    1.9611   10.3113 C.3       1 RES1    0.0000
     23 H6         3.2484    1.0845   10.7196 H         1 RES1    0.0000
     24 H7         3.2514    2.6419   10.9972 H         1 RES1    0.0000
     25 C10        4.4305    2.2787    8.2888 C.2       1 RES1    0.0000
     26 H8         5.1206    2.3789    7.6729 H         1 RES1    0.0000
     27 C11        4.6182    2.0915    9.5640 C.2       1 RES1    0.0000
     28 H9         5.4571    2.0451    9.9626 H         1 RES1    0.0000
@<TRIPOS>BOND
     1    1   15 2
     2    2    6 2
     3    3    7 2
     4    4    7 2
     5    5   15 1
     6    6    8 2
     7    7   18 1
     8    9    6 1
     9   10    9 ar
    10   11   10 1
    11   12   13 1
    12   14   10 ar
    13   15   14 1
    14   16    9 ar
    15   17   16 1
    16   18   12 ar
    17   19    5 1
    18   20   19 1
    19   21   19 1
    20   22    5 1
    21   23   22 1
    22   24   22 1
    23   25   19 1
    24   26   25 1
    25   27   22 1
    26   28   27 1
    27   12   14 ar
    28   16   18 ar
    29   25   27 2
@<TRIPOS>SUBSTRUCTURE
     1 RES1 1

@<TRIPOS>CRYSIN
  15.2219    7.3672   20.4067  90.0000  90.0000  90.0000  61 1

