# MOL2 file generated by ConQuest
# Please check atom types

@<TRIPOS>MOLECULE
RUBYAQ
    34    34     1
SMALL
NO_CHARGES
****
Generated from CSD

@<TRIPOS>ATOM
      1 O1         3.7972    4.4392   20.0441 O.2       1 RES1    0.0000
      2 N1         5.0840    3.3783   18.5200 N.am      1 RES1    0.0000
      3 O2         2.9314   -0.4236   22.3564 O.2       1 RES1    0.0000
      4 O3        -0.9619    0.5084   17.6623 O.2       1 RES1    0.0000
      5 O4         1.0872   -1.2615   21.6154 O.2       1 RES1    0.0000
      6 N2         2.0208   -0.4780   21.5477 N.pl3     1 RES1    0.0000
      7 N3        -0.0071    1.2261   17.4469 N.pl3     1 RES1    0.0000
      8 C1         2.0371    0.4744   20.4239 C.ar      1 RES1    0.0000
      9 C2         4.0155    3.4718   19.3192 C.2       1 RES1    0.0000
     10 C3         3.0238    2.3365   19.3164 C.ar      1 RES1    0.0000
     11 C4         1.0610    1.2899   18.4603 C.ar      1 RES1    0.0000
     12 C5         3.0253    1.4307   20.3691 C.ar      1 RES1    0.0000
     13 H1         3.6825    1.4696   21.0254 H         1 RES1    0.0000
     14 C6         1.0292    0.3828   19.4902 C.ar      1 RES1    0.0000
     15 H2         0.3606   -0.2608   19.5542 H         1 RES1    0.0000
     16 C7         2.0367    2.2595   18.3440 C.ar      1 RES1    0.0000
     17 H3         2.0323    2.8511   17.6274 H         1 RES1    0.0000
     18 C8         5.3955    2.2172   17.6841 C.3       1 RES1    0.0000
     19 H4         4.8415    1.4696   17.9589 H         1 RES1    0.0000
     20 H5         6.3231    1.9668   17.8199 H         1 RES1    0.0000
     21 O5         0.1188    1.9044   16.4519 O.2       1 RES1    0.0000
     22 C9         6.0889    4.4441   18.5427 C.3       1 RES1    0.0000
     23 H6         5.6841    5.2610   18.8741 H         1 RES1    0.0000
     24 H7         6.4037    4.6091   17.6402 H         1 RES1    0.0000
     25 C10        5.1689    2.4863   16.2299 C.2       1 RES1    0.0000
     26 H8         4.3150    2.7456   15.9680 H         1 RES1    0.0000
     27 C11        7.2459    4.0758   19.4120 C.2       1 RES1    0.0000
     28 H9         7.0550    3.7408   20.2577 H         1 RES1    0.0000
     29 C12        6.0757    2.3850   15.3089 C.2       1 RES1    0.0000
     30 H10        6.9406    2.1277   15.5338 H         1 RES1    0.0000
     31 H11        5.8612    2.5688   14.4218 H         1 RES1    0.0000
     32 C13        8.4907    4.1847   19.0848 C.2       1 RES1    0.0000
     33 H12        8.7238    4.5148   18.2476 H         1 RES1    0.0000
     34 H13        9.1530    3.9323   19.6868 H         1 RES1    0.0000
@<TRIPOS>BOND
     1    1    9 2
     2    2    9 1
     3    3    6 2
     4    4    7 2
     5    5    6 2
     6    6    8 1
     7    7   11 1
     8    8   12 ar
     9    9   10 1
    10   10   12 ar
    11   11   14 ar
    12   12   13 1
    13   14    8 ar
    14   15   14 1
    15   16   10 ar
    16   17   16 1
    17   18    2 1
    18   19   18 1
    19   20   18 1
    20   21    7 2
    21   22    2 1
    22   23   22 1
    23   24   22 1
    24   25   18 1
    25   26   25 1
    26   27   22 1
    27   28   27 1
    28   29   25 2
    29   30   29 1
    30   31   29 1
    31   32   27 2
    32   33   32 1
    33   34   32 1
    34   11   16 ar
@<TRIPOS>SUBSTRUCTURE
     1 RES1 1

@<TRIPOS>CRYSIN
   9.3929    6.9352   21.3856  90.0000  90.5260  90.0000  14 1

