# MOL2 file generated by ConQuest
# Please check atom types

@<TRIPOS>MOLECULE
RUCNOU
    48    51     1
SMALL
NO_CHARGES
****
Generated from CSD

@<TRIPOS>ATOM
      1 O1         0.3582    7.5426    3.2199 O.3       1 RES1    0.0000
      2 O2         5.6262   -2.8451    0.6669 O.2       1 RES1    0.0000
      3 O3         4.1944   -2.9045    2.2293 O.2       1 RES1    0.0000
      4 N1         5.0603   -2.3438    1.6026 N.pl3     1 RES1    0.0000
      5 C1         0.9026    8.7332    2.6834 C.3       1 RES1    0.0000
      6 H1         0.2730    9.4499    2.7923 H         1 RES1    0.0000
      7 H2         1.0872    8.6081    1.7498 H         1 RES1    0.0000
      8 H3         1.7160    8.9494    3.1451 H         1 RES1    0.0000
      9 C2         2.3909    6.3430    2.6191 C.ar      1 RES1    0.0000
     10 H4         2.8239    7.1297    2.3770 H         1 RES1    0.0000
     11 C3         1.0888    6.3964    3.0750 C.ar      1 RES1    0.0000
     12 C4         0.4497    5.2188    3.4340 C.ar      1 RES1    0.0000
     13 H5        -0.4274    5.2406    3.7445 H         1 RES1    0.0000
     14 C5         1.1127    4.0222    3.3310 C.ar      1 RES1    0.0000
     15 H6         0.6670    3.2411    3.5656 H         1 RES1    0.0000
     16 C6         2.4378    3.9346    2.8851 C.ar      1 RES1    0.0000
     17 C7         3.0666    5.1289    2.5164 C.ar      1 RES1    0.0000
     18 C8         4.4873    5.1498    1.9800 C.3       1 RES1    0.0000
     19 H7         4.4594    5.3172    1.0252 H         1 RES1    0.0000
     20 H8         4.9680    5.8833    2.3944 H         1 RES1    0.0000
     21 C9         5.2474    3.8643    2.2285 C.3       1 RES1    0.0000
     22 H9         5.5323    3.8327    3.1555 H         1 RES1    0.0000
     23 H10        6.0401    3.8461    1.6698 H         1 RES1    0.0000
     24 C10        4.3878    2.6457    1.9239 C.3       1 RES1    0.0000
     25 H11        4.0543    2.7139    1.0043 H         1 RES1    0.0000
     26 C11        3.1892    2.6166    2.8870 C.3       1 RES1    0.0000
     27 H12        3.5688    2.5244    3.7862 H         1 RES1    0.0000
     28 C12        2.3193    1.3739    2.6669 C.3       1 RES1    0.0000
     29 H13        1.6165    1.3557    3.3345 H         1 RES1    0.0000
     30 H14        1.8990    1.4310    1.7949 H         1 RES1    0.0000
     31 C13        3.1223    0.0753    2.7511 C.3       1 RES1    0.0000
     32 H15        2.5445   -0.6730    2.5369 H         1 RES1    0.0000
     33 H16        3.4447   -0.0437    3.6576 H         1 RES1    0.0000
     34 C14        4.3138    0.0872    1.7876 C.3       1 RES1    0.0000
     35 C15        5.1542    1.3410    2.0728 C.3       1 RES1    0.0000
     36 H17        5.4129    1.2853    3.0165 H         1 RES1    0.0000
     37 C16        6.4420    1.1261    1.2658 C.3       1 RES1    0.0000
     38 H18        7.1806    1.6278    1.6455 H         1 RES1    0.0000
     39 H19        6.3226    1.3885    0.3406 H         1 RES1    0.0000
     40 C17        6.6856   -0.4021    1.3861 C.3       1 RES1    0.0000
     41 H20        6.8153   -0.7993    0.5109 H         1 RES1    0.0000
     42 H21        7.4663   -0.5843    1.9322 H         1 RES1    0.0000
     43 C18        5.4217   -0.9537    2.0492 C.3       1 RES1    0.0000
     44 H22        5.5801   -0.9828    3.0165 H         1 RES1    0.0000
     45 C19        3.8291   -0.0158    0.3334 C.3       1 RES1    0.0000
     46 H23        3.2457    0.7204    0.1373 H         1 RES1    0.0000
     47 H24        3.3547   -0.8419    0.2120 H         1 RES1    0.0000
     48 H25        4.5852    0.0085   -0.2589 H         1 RES1    0.0000
@<TRIPOS>BOND
     1    1    5 1
     2    2    4 2
     3    3    4 2
     4    4   43 1
     5    5    6 1
     6    7    5 1
     7    8    5 1
     8    9   10 1
     9   11    1 1
    10   12   11 ar
    11   13   12 1
    12   14   12 ar
    13   15   14 1
    14   16   14 ar
    15   17    9 ar
    16   18   17 1
    17   19   18 1
    18   20   18 1
    19   21   18 1
    20   22   21 1
    21   23   21 1
    22   24   21 1
    23   25   24 1
    24   26   16 1
    25   27   26 1
    26   28   26 1
    27   29   28 1
    28   30   28 1
    29   31   28 1
    30   32   31 1
    31   33   31 1
    32   34   31 1
    33   35   24 1
    34   36   35 1
    35   37   35 1
    36   38   37 1
    37   39   37 1
    38   40   37 1
    39   41   40 1
    40   42   40 1
    41   43   34 1
    42   44   43 1
    43   45   34 1
    44   46   45 1
    45   47   45 1
    46   48   45 1
    47    9   11 ar
    48   16   17 ar
    49   24   26 1
    50   34   35 1
    51   40   43 1
@<TRIPOS>SUBSTRUCTURE
     1 RES1 1

@<TRIPOS>CRYSIN
   7.9590   12.1480   17.3760  90.0000  90.0000  90.0000  19 1

