# MOL2 file generated by ConQuest
# Please check atom types

@<TRIPOS>MOLECULE
RUCRIS
    52    56     1
SMALL
NO_CHARGES
****
Generated from CSD

@<TRIPOS>ATOM
      1 C1         4.5821    8.7031    1.2705 C.2       1 RES1    0.0000
      2 C2         5.0840    7.4468    1.6541 C.2       1 RES1    0.0000
      3 C3         4.1105    5.0748    0.7043 C.2       1 RES1    0.0000
      4 C4         3.1123    5.0000   -0.2718 C.2       1 RES1    0.0000
      5 C5         1.8087    7.0378   -1.3955 C.2       1 RES1    0.0000
      6 H1         1.2187    6.5864   -1.9551 H         1 RES1    0.0000
      7 C6         1.8018    8.4350   -1.3325 C.2       1 RES1    0.0000
      8 H2         1.1957    8.8935   -1.8695 H         1 RES1    0.0000
      9 C7         2.6435    9.1823   -0.5200 C.2       1 RES1    0.0000
     10 H3         2.5985   10.1103   -0.5163 H         1 RES1    0.0000
     11 C8         4.3595    6.4569    0.9667 C.2       1 RES1    0.0000
     12 C9         2.7086    6.3386   -0.6094 C.2       1 RES1    0.0000
     13 C10        3.5544    8.5105    0.2906 C.2       1 RES1    0.0000
     14 C11        5.0943    9.9648    1.7858 C.2       1 RES1    0.0000
     15 C12        4.7976   12.3123    1.9033 C.3       1 RES1    0.0000
     16 H4         4.2130   12.9979    1.5742 H         1 RES1    0.0000
     17 H5         5.6935   12.4854    1.6062 H         1 RES1    0.0000
     18 H6         4.7739   12.3057    2.8625 H         1 RES1    0.0000
     19 C13        6.2480    7.2501    2.5494 C.2       1 RES1    0.0000
     20 C14        6.9974    7.3623    4.7790 C.3       1 RES1    0.0000
     21 H7         6.6468    7.4509    5.6677 H         1 RES1    0.0000
     22 H8         7.5881    8.0970    4.5928 H         1 RES1    0.0000
     23 H9         7.4812    6.5354    4.7076 H         1 RES1    0.0000
     24 C15        4.8521    3.9902    1.3889 C.ar      1 RES1    0.0000
     25 C16        5.0978    4.0922    2.7563 C.ar      1 RES1    0.0000
     26 H10        4.7480    4.8062    3.2396 H         1 RES1    0.0000
     27 C17        5.8661    3.1276    3.4014 C.ar      1 RES1    0.0000
     28 H11        6.0122    3.1863    4.3182 H         1 RES1    0.0000
     29 C18        6.4101    2.0881    2.6876 C.ar      1 RES1    0.0000
     30 H12        6.9465    1.4620    3.1164 H         1 RES1    0.0000
     31 C19        6.1629    1.9723    1.3382 C.ar      1 RES1    0.0000
     32 H13        6.5219    1.2604    0.8595 H         1 RES1    0.0000
     33 C20        5.3792    2.9160    0.6902 C.ar      1 RES1    0.0000
     34 H14        5.2052    2.8269   -0.2191 H         1 RES1    0.0000
     35 C21        2.4786    3.8059   -0.8548 C.ar      1 RES1    0.0000
     36 C22        2.1900    3.7680   -2.2193 C.ar      1 RES1    0.0000
     37 H15        2.4422    4.4832   -2.7572 H         1 RES1    0.0000
     38 C23        1.5365    2.6909   -2.7901 C.ar      1 RES1    0.0000
     39 H16        1.3302    2.6885   -3.6966 H         1 RES1    0.0000
     40 C24        1.2011    1.6320   -1.9993 C.ar      1 RES1    0.0000
     41 C25        1.4684    1.6157   -0.6470 C.ar      1 RES1    0.0000
     42 H17        1.2200    0.8889   -0.1222 H         1 RES1    0.0000
     43 C26        2.1162    2.7079   -0.0828 C.ar      1 RES1    0.0000
     44 H18        2.3100    2.7055    0.8275 H         1 RES1    0.0000
     45 N1         3.4994    7.1428    0.1683 N.pl3     1 RES1    0.0000
     46 N2         0.4858    0.4886   -2.5908 N.pl3     1 RES1    0.0000
     47 O1         6.0557   10.0729    2.5052 O.2       1 RES1    0.0000
     48 O2         4.3614   11.0229    1.3993 O.3       1 RES1    0.0000
     49 O3         7.3466    7.0024    2.1629 O.2       1 RES1    0.0000
     50 O4         5.9064    7.3672    3.8264 O.3       1 RES1    0.0000
     51 O5         0.2012   -0.4639   -1.8761 O.2       1 RES1    0.0000
     52 O6         0.2158    0.5338   -3.7766 O.2       1 RES1    0.0000
@<TRIPOS>BOND
     1    1    2 1
     2    2   11 2
     3    3    4 2
     4    4   12 1
     5    5    6 1
     6    7    5 1
     7    8    7 1
     8    9    7 2
     9   10    9 1
    10   11    3 1
    11   12    5 2
    12   13    1 2
    13   14    1 1
    14   15   16 1
    15   17   15 1
    16   18   15 1
    17   19    2 1
    18   20   21 1
    19   22   20 1
    20   23   20 1
    21   24    3 1
    22   25   24 ar
    23   26   25 1
    24   27   25 ar
    25   28   27 1
    26   29   27 ar
    27   30   29 1
    28   31   29 ar
    29   32   31 1
    30   33   24 ar
    31   34   33 1
    32   35    4 1
    33   36   35 ar
    34   37   36 1
    35   38   36 ar
    36   39   38 1
    37   40   38 ar
    38   41   40 ar
    39   42   41 1
    40   43   35 ar
    41   44   43 1
    42   45   11 1
    43   46   40 1
    44   47   14 2
    45   48   14 1
    46   49   19 2
    47   50   19 1
    48   51   46 2
    49   52   46 2
    50    9   13 1
    51   12   45 1
    52   13   45 1
    53   15   48 1
    54   20   50 1
    55   31   33 ar
    56   41   43 ar
@<TRIPOS>SUBSTRUCTURE
     1 RES1 1

@<TRIPOS>CRYSIN
   9.5440   24.2860    9.7950  90.0000 106.2470  90.0000  14 1

