# MOL2 file generated by ConQuest
# Please check atom types

@<TRIPOS>MOLECULE
RUCRIR
    33    35     1
SMALL
NO_CHARGES
****
Generated from CSD

@<TRIPOS>ATOM
      1 O1         8.6137    5.3095   -1.2349 O.3       1 RES1    0.0000
      2 O2         6.8560    3.9760   -0.8411 O.2       1 RES1    0.0000
      3 O3         5.0024    4.7911    3.8260 O.2       1 RES1    0.0000
      4 O4         5.8738    6.5146    4.8277 O.2       1 RES1    0.0000
      5 N1         6.5399    5.1769    1.6664 N.pl3     1 RES1    0.0000
      6 H1         5.9584    4.6015    1.5353 H         1 RES1    0.0000
      7 N2         5.7928    5.7272    3.8824 N.pl3     1 RES1    0.0000
      8 C1         6.6816    5.9209    2.7917 C.2       1 RES1    0.0000
      9 C2         7.7620    6.7664    2.6635 C.2       1 RES1    0.0000
     10 C3         8.5686    7.7313    3.4755 C.3       1 RES1    0.0000
     11 H2         8.1854    7.9038    4.3300 H         1 RES1    0.0000
     12 C4         8.7202    8.9902    2.6251 C.2       1 RES1    0.0000
     13 H3         8.5056    9.7689    2.9092 H         1 RES1    0.0000
     14 C5         9.2175    8.7729    1.3854 C.2       1 RES1    0.0000
     15 H4         9.3639    9.5031    0.7276 H         1 RES1    0.0000
     16 C6         9.5327    7.3179    1.0886 C.3       1 RES1    0.0000
     17 H5         9.8707    7.1732    0.1561 H         1 RES1    0.0000
     18 C7         8.2916    6.5268    1.3872 C.2       1 RES1    0.0000
     19 C8         7.5263    5.5400    0.7830 C.2       1 RES1    0.0000
     20 C9         9.9886    7.1061    3.5533 C.3       1 RES1    0.0000
     21 H6        10.5813    7.6997    4.0677 H         1 RES1    0.0000
     22 H7         9.9411    6.2419    4.0209 H         1 RES1    0.0000
     23 C10       10.5556    6.9001    2.1754 C.3       1 RES1    0.0000
     24 H8        10.8037    5.9113    2.0505 H         1 RES1    0.0000
     25 H9        11.4134    7.4589    2.0713 H         1 RES1    0.0000
     26 C11        7.6080    4.8580   -0.5033 C.2       1 RES1    0.0000
     27 C12        8.8037    4.7121   -2.5574 C.3       1 RES1    0.0000
     28 H10        9.4916    4.0140   -2.5116 H         1 RES1    0.0000
     29 H11        7.9656    4.2988   -2.8593 H         1 RES1    0.0000
     30 C13        9.2009    5.7225   -3.4776 C.3       1 RES1    0.0000
     31 H12        8.5199    6.4682   -3.4692 H         1 RES1    0.0000
     32 H13        9.2586    5.3302   -4.4029 H         1 RES1    0.0000
     33 H14       10.1066    6.0854   -3.2090 H         1 RES1    0.0000
@<TRIPOS>BOND
     1    1   26 1
     2    2   26 2
     3    3    7 2
     4    4    7 2
     5    5    6 1
     6    7    8 1
     7    8    5 1
     8    9    8 2
     9   10    9 1
    10   11   10 1
    11   12   10 1
    12   13   12 1
    13   14   12 2
    14   15   14 1
    15   16   14 1
    16   17   16 1
    17   18    9 1
    18   19    5 1
    19   20   10 1
    20   21   20 1
    21   22   20 1
    22   23   16 1
    23   24   23 1
    24   25   23 1
    25   26   19 1
    26   27    1 1
    27   28   27 1
    28   29   27 1
    29   30   27 1
    30   31   30 1
    31   32   30 1
    32   33   30 1
    33   16   18 1
    34   18   19 2
    35   20   23 1
@<TRIPOS>SUBSTRUCTURE
     1 RES1 1

@<TRIPOS>CRYSIN
   7.7064    8.4775   11.1885  69.9790  75.4540  67.8110   2 1

