# MOL2 file generated by ConQuest
# Please check atom types

@<TRIPOS>MOLECULE
RUDWUK
    62    64     1
SMALL
NO_CHARGES
****
Generated from CSD

@<TRIPOS>ATOM
      1 O1        16.2849    3.5851   12.6249 O.2       1 RES1    0.0000
      2 O2        11.9471    0.7186   14.0678 O.2       1 RES1    0.0000
      3 O3         8.3684    3.2010   24.5386 O.2       1 RES1    0.0000
      4 O4        11.0494    0.5043   20.7136 O.2       1 RES1    0.0000
      5 O5        12.7381    0.6600   16.1935 O.3       1 RES1    0.0000
      6 O6         9.2360    0.5706   19.3975 O.3       1 RES1    0.0000
      7 N1        15.6227    2.9861   13.5265 N.3       1 RES1    0.0000
      8 N2         8.4319    2.6926   23.3697 N.3       1 RES1    0.0000
      9 C1        14.3289    2.3078   13.2196 C.3       1 RES1    0.0000
     10 C2        13.9642    1.8473   14.6178 C.2       1 RES1    0.0000
     11 C3        14.8321    2.2753   15.5318 C.2       1 RES1    0.0000
     12 C4        15.9266    3.1033   14.9601 C.3       1 RES1    0.0000
     13 C5        14.5713    1.1483   12.2580 C.3       1 RES1    0.0000
     14 C6        13.3286    3.3105   12.6567 C.3       1 RES1    0.0000
     15 C7        17.3102    2.5280   15.2621 C.3       1 RES1    0.0000
     16 C8        15.8704    4.5576   15.3968 C.3       1 RES1    0.0000
     17 C9        12.7790    1.0346   14.8808 C.2       1 RES1    0.0000
     18 C10        9.6071    1.9651   22.8920 C.3       1 RES1    0.0000
     19 C11        9.1227    1.6183   21.4879 C.2       1 RES1    0.0000
     20 C12        7.9057    2.1450   21.2378 C.2       1 RES1    0.0000
     21 C13        7.3413    2.8908   22.3811 C.3       1 RES1    0.0000
     22 C14        9.8620    0.7417   23.7695 C.3       1 RES1    0.0000
     23 C15       10.8209    2.8808   22.8926 C.3       1 RES1    0.0000
     24 C16        6.0453    2.3380   22.8948 C.3       1 RES1    0.0000
     25 C17        7.1952    4.3937   22.0802 C.3       1 RES1    0.0000
     26 C18        9.9213    0.8464   20.5432 C.2       1 RES1    0.0000
     27 C19       11.6117   -0.0112   16.6906 C.ar      1 RES1    0.0000
     28 C20       10.9916    0.5919   17.7600 C.ar      1 RES1    0.0000
     29 C21        9.9445   -0.0704   18.3706 C.ar      1 RES1    0.0000
     30 C22        9.5140   -1.2980   17.9176 C.ar      1 RES1    0.0000
     31 C23       10.1409   -1.8603   16.8436 C.ar      1 RES1    0.0000
     32 C24       11.2089   -1.2442   16.2178 C.ar      1 RES1    0.0000
     33 H1        14.7575    2.0722   16.4581 H         1 RES1    0.0000
     34 H2        15.1838    0.5043   12.6713 H         1 RES1    0.0000
     35 H3        14.9662    1.4892   11.4291 H         1 RES1    0.0000
     36 H4        13.7199    0.7073   12.0567 H         1 RES1    0.0000
     37 H5        13.6926    3.7118   11.8396 H         1 RES1    0.0000
     38 H6        13.1611    4.0125   13.3204 H         1 RES1    0.0000
     39 H7        12.4885    2.8512   12.4478 H         1 RES1    0.0000
     40 H8        17.9885    3.0276   14.7603 H         1 RES1    0.0000
     41 H9        17.3372    1.5851   14.9967 H         1 RES1    0.0000
     42 H10       17.4937    2.6032   16.2217 H         1 RES1    0.0000
     43 H11       14.9720    4.9145   15.2309 H         1 RES1    0.0000
     44 H12       16.5265    5.0773   14.8892 H         1 RES1    0.0000
     45 H13       16.0733    4.6198   16.3528 H         1 RES1    0.0000
     46 H14        7.4554    2.0456   20.4082 H         1 RES1    0.0000
     47 H15        9.0878    0.1426   23.7265 H         1 RES1    0.0000
     48 H16       10.0039    1.0275   24.6957 H         1 RES1    0.0000
     49 H17       10.6591    0.2693   23.4471 H         1 RES1    0.0000
     50 H18       10.9823    3.2087   23.8017 H         1 RES1    0.0000
     51 H19       10.6557    3.6408   22.2951 H         1 RES1    0.0000
     52 H20       11.6045    2.3842   22.5788 H         1 RES1    0.0000
     53 H21        6.1804    1.4176   23.2021 H         1 RES1    0.0000
     54 H22        5.3776    2.3487   22.1769 H         1 RES1    0.0000
     55 H23        5.7288    2.8879   23.6427 H         1 RES1    0.0000
     56 H24        6.9493    4.8690   22.9012 H         1 RES1    0.0000
     57 H25        6.4949    4.5245   21.4054 H         1 RES1    0.0000
     58 H26        8.0449    4.7435   21.7407 H         1 RES1    0.0000
     59 H27       11.2757    1.4431   18.0721 H         1 RES1    0.0000
     60 H28        8.7948   -1.7455   18.3450 H         1 RES1    0.0000
     61 H29        9.8338   -2.6985   16.5161 H         1 RES1    0.0000
     62 H30       11.6514   -1.6561   15.4845 H         1 RES1    0.0000
@<TRIPOS>BOND
     1    1    7 1
     2    2   17 2
     3    3    8 1
     4    4   26 2
     5    5   17 1
     6    6   26 1
     7    7    9 1
     8    8   18 1
     9    9   10 1
    10   10   11 2
    11   11   12 1
    12   12    7 1
    13   13    9 1
    14   14    9 1
    15   15   12 1
    16   16   12 1
    17   17   10 1
    18   18   19 1
    19   19   20 2
    20   20   21 1
    21   21    8 1
    22   22   18 1
    23   23   18 1
    24   24   21 1
    25   25   21 1
    26   26   19 1
    27   27    5 1
    28   28   27 ar
    29   29    6 1
    30   30   29 ar
    31   31   30 ar
    32   32   27 ar
    33   33   11 1
    34   34   13 1
    35   35   13 1
    36   36   13 1
    37   37   14 1
    38   38   14 1
    39   39   14 1
    40   40   15 1
    41   41   15 1
    42   42   15 1
    43   43   16 1
    44   44   16 1
    45   45   16 1
    46   46   20 1
    47   47   22 1
    48   48   22 1
    49   49   22 1
    50   50   23 1
    51   51   23 1
    52   52   23 1
    53   53   24 1
    54   54   24 1
    55   55   24 1
    56   56   25 1
    57   57   25 1
    58   58   25 1
    59   59   28 1
    60   60   30 1
    61   61   31 1
    62   62   32 1
    63   28   29 ar
    64   31   32 ar
@<TRIPOS>SUBSTRUCTURE
     1 RES1 1

@<TRIPOS>CRYSIN
  18.3370    5.9190   22.3670  90.0000 106.0850  90.0000 231 1

