# MOL2 file generated by ConQuest
# Please check atom types

@<TRIPOS>MOLECULE
RUDXAR
   177   180     3
SMALL
NO_CHARGES
****
Generated from CSD

@<TRIPOS>ATOM
      1 O1         4.1463   15.8523    3.1025 O.2       1 RES1    0.0000
      2 O2         5.9805   12.0713    6.4942 O.2       1 RES1    0.0000
      3 O3        14.9092   11.9208   10.3936 O.2       1 RES1    0.0000
      4 O4         9.7052    9.9305    8.4365 O.2       1 RES1    0.0000
      5 O5         2.8809    7.7031   15.6016 O.2       1 RES1    0.0000
      6 O6         4.8583   12.5886   12.9476 O.2       1 RES1    0.0000
      7 O7         5.7671   13.5007    8.1900 O.3       1 RES1    0.0000
      8 O8         9.7035   11.4879   10.0643 O.3       1 RES1    0.0000
      9 O9         5.4374   10.6104   11.9962 O.3       1 RES1    0.0000
     10 N1         4.4474   15.4697    4.2794 N.3       1 RES1    0.0000
     11 N2        13.9160   11.3891    9.8117 N.3       1 RES1    0.0000
     12 N3         3.1712    8.8682   15.1475 N.3       1 RES1    0.0000
     13 C1         4.9181   14.0925    4.5685 C.3       1 RES1    0.0000
     14 C2         5.1356   14.2388    6.0549 C.2       1 RES1    0.0000
     15 C3         4.8302   15.4734    6.5146 C.2       1 RES1    0.0000
     16 C4         4.3343   16.3809    5.4452 C.3       1 RES1    0.0000
     17 C5         3.8105   13.0940    4.2201 C.3       1 RES1    0.0000
     18 C6         6.1718   13.7991    3.7920 C.3       1 RES1    0.0000
     19 C7         2.9121   16.8221    5.6546 C.3       1 RES1    0.0000
     20 C8         5.2542   17.5987    5.2469 C.3       1 RES1    0.0000
     21 C9         5.6760   13.1558    6.8926 C.2       1 RES1    0.0000
     22 C10       12.5080   11.6118   10.2713 C.3       1 RES1    0.0000
     23 C11       11.7864   10.8087    9.2353 C.2       1 RES1    0.0000
     24 C12       12.6128   10.2279    8.3642 C.2       1 RES1    0.0000
     25 C13       14.0469   10.5556    8.6014 C.3       1 RES1    0.0000
     26 C14       14.6576   11.3907    7.4764 C.3       1 RES1    0.0000
     27 C15       14.9046    9.3471    8.9109 C.3       1 RES1    0.0000
     28 C16       12.2172   13.1138   10.1749 C.3       1 RES1    0.0000
     29 C17       12.3580   11.0900   11.6743 C.3       1 RES1    0.0000
     30 C18       10.3270   10.6558    9.1556 C.2       1 RES1    0.0000
     31 C19        4.0027    9.0310   13.9206 C.3       1 RES1    0.0000
     32 C20        4.0855   10.5520   13.9224 C.2       1 RES1    0.0000
     33 C21        3.4364   11.0964   14.9492 C.2       1 RES1    0.0000
     34 C22        2.8374   10.1005   15.8647 C.3       1 RES1    0.0000
     35 C23        1.3245   10.2407   15.9759 C.3       1 RES1    0.0000
     36 C24        3.4888   10.1018   17.2362 C.3       1 RES1    0.0000
     37 C25        3.2332    8.4853   12.7196 C.3       1 RES1    0.0000
     38 C26        5.3280    8.3160   14.1078 C.3       1 RES1    0.0000
     39 C27        4.7959   11.3864   12.9290 C.2       1 RES1    0.0000
     40 C28        6.3658   12.5876    9.0852 C.ar      1 RES1    0.0000
     41 C29        7.7423   12.3996    9.0240 C.ar      1 RES1    0.0000
     42 C30        8.3077   11.6135   10.0100 C.ar      1 RES1    0.0000
     43 C31        7.5681   11.0481   11.0330 C.ar      1 RES1    0.0000
     44 C32        6.2034   11.2637   11.0164 C.ar      1 RES1    0.0000
     45 C33        5.5665   12.0301   10.0545 C.ar      1 RES1    0.0000
     46 H1         4.9243   15.7344    7.4246 H         1 RES1    0.0000
     47 H2         3.5859   13.1730    3.2693 H         1 RES1    0.0000
     48 H3         3.0162   13.2865    4.7594 H         1 RES1    0.0000
     49 H4         4.1206   12.1842    4.4073 H         1 RES1    0.0000
     50 H5         6.8686   14.4410    4.0403 H         1 RES1    0.0000
     51 H6         5.9865   13.8724    2.8319 H         1 RES1    0.0000
     52 H7         6.4766   12.8904    3.9958 H         1 RES1    0.0000
     53 H8         2.3501   16.0398    5.8288 H         1 RES1    0.0000
     54 H9         2.5927   17.2839    4.8521 H         1 RES1    0.0000
     55 H10        2.8696   17.4322    6.4200 H         1 RES1    0.0000
     56 H11        4.9976   18.0710    4.4277 H         1 RES1    0.0000
     57 H12        6.1843   17.2968    5.1727 H         1 RES1    0.0000
     58 H13        5.1676   18.2032    6.0141 H         1 RES1    0.0000
     59 H14       12.3162    9.6607    7.6618 H         1 RES1    0.0000
     60 H15       15.5426   11.7108    7.7507 H         1 RES1    0.0000
     61 H16       14.0783   12.1575    7.2856 H         1 RES1    0.0000
     62 H17       14.7443   10.8386    6.6702 H         1 RES1    0.0000
     63 H18       15.0819    8.8527    8.0825 H         1 RES1    0.0000
     64 H19       14.4344    8.7657    9.5448 H         1 RES1    0.0000
     65 H20       15.7536    9.6413    9.3039 H         1 RES1    0.0000
     66 H21       11.2569   13.2688   10.2880 H         1 RES1    0.0000
     67 H22       12.5010   13.4449    9.2964 H         1 RES1    0.0000
     68 H23       12.7091   13.5865   10.8774 H         1 RES1    0.0000
     69 H24       12.7130   10.1769   11.7225 H         1 RES1    0.0000
     70 H25       11.4080   11.0832   11.9208 H         1 RES1    0.0000
     71 H26       12.8522   11.6663   12.2915 H         1 RES1    0.0000
     72 H27        3.3657   12.0348   15.0808 H         1 RES1    0.0000
     73 H28        0.9594    9.4714   16.4615 H         1 RES1    0.0000
     74 H29        0.9334   10.2783   15.0789 H         1 RES1    0.0000
     75 H30        1.1084   11.0649   16.4615 H         1 RES1    0.0000
     76 H31        4.4622   10.0619   17.1343 H         1 RES1    0.0000
     77 H32        3.1806    9.3228   17.7441 H         1 RES1    0.0000
     78 H33        3.2414   10.9202   17.7125 H         1 RES1    0.0000
     79 H34        2.3943    8.9815   12.6158 H         1 RES1    0.0000
     80 H35        3.0360    7.5369   12.8623 H         1 RES1    0.0000
     81 H36        3.7749    8.5882   11.9097 H         1 RES1    0.0000
     82 H37        5.1651    7.3650   14.2820 H         1 RES1    0.0000
     83 H38        5.8065    8.7086   14.8676 H         1 RES1    0.0000
     84 H39        5.8696    8.4114   13.2960 H         1 RES1    0.0000
     85 H40        8.2679   12.7927    8.3364 H         1 RES1    0.0000
     86 H41        7.9817   10.5352   11.7169 H         1 RES1    0.0000
     87 H42        4.6263   12.1638   10.0637 H         1 RES1    0.0000
     88 O10        4.7887    6.3907   -5.5619 O.2       2 RES2    0.0000
     89 O11        7.3729    3.0511   -2.2333 O.2       2 RES2    0.0000
     90 O12        5.7881   -0.7742    7.1706 O.2       2 RES2    0.0000
     91 O13        7.6384    3.9977    4.2616 O.2       2 RES2    0.0000
     92 O14       17.2926    3.4620    0.1001 O.2       2 RES2    0.0000
     93 O15        7.5641    4.7250   -0.7204 O.3       2 RES2    0.0000
     94 O16        7.9359    2.0059    3.2298 O.3       2 RES2    0.0000
     95 N4         5.3994    6.2123   -4.4592 N.3       2 RES2    0.0000
     96 N5         6.0589    0.3636    6.6702 N.3       2 RES2    0.0000
     97 N6        16.1567    2.9243    0.0723 N.3       2 RES2    0.0000
     98 C34        6.0090    4.8855   -4.1145 C.3       2 RES2    0.0000
     99 C35        6.4259    5.1976   -2.7059 C.2       2 RES2    0.0000
    100 C36        6.0772    6.4185   -2.3186 C.2       2 RES2    0.0000
    101 C37        5.3202    7.1820   -3.3490 C.3       2 RES2    0.0000
    102 C38        4.9322    3.8021   -4.2238 C.3       2 RES2    0.0000
    103 C39        7.1744    4.6160   -5.0430 C.3       2 RES2    0.0000
    104 C40        3.8642    7.4167   -2.9654 C.3       2 RES2    0.0000
    105 C41        5.9592    8.4938   -3.7456 C.3       2 RES2    0.0000
    106 C42        7.1441    4.1895   -1.9015 C.2       2 RES2    0.0000
    107 C43        6.7655    0.4935    5.3692 C.3       2 RES2    0.0000
    108 C44        6.8469    2.0204    5.3228 C.2       2 RES2    0.0000
    109 C45        6.2326    2.6001    6.3329 C.2       2 RES2    0.0000
    110 C46        5.5993    1.6366    7.2893 C.3       2 RES2    0.0000
    111 C47        5.9156   -0.1104    4.2553 C.3       2 RES2    0.0000
    112 C48        8.1222   -0.2001    5.5045 C.3       2 RES2    0.0000
    113 C49        4.0899    1.7058    7.2856 C.3       2 RES2    0.0000
    114 C50        6.1597    1.7412    8.7108 C.3       2 RES2    0.0000
    115 C51        7.5050    2.7991    4.2479 C.2       2 RES2    0.0000
    116 C52       14.9581    3.6594    0.4967 C.3       2 RES2    0.0000
    117 C53       13.8975    2.6773    0.2873 C.2       2 RES2    0.0000
    118 C54       14.4130    1.5548   -0.0834 C.2       2 RES2    0.0000
    119 C55       15.9629    1.5095   -0.2502 C.3       2 RES2    0.0000
    120 C56       14.7576    4.8465   -0.4133 C.3       2 RES2    0.0000
    121 C57       15.0892    4.0273    1.9386 C.3       2 RES2    0.0000
    122 C58       16.4730    1.2707   -1.6643 C.3       2 RES2    0.0000
    123 C59       16.6940    0.6174    0.7562 C.3       2 RES2    0.0000
    124 C60        8.3277    3.8986    0.1223 C.ar      2 RES2    0.0000
    125 C61        7.7253    3.3674    1.2288 C.ar      2 RES2    0.0000
    126 C62        8.5146    2.6516    2.1017 C.ar      2 RES2    0.0000
    127 C63        9.8667    2.4746    1.8997 C.ar      2 RES2    0.0000
    128 C64       10.4407    3.0450    0.7636 C.ar      2 RES2    0.0000
    129 C65        9.6709    3.7501   -0.1612 C.ar      2 RES2    0.0000
    130 H43        6.2910    6.7729   -1.4642 H         2 RES2    0.0000
    131 H44        4.5718    3.7909   -5.1357 H         2 RES2    0.0000
    132 H45        4.2092    3.9941   -3.5900 H         2 RES2    0.0000
    133 H46        5.3249    2.9288   -4.0162 H         2 RES2    0.0000
    134 H47        7.8531    5.3139   -4.9262 H         2 RES2    0.0000
    135 H48        6.8609    4.6158   -5.9697 H         2 RES2    0.0000
    136 H49        7.5656    3.7421   -4.8299 H         2 RES2    0.0000
    137 H50        3.4656    6.5735   -2.6633 H         2 RES2    0.0000
    138 H51        3.3714    7.7512   -3.7438 H         2 RES2    0.0000
    139 H52        3.8180    8.0771   -2.2426 H         2 RES2    0.0000
    140 H53        5.5028    8.8528   -4.5352 H         2 RES2    0.0000
    141 H54        6.9050    8.3479   -3.9532 H         2 RES2    0.0000
    142 H55        5.8820    9.1320   -3.0061 H         2 RES2    0.0000
    143 H56        6.1944    3.5428    6.4441 H         2 RES2    0.0000
    144 H57        5.0588    0.3607    4.2071 H         2 RES2    0.0000
    145 H58        5.7575   -1.0592    4.4444 H         2 RES2    0.0000
    146 H59        6.3861   -0.0228    3.4009 H         2 RES2    0.0000
    147 H60        8.5560   -0.2441    4.6260 H         2 RES2    0.0000
    148 H61        7.9914   -1.1082    5.8492 H         2 RES2    0.0000
    149 H62        8.6884    0.3067    6.1235 H         2 RES2    0.0000
    150 H63        3.7268    0.9500    7.7934 H         2 RES2    0.0000
    151 H64        3.7646    1.6668    6.3626 H         2 RES2    0.0000
    152 H65        3.8016    2.5468    7.6989 H         2 RES2    0.0000
    153 H66        7.1391    1.7307    8.6793 H         2 RES2    0.0000
    154 H67        5.8436    0.9821    9.2446 H         2 RES2    0.0000
    155 H68        5.8558    2.5776    9.1222 H         2 RES2    0.0000
    156 H69       13.8734    0.7904   -0.2465 H         2 RES2    0.0000
    157 H70       14.6430    4.5359   -1.3344 H         2 RES2    0.0000
    158 H71       15.5413    5.4343   -0.3614 H         2 RES2    0.0000
    159 H72       13.9594    5.3419   -0.1334 H         2 RES2    0.0000
    160 H73       15.8783    4.5963    2.0591 H         2 RES2    0.0000
    161 H74       15.1877    3.2149    2.4761 H         2 RES2    0.0000
    162 H75       14.2891    4.5151    2.2259 H         2 RES2    0.0000
    163 H76       17.4220    1.5122   -1.7125 H         2 RES2    0.0000
    164 H77       15.9638    1.8239   -2.2926 H         2 RES2    0.0000
    165 H78       16.3636    0.3260   -1.8960 H         2 RES2    0.0000
    166 H79       16.3393    0.7807    1.6550 H         2 RES2    0.0000
    167 H80       17.6520    0.8245    0.7413 H         2 RES2    0.0000
    168 H81       16.5588   -0.3240    0.5171 H         2 RES2    0.0000
    169 H82        6.7970    3.4874    1.3900 H         2 RES2    0.0000
    170 H83       10.3928    1.9780    2.5169 H         2 RES2    0.0000
    171 H84       10.0533    4.1134   -0.9508 H         2 RES2    0.0000
    172 C66       12.5894    3.3420    0.6301 C.2       2 RES2    0.0000
    173 O17       12.3110    4.4357    1.0712 O.2       2 RES2    0.0000
    174 O18       11.6431    2.4192    0.3114 O.3       2 RES2    0.0000
    175 O19       11.8105    1.2367   -0.1205 Du        3 SUP3    0.0000
    176 C67       12.4786    2.1810    0.2446 Du        3 SUP3    0.0000
    177 O20       11.8591    3.2910    0.7265 Du        3 SUP3    0.0000
@<TRIPOS>BOND
     1    1   10 1
     2    2   21 2
     3    3   11 1
     4    4   30 2
     5    5   12 1
     6    6   39 2
     7    7   21 1
     8    8   30 1
     9    9   39 1
    10   10   13 1
    11   11   22 1
    12   12   31 1
    13   13   14 1
    14   14   15 2
    15   15   16 1
    16   16   10 1
    17   17   13 1
    18   18   13 1
    19   19   16 1
    20   20   16 1
    21   21   14 1
    22   22   23 1
    23   23   24 2
    24   24   25 1
    25   25   11 1
    26   26   25 1
    27   27   25 1
    28   28   22 1
    29   29   22 1
    30   30   23 1
    31   31   32 1
    32   32   33 2
    33   33   34 1
    34   34   12 1
    35   35   34 1
    36   36   34 1
    37   37   31 1
    38   38   31 1
    39   39   32 1
    40   40    7 1
    41   41   40 ar
    42   42    8 1
    43   43   42 ar
    44   44    9 1
    45   45   40 ar
    46   46   15 1
    47   47   17 1
    48   48   17 1
    49   49   17 1
    50   50   18 1
    51   51   18 1
    52   52   18 1
    53   53   19 1
    54   54   19 1
    55   55   19 1
    56   56   20 1
    57   57   20 1
    58   58   20 1
    59   59   24 1
    60   60   26 1
    61   61   26 1
    62   62   26 1
    63   63   27 1
    64   64   27 1
    65   65   27 1
    66   66   28 1
    67   67   28 1
    68   68   28 1
    69   69   29 1
    70   70   29 1
    71   71   29 1
    72   72   33 1
    73   73   35 1
    74   74   35 1
    75   75   35 1
    76   76   36 1
    77   77   36 1
    78   78   36 1
    79   79   37 1
    80   80   37 1
    81   81   37 1
    82   82   38 1
    83   83   38 1
    84   84   38 1
    85   85   41 1
    86   86   43 1
    87   87   45 1
    88   88   95 1
    89   89  106 2
    90   90   96 1
    91   91  115 2
    92   92   97 1
    93   93  106 1
    94   94  115 1
    95   95   98 1
    96   96  107 1
    97   97  116 1
    98   98   99 1
    99   99  100 2
   100  100  101 1
   101  101   95 1
   102  102   98 1
   103  103   98 1
   104  104  101 1
   105  105  101 1
   106  106   99 1
   107  107  108 1
   108  108  109 2
   109  109  110 1
   110  110   96 1
   111  111  107 1
   112  112  107 1
   113  113  110 1
   114  114  110 1
   115  115  108 1
   116  116  117 1
   117  117  118 2
   118  118  119 1
   119  119   97 1
   120  120  116 1
   121  121  116 1
   122  122  119 1
   123  123  119 1
   124  124   93 1
   125  125  124 ar
   126  126   94 1
   127  127  126 ar
   128  128  127 ar
   129  129  124 ar
   130  130  100 1
   131  131  102 1
   132  132  102 1
   133  133  102 1
   134  134  103 1
   135  135  103 1
   136  136  103 1
   137  137  104 1
   138  138  104 1
   139  139  104 1
   140  140  105 1
   141  141  105 1
   142  142  105 1
   143  143  109 1
   144  144  111 1
   145  145  111 1
   146  146  111 1
   147  147  112 1
   148  148  112 1
   149  149  112 1
   150  150  113 1
   151  151  113 1
   152  152  113 1
   153  153  114 1
   154  154  114 1
   155  155  114 1
   156  156  118 1
   157  157  120 1
   158  158  120 1
   159  159  120 1
   160  160  121 1
   161  161  121 1
   162  162  121 1
   163  163  122 1
   164  164  122 1
   165  165  122 1
   166  166  123 1
   167  167  123 1
   168  168  123 1
   169  169  125 1
   170  170  127 1
   171  171  129 1
   172  172  117 1
   173  173  172 2
   174  174  128 1
   175   41   42 ar
   176   43   44 ar
   177   44   45 ar
   178  125  126 ar
   179  128  129 ar
   180  172  174 1
@<TRIPOS>SUBSTRUCTURE
     1 RES1 1
     2 RES2 88
     3 SUP3 175

@<TRIPOS>CRYSIN
  12.5940   15.1450   19.2560  78.3200  76.6940  73.7300   2 1

