# MOL2 file generated by ConQuest
# Please check atom types

@<TRIPOS>MOLECULE
RUFBOK
    52    56     1
SMALL
NO_CHARGES
****
Generated from CSD

@<TRIPOS>ATOM
      1 C1         9.3925    8.8577    1.3079 C.ar      1 RES1    0.0000
      2 C2         9.9208    7.5901    1.1974 C.ar      1 RES1    0.0000
      3 H1        10.8424    7.4813    1.1287 H         1 RES1    0.0000
      4 C3         9.1041    6.4805    1.1866 C.ar      1 RES1    0.0000
      5 H2         9.4769    5.6330    1.0984 H         1 RES1    0.0000
      6 C4         7.7312    6.6198    1.3065 C.ar      1 RES1    0.0000
      7 C5         7.1938    7.8906    1.4060 C.ar      1 RES1    0.0000
      8 H3         6.2737    7.9997    1.4831 H         1 RES1    0.0000
      9 C6         8.0190    8.9981    1.3911 C.ar      1 RES1    0.0000
     10 H4         7.6467    9.8494    1.4377 H         1 RES1    0.0000
     11 C7        10.3007   10.0626    1.3373 C.3       1 RES1    0.0000
     12 H5        11.1935    9.7962    1.1072 H         1 RES1    0.0000
     13 H6        10.2972   10.4447    2.2183 H         1 RES1    0.0000
     14 H7         9.9887   10.7137    0.7050 H         1 RES1    0.0000
     15 C8         6.9065    5.3761    1.2997 C.2       1 RES1    0.0000
     16 C9         5.9911    5.1350    2.4547 C.2       1 RES1    0.0000
     17 C10        6.0746    5.8208    3.5899 C.2       1 RES1    0.0000
     18 H8         6.6367    6.5609    3.5626 H         1 RES1    0.0000
     19 C11        5.3613    2.7498    1.9777 C.2       1 RES1    0.0000
     20 H9         6.2177    2.4438    1.7819 H         1 RES1    0.0000
     21 C12        3.3001    2.8453    2.2953 C.2       1 RES1    0.0000
     22 C13        3.7364    4.1034    2.5236 C.2       1 RES1    0.0000
     23 H10        3.2327    4.8445    2.7719 H         1 RES1    0.0000
     24 C14        5.4107    5.5873    4.8887 C.ar      1 RES1    0.0000
     25 C15        4.7087    6.6595    5.4765 C.ar      1 RES1    0.0000
     26 C16        4.4948    7.8904    4.8135 C.ar      1 RES1    0.0000
     27 H11        4.8131    8.0029    3.9473 H         1 RES1    0.0000
     28 C17        3.8325    8.9143    5.4186 C.ar      1 RES1    0.0000
     29 H12        3.7096    9.7166    4.9637 H         1 RES1    0.0000
     30 C18        3.3326    8.7695    6.7236 C.ar      1 RES1    0.0000
     31 H13        2.8913    9.4801    7.1315 H         1 RES1    0.0000
     32 C19        3.4901    7.6157    7.3840 C.ar      1 RES1    0.0000
     33 H14        3.1467    7.5343    8.2451 H         1 RES1    0.0000
     34 C20        4.1732    6.5069    6.7965 C.ar      1 RES1    0.0000
     35 C21        4.3369    5.3091    7.4554 C.ar      1 RES1    0.0000
     36 H15        3.9708    5.2118    8.3044 H         1 RES1    0.0000
     37 C22        5.0282    4.2392    6.9001 C.ar      1 RES1    0.0000
     38 C23        5.2225    3.0272    7.6039 C.ar      1 RES1    0.0000
     39 H16        4.8428    2.9227    8.4469 H         1 RES1    0.0000
     40 C24        5.9457    2.0254    7.0757 C.ar      1 RES1    0.0000
     41 H17        6.0419    1.2289    7.5452 H         1 RES1    0.0000
     42 C25        6.5611    2.1725    5.8144 C.ar      1 RES1    0.0000
     43 H18        7.0814    1.4814    5.4719 H         1 RES1    0.0000
     44 C26        6.3994    3.3104    5.0969 C.ar      1 RES1    0.0000
     45 H19        6.8188    3.3925    4.2701 H         1 RES1    0.0000
     46 C27        5.6034    4.3779    5.5843 C.ar      1 RES1    0.0000
     47 N1         5.0742    4.0433    2.3086 N.pl3     1 RES1    0.0000
     48 N2         4.3009    1.9930    1.9666 N.2       1 RES1    0.0000
     49 N3         1.9331    2.4042    2.3649 N.pl3     1 RES1    0.0000
     50 O1         7.0304    4.5422    0.4273 O.2       1 RES1    0.0000
     51 O2         1.6809    1.2398    2.1151 O.2       1 RES1    0.0000
     52 O3         1.0931    3.2480    2.6914 O.2       1 RES1    0.0000
@<TRIPOS>BOND
     1    1    2 ar
     2    2    3 1
     3    4    2 ar
     4    5    4 1
     5    6    4 ar
     6    7    6 ar
     7    8    7 1
     8    9    1 ar
     9   10    9 1
    10   11    1 1
    11   12   11 1
    12   13   11 1
    13   14   11 1
    14   15    6 1
    15   16   15 1
    16   17   16 2
    17   18   17 1
    18   19   20 1
    19   21   22 2
    20   22   23 1
    21   24   17 1
    22   25   24 ar
    23   26   25 ar
    24   27   26 1
    25   28   26 ar
    26   29   28 1
    27   30   28 ar
    28   31   30 1
    29   32   30 ar
    30   33   32 1
    31   34   25 ar
    32   35   34 ar
    33   36   35 1
    34   37   35 ar
    35   38   37 ar
    36   39   38 1
    37   40   38 ar
    38   41   40 1
    39   42   40 ar
    40   43   42 1
    41   44   42 ar
    42   45   44 1
    43   46   24 ar
    44   47   16 1
    45   48   19 2
    46   49   21 1
    47   50   15 2
    48   51   49 2
    49   52   49 2
    50    7    9 ar
    51   19   47 1
    52   21   48 1
    53   22   47 1
    54   32   34 ar
    55   37   46 ar
    56   44   46 ar
@<TRIPOS>SUBSTRUCTURE
     1 RES1 1

@<TRIPOS>CRYSIN
   7.9335   11.2626   13.0291  75.4540  85.7630  71.0590   2 1

