# MOL2 file generated by ConQuest
# Please check atom types

@<TRIPOS>MOLECULE
RUFDAY
    90    90     2
SMALL
NO_CHARGES
****
Generated from CSD

@<TRIPOS>ATOM
      1 C1         6.0917   -4.1315    7.6390 C.ar      1 RES1    0.0000
      2 C2         4.9236   -4.4871    6.9942 C.ar      1 RES1    0.0000
      3 H1         4.6459   -5.3741    6.9707 H         1 RES1    0.0000
      4 C3         4.1793   -3.5061    6.3884 C.ar      1 RES1    0.0000
      5 H2         3.3987   -3.7328    5.9359 H         1 RES1    0.0000
      6 C4         4.5829   -2.1745    6.4453 C.ar      1 RES1    0.0000
      7 C5         5.7576   -1.8355    7.1023 C.ar      1 RES1    0.0000
      8 H3         6.0332   -0.9487    7.1420 H         1 RES1    0.0000
      9 C6         6.5155   -2.8287    7.6979 C.ar      1 RES1    0.0000
     10 H4         7.3074   -2.6129    8.1349 H         1 RES1    0.0000
     11 C7         4.0573    0.1057    5.9360 C.3       1 RES1    0.0000
     12 H5         4.9315    0.2948    5.5605 H         1 RES1    0.0000
     13 H6         4.0574    0.3739    6.8687 H         1 RES1    0.0000
     14 C8         2.9955    0.8516    5.1810 C.3       1 RES1    0.0000
     15 H7         3.1058    1.8013    5.3456 H         1 RES1    0.0000
     16 H8         2.1275    0.5925    5.5259 H         1 RES1    0.0000
     17 C9         3.0144    0.6108    3.6798 C.3       1 RES1    0.0000
     18 H9         3.8831    0.8646    3.3305 H         1 RES1    0.0000
     19 H10        2.8933   -0.3363    3.5109 H         1 RES1    0.0000
     20 C10        1.9406    1.3846    2.9397 C.3       1 RES1    0.0000
     21 H11        2.0445    2.3280    3.1410 H         1 RES1    0.0000
     22 H12        1.0736    1.1075    3.2740 H         1 RES1    0.0000
     23 C11        1.9575    1.2062    1.4335 C.3       1 RES1    0.0000
     24 H13        1.8514    0.2646    1.2280 H         1 RES1    0.0000
     25 H14        2.8214    1.4873    1.0932 H         1 RES1    0.0000
     26 C12        0.8712    1.9897    0.7206 C.3       1 RES1    0.0000
     27 H15        0.0091    1.6975    1.0549 H         1 RES1    0.0000
     28 H16        0.9693    2.9279    0.9456 H         1 RES1    0.0000
     29 C13        0.8745    1.8517   -0.7862 C.3       1 RES1    0.0000
     30 H17        0.7770    0.9145   -1.0148 H         1 RES1    0.0000
     31 H18        1.7325    2.1502   -1.1260 H         1 RES1    0.0000
     32 C14       -0.2219    2.6376   -1.4723 C.3       1 RES1    0.0000
     33 H19       -1.0780    2.3294   -1.1369 H         1 RES1    0.0000
     34 H20       -0.1306    3.5707   -1.2262 H         1 RES1    0.0000
     35 C15       -0.2351    2.5382   -2.9770 C.3       1 RES1    0.0000
     36 H21        0.6190    2.8496   -3.3159 H         1 RES1    0.0000
     37 H22       -0.3279    1.6051   -3.2266 H         1 RES1    0.0000
     38 C16       -1.3335    3.3266   -3.6391 C.3       1 RES1    0.0000
     39 H23       -2.1861    2.9773   -3.3688 H         1 RES1    0.0000
     40 H24       -1.2475    3.2577   -4.5931 H         1 RES1    0.0000
     41 H25       -1.2688    4.2484   -3.3779 H         1 RES1    0.0000
     42 C17        7.6032    6.8582    8.7555 C.ar      2 RES2    0.0000
     43 C18        8.1223    5.8100    8.0355 C.ar      2 RES2    0.0000
     44 H26        8.9118    5.3999    8.3062 H         2 RES2    0.0000
     45 C19        7.4624    5.3729    6.9079 C.ar      2 RES2    0.0000
     46 H27        7.8053    4.6658    6.4096 H         2 RES2    0.0000
     47 C20        6.2864    5.9920    6.5192 C.ar      2 RES2    0.0000
     48 C21        5.7937    7.0651    7.2440 C.ar      2 RES2    0.0000
     49 H28        5.0167    7.4934    6.9671 H         2 RES2    0.0000
     50 C22        6.4514    7.4985    8.3720 C.ar      2 RES2    0.0000
     51 H29        6.1203    8.2136    8.8673 H         2 RES2    0.0000
     52 C23        5.8890    4.4496    4.7261 C.3       2 RES2    0.0000
     53 H30        5.9535    3.6927    5.3273 H         2 RES2    0.0000
     54 H31        6.7472    4.5714    4.2907 H         2 RES2    0.0000
     55 C24        4.8128    4.2088    3.6993 C.3       2 RES2    0.0000
     56 H32        3.9540    4.1858    4.1504 H         2 RES2    0.0000
     57 H33        4.9565    3.3369    3.2977 H         2 RES2    0.0000
     58 C25        4.7514    5.2466    2.5932 C.3       2 RES2    0.0000
     59 H34        4.6204    6.1223    2.9898 H         2 RES2    0.0000
     60 H35        5.6020    5.2579    2.1262 H         2 RES2    0.0000
     61 C26        3.6455    4.9923    1.5909 C.3       2 RES2    0.0000
     62 H36        3.7651    4.1063    1.2152 H         2 RES2    0.0000
     63 H37        2.7956    4.9993    2.0588 H         2 RES2    0.0000
     64 C27        3.5822    5.9921    0.4599 C.3       2 RES2    0.0000
     65 H38        4.4244    5.9692   -0.0219 H         2 RES2    0.0000
     66 H39        3.4846    6.8812    0.8363 H         2 RES2    0.0000
     67 C28        2.4569    5.7576   -0.5240 C.3       2 RES2    0.0000
     68 H40        2.5579    4.8694   -0.9019 H         2 RES2    0.0000
     69 H41        1.6166    5.7755   -0.0401 H         2 RES2    0.0000
     70 C29        2.3807    6.7494   -1.6514 C.3       2 RES2    0.0000
     71 H42        3.2101    6.7094   -2.1517 H         2 RES2    0.0000
     72 H43        2.3120    7.6404   -1.2735 H         2 RES2    0.0000
     73 C30        1.2347    6.5500   -2.6103 C.3       2 RES2    0.0000
     74 H44        1.3040    5.6584   -2.9861 H         2 RES2    0.0000
     75 H45        0.4064    6.5893   -2.1080 H         2 RES2    0.0000
     76 C31        1.1491    7.5245   -3.7300 C.3       2 RES2    0.0000
     77 H46        1.9511    7.4393   -4.2688 H         2 RES2    0.0000
     78 H47        1.1449    8.4193   -3.3560 H         2 RES2    0.0000
     79 C32       -0.0372    7.3846   -4.6264 C.3       2 RES2    0.0000
     80 H48       -0.0762    6.4890   -4.9684 H         2 RES2    0.0000
     81 H49        0.0397    8.0019   -5.3565 H         2 RES2    0.0000
     82 H50       -0.8368    7.5737   -4.1303 H         2 RES2    0.0000
     83 N1         6.8681   -5.1706    8.2965 N.pl3     1 RES1    0.0000
     84 N2         8.2645    7.2674    9.9929 N.pl3     2 RES2    0.0000
     85 O1         6.4647   -6.3231    8.2382 O.2       1 RES1    0.0000
     86 O2         7.8796   -4.8604    8.9109 O.2       1 RES1    0.0000
     87 O3         3.7614   -1.2958    5.8233 O.3       1 RES1    0.0000
     88 O4         9.3210    6.7452   10.3070 O.2       2 RES2    0.0000
     89 O5         7.7091    8.1065   10.6907 O.2       2 RES2    0.0000
     90 O6         5.5305    5.6276    5.4509 O.3       2 RES2    0.0000
@<TRIPOS>BOND
     1    1    2 ar
     2    2    3 1
     3    4    2 ar
     4    5    4 1
     5    6    4 ar
     6    7    6 ar
     7    8    7 1
     8    9    1 ar
     9   10    9 1
    10   11   12 1
    11   13   11 1
    12   14   11 1
    13   15   14 1
    14   16   14 1
    15   17   14 1
    16   18   17 1
    17   19   17 1
    18   20   17 1
    19   21   20 1
    20   22   20 1
    21   23   20 1
    22   24   23 1
    23   25   23 1
    24   26   23 1
    25   27   26 1
    26   28   26 1
    27   29   26 1
    28   30   29 1
    29   31   29 1
    30   32   29 1
    31   33   32 1
    32   34   32 1
    33   35   32 1
    34   36   35 1
    35   37   35 1
    36   38   35 1
    37   39   38 1
    38   40   38 1
    39   41   38 1
    40   42   43 ar
    41   43   44 1
    42   45   43 ar
    43   46   45 1
    44   47   45 ar
    45   48   47 ar
    46   49   48 1
    47   50   42 ar
    48   51   50 1
    49   52   53 1
    50   54   52 1
    51   55   52 1
    52   56   55 1
    53   57   55 1
    54   58   55 1
    55   59   58 1
    56   60   58 1
    57   61   58 1
    58   62   61 1
    59   63   61 1
    60   64   61 1
    61   65   64 1
    62   66   64 1
    63   67   64 1
    64   68   67 1
    65   69   67 1
    66   70   67 1
    67   71   70 1
    68   72   70 1
    69   73   70 1
    70   74   73 1
    71   75   73 1
    72   76   73 1
    73   77   76 1
    74   78   76 1
    75   79   76 1
    76   80   79 1
    77   81   79 1
    78   82   79 1
    79   83    1 1
    80   84   42 1
    81   85   83 2
    82   86   83 2
    83   87    6 1
    84   88   84 2
    85   89   84 2
    86   90   47 1
    87    7    9 ar
    88   11   87 1
    89   48   50 ar
    90   52   90 1
@<TRIPOS>SUBSTRUCTURE
     1 RES1 1
     2 RES2 42

@<TRIPOS>CRYSIN
   5.6420   16.0650   19.1350 107.4100  90.6100  99.7800   2 1

