# MOL2 file generated by ConQuest
# Please check atom types

@<TRIPOS>MOLECULE
RUFSOB
    33    34     1
SMALL
NO_CHARGES
****
Generated from CSD

@<TRIPOS>ATOM
      1 O1         7.9971    1.1006    0.2555 O.3       1 RES1    0.0000
      2 H1         7.7273    1.8741   -0.0865 H         1 RES1    0.0000
      3 O2         8.4107   -1.1104    1.7798 O.3       1 RES1    0.0000
      4 H2         8.7624   -0.8427    1.0314 H         1 RES1    0.0000
      5 O3         5.7494    8.0802   -2.7026 O.2       1 RES1    0.0000
      6 O4         5.1801    6.7548   -1.0847 O.2       1 RES1    0.0000
      7 O5         8.9560    6.9758   -5.9300 O.2       1 RES1    0.0000
      8 O6         9.9637    5.0545   -5.9099 O.2       1 RES1    0.0000
      9 N1         6.7000    3.3124   -0.0849 N.2       1 RES1    0.0000
     10 N2         6.3877    4.4784   -0.7498 N.pl3     1 RES1    0.0000
     11 H3         5.7880    5.0501   -0.4508 H         1 RES1    0.0000
     12 N3         5.8489    7.0103   -2.1067 N.pl3     1 RES1    0.0000
     13 N4         9.1585    5.8607   -5.4516 N.pl3     1 RES1    0.0000
     14 C1         6.0766    3.1118    1.0346 C.2       1 RES1    0.0000
     15 H4         5.4633    3.7413    1.3388 H         1 RES1    0.0000
     16 C2         6.3255    1.9194    1.8151 C.ar      1 RES1    0.0000
     17 C3         7.2565    0.9566    1.4048 C.ar      1 RES1    0.0000
     18 C4         7.4717   -0.1924    2.1650 C.ar      1 RES1    0.0000
     19 C5         6.7488   -0.3912    3.3287 C.ar      1 RES1    0.0000
     20 H5         6.8722   -1.1691    3.8228 H         1 RES1    0.0000
     21 C6         5.8361    0.5698    3.7611 C.ar      1 RES1    0.0000
     22 H6         5.3649    0.4365    4.5514 H         1 RES1    0.0000
     23 C7         5.6278    1.7163    3.0241 C.ar      1 RES1    0.0000
     24 H7         5.0255    2.3577    3.3242 H         1 RES1    0.0000
     25 C8         7.0307    4.8067   -1.9023 C.ar      1 RES1    0.0000
     26 C9         6.7862    6.0173   -2.5928 C.ar      1 RES1    0.0000
     27 C10        7.4737    6.3519   -3.7583 C.ar      1 RES1    0.0000
     28 H8         7.3008    7.1550   -4.1939 H         1 RES1    0.0000
     29 C11        8.4056    5.4821   -4.2517 C.ar      1 RES1    0.0000
     30 C12        8.6766    4.2683   -3.6156 C.ar      1 RES1    0.0000
     31 H9         9.3065    3.6835   -3.9708 H         1 RES1    0.0000
     32 C13        8.0084    3.9457   -2.4663 C.ar      1 RES1    0.0000
     33 H10        8.2002    3.1401   -2.0423 H         1 RES1    0.0000
@<TRIPOS>BOND
     1    1    2 1
     2    3    4 1
     3    5   12 2
     4    6   12 2
     5    7   13 2
     6    8   13 2
     7    9   10 1
     8   10   11 1
     9   12   26 1
    10   13   29 1
    11   14    9 2
    12   15   14 1
    13   16   14 1
    14   17    1 1
    15   18    3 1
    16   19   18 ar
    17   20   19 1
    18   21   19 ar
    19   22   21 1
    20   23   16 ar
    21   24   23 1
    22   25   10 1
    23   26   25 ar
    24   27   26 ar
    25   28   27 1
    26   29   27 ar
    27   30   29 ar
    28   31   30 1
    29   32   25 ar
    30   33   32 1
    31   16   17 ar
    32   17   18 ar
    33   21   23 ar
    34   30   32 ar
@<TRIPOS>SUBSTRUCTURE
     1 RES1 1

@<TRIPOS>CRYSIN
   9.1580    6.2890   22.8440  90.0000  94.6690  90.0000 231 1

