# MOL2 file generated by ConQuest
# Please check atom types

@<TRIPOS>MOLECULE
RUGGIJ
    53    58     1
SMALL
NO_CHARGES
****
Generated from CSD

@<TRIPOS>ATOM
      1 N1         0.0000    0.0000    1.2725 N.2       1 RES1    0.0000
      2 O1        -0.4866   -0.0668    0.0527 O.3       1 RES1    0.0000
      3 C1        -0.1133    1.3381    1.9642 C.3       1 RES1    0.0000
      4 C2        -0.7084    2.3220    0.9470 C.3       1 RES1    0.0000
      5 C3         1.2773    1.9010    2.3168 C.3       1 RES1    0.0000
      6 C4        -1.0376    1.1425    3.1814 C.2       1 RES1    0.0000
      7 C5        -0.6714    0.3304    4.2445 C.2       1 RES1    0.0000
      8 C6        -1.6243    0.0203    5.2793 C.2       1 RES1    0.0000
      9 C7        -1.3679   -0.9016    6.3249 C.2       1 RES1    0.0000
     10 C8        -2.3160   -1.1962    7.2624 C.2       1 RES1    0.0000
     11 C9        -3.5635   -0.5784    7.2449 C.2       1 RES1    0.0000
     12 C10       -3.8616    0.3065    6.2493 C.2       1 RES1    0.0000
     13 C11       -2.9099    0.6202    5.2347 C.2       1 RES1    0.0000
     14 C12       -3.2176    1.4812    4.1743 C.2       1 RES1    0.0000
     15 C13       -2.3244    1.7173    3.1841 C.2       1 RES1    0.0000
     16 H1        -0.7859    3.1807    1.3455 H         1 RES1    0.0000
     17 H2        -0.1407    2.3745    0.1878 H         1 RES1    0.0000
     18 H3        -1.5683    2.0191    0.6795 H         1 RES1    0.0000
     19 H4         1.7054    1.3238    2.9369 H         1 RES1    0.0000
     20 H5         1.8032    1.9630    1.5279 H         1 RES1    0.0000
     21 H6         1.1819    2.7644    2.7004 H         1 RES1    0.0000
     22 H7        -0.5176   -1.3238    6.3749 H         1 RES1    0.0000
     23 H8        -2.1216   -1.8342    7.9392 H         1 RES1    0.0000
     24 H9        -4.2027   -0.7704    7.9203 H         1 RES1    0.0000
     25 H10       -4.7167    0.7203    6.2331 H         1 RES1    0.0000
     26 H11       -4.0668    1.9058    4.1486 H         1 RES1    0.0000
     27 H12       -2.5748    2.2898    2.4667 H         1 RES1    0.0000
     28 O1F        0.4866    0.0668    0.0527 O.3       1 RES1    0.0000
     29 C5F        0.6714   -0.3304    4.2445 C.2       1 RES1    0.0000
     30 C4F        1.0376   -1.1425    3.1814 C.2       1 RES1    0.0000
     31 C1F        0.1133   -1.3381    1.9642 C.3       1 RES1    0.0000
     32 C2F        0.7084   -2.3220    0.9470 C.3       1 RES1    0.0000
     33 H1F        0.7859   -3.1807    1.3455 H         1 RES1    0.0000
     34 H2F        0.1407   -2.3745    0.1878 H         1 RES1    0.0000
     35 H3F        1.5683   -2.0191    0.6795 H         1 RES1    0.0000
     36 C3F       -1.2773   -1.9010    2.3168 C.3       1 RES1    0.0000
     37 H4F       -1.7054   -1.3238    2.9369 H         1 RES1    0.0000
     38 H5F       -1.8032   -1.9630    1.5279 H         1 RES1    0.0000
     39 H6F       -1.1819   -2.7644    2.7004 H         1 RES1    0.0000
     40 C13F       2.3244   -1.7173    3.1841 C.2       1 RES1    0.0000
     41 C12F       3.2176   -1.4812    4.1743 C.2       1 RES1    0.0000
     42 C11F       2.9099   -0.6202    5.2347 C.2       1 RES1    0.0000
     43 C6F        1.6243   -0.0203    5.2793 C.2       1 RES1    0.0000
     44 C7F        1.3679    0.9016    6.3249 C.2       1 RES1    0.0000
     45 C8F        2.3160    1.1962    7.2624 C.2       1 RES1    0.0000
     46 C9F        3.5635    0.5784    7.2449 C.2       1 RES1    0.0000
     47 C10F       3.8616   -0.3065    6.2493 C.2       1 RES1    0.0000
     48 H10F       4.7167   -0.7203    6.2331 H         1 RES1    0.0000
     49 H9F        4.2027    0.7704    7.9203 H         1 RES1    0.0000
     50 H8F        2.1216    1.8342    7.9392 H         1 RES1    0.0000
     51 H7F        0.5176    1.3238    6.3749 H         1 RES1    0.0000
     52 H11F       4.0668   -1.9058    4.1486 H         1 RES1    0.0000
     53 H12F       2.5748   -2.2898    2.4667 H         1 RES1    0.0000
@<TRIPOS>BOND
     1    1    2 1
     2    2   28 1
     3    3    1 1
     4    4    3 1
     5    5    3 1
     6    6    3 1
     7    7    6 1
     8    8    7 1
     9    9    8 1
    10   10    9 1
    11   11   10 1
    12   12   11 1
    13   13    8 1
    14   14   13 1
    15   15    6 1
    16   16    4 1
    17   17    4 1
    18   18    4 1
    19   19    5 1
    20   20    5 1
    21   21    5 1
    22   22    9 1
    23   23   10 1
    24   24   11 1
    25   25   12 1
    26   26   14 1
    27   27   15 1
    28   28    1 1
    29   29    7 1
    30   30   29 1
    31   31    1 1
    32   32   31 1
    33   33   32 1
    34   34   32 1
    35   35   32 1
    36   36   31 1
    37   37   36 1
    38   38   36 1
    39   39   36 1
    40   40   30 1
    41   41   40 1
    42   42   41 1
    43   43   29 1
    44   44   43 1
    45   45   44 1
    46   46   45 1
    47   47   42 1
    48   48   47 1
    49   49   46 1
    50   50   45 1
    51   51   44 1
    52   52   41 1
    53   53   40 1
    54   12   13 1
    55   14   15 1
    56   30   31 1
    57   42   43 1
    58   46   47 1
@<TRIPOS>SUBSTRUCTURE
     1 RES1 1

@<TRIPOS>CRYSIN
  11.9260   11.9260   13.5090  90.0000  90.0000  90.0000  80 1

