# MOL2 file generated by ConQuest
# Please check atom types

@<TRIPOS>MOLECULE
RUGHIM
    48    49     1
SMALL
NO_CHARGES
****
Generated from CSD

@<TRIPOS>ATOM
      1 C1        10.0955    2.7627    3.8081 C.ar      1 RES1    0.0000
      2 C2        11.1647    2.6326    2.8072 C.ar      1 RES1    0.0000
      3 C3        11.7184    3.7771    2.2980 C.ar      1 RES1    0.0000
      4 H1        12.3735    3.7013    1.6140 H         1 RES1    0.0000
      5 C4        11.3541    5.0726    2.7502 C.ar      1 RES1    0.0000
      6 C5        10.4156    5.1844    3.8132 C.ar      1 RES1    0.0000
      7 H2        10.2087    6.0476    4.1499 H         1 RES1    0.0000
      8 C6         9.7989    4.0942    4.3706 C.ar      1 RES1    0.0000
      9 C7        11.9925    6.2724    2.1758 C.ar      1 RES1    0.0000
     10 C8        13.1871    6.1918    1.4373 C.ar      1 RES1    0.0000
     11 H3        13.5725    5.3406    1.2669 H         1 RES1    0.0000
     12 C9        13.8129    7.3266    0.9536 C.ar      1 RES1    0.0000
     13 H4        14.6157    7.2590    0.4510 H         1 RES1    0.0000
     14 C10       13.2464    8.5649    1.2167 C.ar      1 RES1    0.0000
     15 C11       12.0520    8.6937    1.9007 C.ar      1 RES1    0.0000
     16 H5        11.6672    9.5501    2.0451 H         1 RES1    0.0000
     17 C12       11.4280    7.5512    2.3714 C.ar      1 RES1    0.0000
     18 H6        10.6035    7.6290    2.8366 H         1 RES1    0.0000
     19 C13        8.8212    4.1891    5.5435 C.3       1 RES1    0.0000
     20 C14        9.3036    3.3032    6.7122 C.3       1 RES1    0.0000
     21 H7         9.3164    2.3661    6.4272 H         1 RES1    0.0000
     22 H8         8.6946    3.4050    7.4729 H         1 RES1    0.0000
     23 H9        10.2062    3.5762    6.9777 H         1 RES1    0.0000
     24 C15        8.7176    5.6242    6.0736 C.3       1 RES1    0.0000
     25 H10        9.5953    5.9173    6.3962 H         1 RES1    0.0000
     26 H11        8.0715    5.6553    6.8097 H         1 RES1    0.0000
     27 H12        8.4205    6.2175    5.3527 H         1 RES1    0.0000
     28 C16        7.4112    3.7517    5.0916 C.3       1 RES1    0.0000
     29 H13        7.1310    4.2951    4.3246 H         1 RES1    0.0000
     30 H14        6.7784    3.8764    5.8302 H         1 RES1    0.0000
     31 H15        7.4292    2.8059    4.8331 H         1 RES1    0.0000
     32 C17       11.6492    1.2355    2.4161 C.3       1 RES1    0.0000
     33 C18       10.5156    0.3804    1.8154 C.3       1 RES1    0.0000
     34 H16       10.1133    0.8559    1.0590 H         1 RES1    0.0000
     35 H17        9.8319    0.2173    2.4984 H         1 RES1    0.0000
     36 H18       10.8800   -0.4753    1.5079 H         1 RES1    0.0000
     37 C19       12.2158    0.5533    3.6746 C.3       1 RES1    0.0000
     38 H19       12.5124   -0.3529    3.4491 H         1 RES1    0.0000
     39 H20       11.5199    0.5069    4.3622 H         1 RES1    0.0000
     40 H21       12.9760    1.0718    4.0128 H         1 RES1    0.0000
     41 C20       12.7804    1.3042    1.3913 C.3       1 RES1    0.0000
     42 H22       12.4568    1.7407    0.5748 H         1 RES1    0.0000
     43 H23       13.0835    0.3963    1.1784 H         1 RES1    0.0000
     44 H24       13.5266    1.8197    1.7621 H         1 RES1    0.0000
     45 N1        13.9578    9.7832    0.7955 N.pl3     1 RES1    0.0000
     46 O1         9.4483    1.7593    4.1795 O.2       1 RES1    0.0000
     47 O2        14.9553    9.6602    0.0933 O.2       1 RES1    0.0000
     48 O3        13.5277   10.8655    1.1877 O.2       1 RES1    0.0000
@<TRIPOS>BOND
     1    1    2 ar
     2    2    3 ar
     3    3    4 1
     4    5    3 ar
     5    6    5 ar
     6    7    6 1
     7    8    1 ar
     8    9    5 1
     9   10    9 ar
    10   11   10 1
    11   12   10 ar
    12   13   12 1
    13   14   12 ar
    14   15   14 ar
    15   16   15 1
    16   17    9 ar
    17   18   17 1
    18   19    8 1
    19   20   19 1
    20   21   20 1
    21   22   20 1
    22   23   20 1
    23   24   19 1
    24   25   24 1
    25   26   24 1
    26   27   24 1
    27   28   19 1
    28   29   28 1
    29   30   28 1
    30   31   28 1
    31   32    2 1
    32   33   32 1
    33   34   33 1
    34   35   33 1
    35   36   33 1
    36   37   32 1
    37   38   37 1
    38   39   37 1
    39   40   37 1
    40   41   32 1
    41   42   41 1
    42   43   41 1
    43   44   41 1
    44   45   14 1
    45   46    1 1
    46   47   45 2
    47   48   45 2
    48    6    8 ar
    49   15   17 ar
@<TRIPOS>SUBSTRUCTURE
     1 RES1 1

@<TRIPOS>CRYSIN
  12.0741   13.1671   22.1093  90.0000  90.0000  90.0000  61 1

