# MOL2 file generated by ConQuest
# Please check atom types

@<TRIPOS>MOLECULE
RUGHAE
    49    50     1
SMALL
NO_CHARGES
****
Generated from CSD

@<TRIPOS>ATOM
      1 C1         8.6771   10.1648    1.1288 C.ar      1 RES1    0.0000
      2 C2         7.9072    8.9941    0.9709 C.ar      1 RES1    0.0000
      3 C3         6.5948    9.0308    1.4407 C.ar      1 RES1    0.0000
      4 H1         6.0498    8.2587    1.3390 H         1 RES1    0.0000
      5 C4         6.0541   10.1584    2.0536 C.ar      1 RES1    0.0000
      6 C5         6.8479   11.3009    2.1752 C.ar      1 RES1    0.0000
      7 H2         6.4772   12.0777    2.5770 H         1 RES1    0.0000
      8 C6         8.1672   11.3381    1.7261 C.ar      1 RES1    0.0000
      9 C7         4.6883   10.1111    2.6291 C.ar      1 RES1    0.0000
     10 C8         3.6849    9.3182    2.0574 C.ar      1 RES1    0.0000
     11 H3         3.8742    8.8223    1.2697 H         1 RES1    0.0000
     12 C9         2.4211    9.2454    2.6221 C.ar      1 RES1    0.0000
     13 H4         1.7473    8.7012    2.2317 H         1 RES1    0.0000
     14 C10        2.1593    9.9801    3.7653 C.ar      1 RES1    0.0000
     15 C11        3.1189   10.7829    4.3574 C.ar      1 RES1    0.0000
     16 H5         2.9172   11.2842    5.1390 H         1 RES1    0.0000
     17 C12        4.3800   10.8393    3.7871 C.ar      1 RES1    0.0000
     18 H6         5.0490   11.3819    4.1875 H         1 RES1    0.0000
     19 C13        9.0313   12.5962    1.9211 C.3       1 RES1    0.0000
     20 C14        8.2448   13.7372    2.5838 C.3       1 RES1    0.0000
     21 H7         7.4765   13.9730    2.0236 H         1 RES1    0.0000
     22 H8         8.8270   14.5193    2.6856 H         1 RES1    0.0000
     23 H9         7.9299   13.4481    3.4652 H         1 RES1    0.0000
     24 C15       10.2172   12.2663    2.8459 C.3       1 RES1    0.0000
     25 H10       10.7661   13.0676    2.9721 H         1 RES1    0.0000
     26 H11       10.7603   11.5579    2.4413 H         1 RES1    0.0000
     27 H12        9.8795   11.9628    3.7140 H         1 RES1    0.0000
     28 C16        9.5313   13.1320    0.5631 C.3       1 RES1    0.0000
     29 H13        8.7638   13.3789    0.0060 H         1 RES1    0.0000
     30 H14       10.0529   12.4369    0.1101 H         1 RES1    0.0000
     31 H15       10.0944   13.9201    0.7102 H         1 RES1    0.0000
     32 C17        8.4867    7.6836    0.3972 C.3       1 RES1    0.0000
     33 C18        9.5990    7.1653    1.3344 C.3       1 RES1    0.0000
     34 H16        9.2132    6.9423    2.2076 H         1 RES1    0.0000
     35 H17       10.2816    7.8599    1.4461 H         1 RES1    0.0000
     36 H18       10.0088    6.3654    0.9440 H         1 RES1    0.0000
     37 C19        9.0234    7.8515   -1.0397 C.3       1 RES1    0.0000
     38 H19        9.3728    6.9941   -1.3601 H         1 RES1    0.0000
     39 H20        9.7402    8.5191   -1.0450 H         1 RES1    0.0000
     40 H21        8.2972    8.1478   -1.6270 H         1 RES1    0.0000
     41 C20        7.4208    6.5796    0.3177 C.3       1 RES1    0.0000
     42 H22        6.6907    6.8721   -0.2669 H         1 RES1    0.0000
     43 H23        7.0691    6.4000    1.2139 H         1 RES1    0.0000
     44 H24        7.8226    5.7632   -0.0452 H         1 RES1    0.0000
     45 N1         0.8278    9.9031    4.3766 N.pl3     1 RES1    0.0000
     46 O1         9.9891   10.2223    0.7066 O.3       1 RES1    0.0000
     47 O2         0.0434    9.0600    3.9408 O.2       1 RES1    0.0000
     48 O3         0.5609   10.6806    5.2896 O.2       1 RES1    0.0000
     49 H25       10.2123    9.6107    0.4494 H         1 RES1    0.0000
@<TRIPOS>BOND
     1    1    2 ar
     2    2    3 ar
     3    3    4 1
     4    5    3 ar
     5    6    5 ar
     6    7    6 1
     7    8    1 ar
     8    9    5 1
     9   10    9 ar
    10   11   10 1
    11   12   10 ar
    12   13   12 1
    13   14   12 ar
    14   15   14 ar
    15   16   15 1
    16   17    9 ar
    17   18   17 1
    18   19    8 1
    19   20   19 1
    20   21   20 1
    21   22   20 1
    22   23   20 1
    23   24   19 1
    24   25   24 1
    25   26   24 1
    26   27   24 1
    27   28   19 1
    28   29   28 1
    29   30   28 1
    30   31   28 1
    31   32    2 1
    32   33   32 1
    33   34   33 1
    34   35   33 1
    35   36   33 1
    36   37   32 1
    37   38   37 1
    38   39   37 1
    39   40   37 1
    40   41   32 1
    41   42   41 1
    42   43   41 1
    43   44   41 1
    44   45   14 1
    45   46    1 1
    46   47   45 2
    47   48   45 2
    48   49   46 1
    49    6    8 ar
    50   15   17 ar
@<TRIPOS>SUBSTRUCTURE
     1 RES1 1

@<TRIPOS>CRYSIN
  11.2752   10.1733   15.1181  90.0000  94.1130  90.0000 231 1

