# MOL2 file generated by ConQuest
# Please check atom types

@<TRIPOS>MOLECULE
RUGKAG
    31    32     1
SMALL
NO_CHARGES
****
Generated from CSD

@<TRIPOS>ATOM
      1 N1         2.3069    2.7985   10.5563 N.2       1 RES1    0.0000
      2 N2         0.8235    6.0164    2.2971 N.3       1 RES1    0.0000
      3 O1         3.4057    3.5298    9.9557 O.3       1 RES1    0.0000
      4 O2         3.8806    4.5009    7.9967 O.2       1 RES1    0.0000
      5 C1         3.0504    3.9120    8.6694 C.2       1 RES1    0.0000
      6 C2         1.7000    3.4479    8.4413 C.2       1 RES1    0.0000
      7 C3         1.3566    2.7732    9.6791 C.2       1 RES1    0.0000
      8 C4         0.0921    2.0692    9.9912 C.3       1 RES1    0.0000
      9 H1         0.1475    1.6867   10.8708 H         1 RES1    0.0000
     10 H2        -0.0533    1.3712    9.3481 H         1 RES1    0.0000
     11 H3        -0.6377    2.6920    9.9581 H         1 RES1    0.0000
     12 C5         0.8450    3.5994    7.3867 C.2       1 RES1    0.0000
     13 H4         0.0226    3.1905    7.5345 H         1 RES1    0.0000
     14 C6         0.9152    4.2372    6.1134 C.ar      1 RES1    0.0000
     15 C7        -0.2214    4.1750    5.2835 C.ar      1 RES1    0.0000
     16 H5        -0.9744    3.7248    5.5920 H         1 RES1    0.0000
     17 C8        -0.2618    4.7497    4.0398 C.ar      1 RES1    0.0000
     18 H6        -1.0322    4.6787    3.5231 H         1 RES1    0.0000
     19 C9         0.8538    5.4460    3.5385 C.ar      1 RES1    0.0000
     20 C10        1.9886    5.5307    4.3743 C.ar      1 RES1    0.0000
     21 H7         2.7344    6.0009    4.0764 H         1 RES1    0.0000
     22 C11        2.0255    4.9404    5.6157 C.ar      1 RES1    0.0000
     23 H8         2.7954    5.0076    6.1323 H         1 RES1    0.0000
     24 C12        1.9690    6.7269    1.7509 C.3       1 RES1    0.0000
     25 H9         2.4285    7.1858    2.4579 H         1 RES1    0.0000
     26 H10        1.6688    7.3643    1.0983 H         1 RES1    0.0000
     27 H11        2.5662    6.1006    1.3348 H         1 RES1    0.0000
     28 C13       -0.3227    5.8332    1.4163 C.3       1 RES1    0.0000
     29 H12       -0.4453    4.8976    1.2414 H         1 RES1    0.0000
     30 H13       -0.1688    6.2962    0.5899 H         1 RES1    0.0000
     31 H14       -1.1100    6.1860    1.8384 H         1 RES1    0.0000
@<TRIPOS>BOND
     1    1    3 1
     2    2   19 1
     3    3    5 1
     4    4    5 2
     5    5    6 1
     6    6    7 1
     7    7    1 2
     8    8    7 1
     9    9    8 1
    10   10    8 1
    11   11    8 1
    12   12    6 2
    13   13   12 1
    14   14   12 1
    15   15   14 ar
    16   16   15 1
    17   17   15 ar
    18   18   17 1
    19   19   17 ar
    20   20   19 ar
    21   21   20 1
    22   22   14 ar
    23   23   22 1
    24   24    2 1
    25   25   24 1
    26   26   24 1
    27   27   24 1
    28   28    2 1
    29   29   28 1
    30   30   28 1
    31   31   28 1
    32   20   22 ar
@<TRIPOS>SUBSTRUCTURE
     1 RES1 1

@<TRIPOS>CRYSIN
   6.4201    7.8239   12.1901 100.2720  97.3190 101.4610   2 1

