# MOL2 file generated by ConQuest
# Please check atom types

@<TRIPOS>MOLECULE
RUGPAL
    46    49     1
SMALL
NO_CHARGES
****
Generated from CSD

@<TRIPOS>ATOM
      1 O1         3.4302   -1.6419    5.5473 O.3       1 RES1    0.0000
      2 O2         3.6379    2.1294    2.9228 O.2       1 RES1    0.0000
      3 O3         5.7070   -4.2353    5.2885 O.2       1 RES1    0.0000
      4 O4         4.0256   -3.9554    6.6473 O.2       1 RES1    0.0000
      5 N1         0.8528    1.2886    6.3969 N.pl3     1 RES1    0.0000
      6 N2         1.6800    0.2165    6.2566 N.2       1 RES1    0.0000
      7 N3         4.7331   -3.6027    5.7097 N.pl3     1 RES1    0.0000
      8 C1         0.3184    3.4539    2.6487 C.ar      1 RES1    0.0000
      9 H1        -0.1625    2.7665    3.0506 H         1 RES1    0.0000
     10 C2        -0.3488    4.4675    1.9634 C.ar      1 RES1    0.0000
     11 H2        -1.2766    4.4391    1.8990 H         1 RES1    0.0000
     12 C3         0.3419    5.5190    1.3746 C.ar      1 RES1    0.0000
     13 C4         1.7298    5.5381    1.4652 C.ar      1 RES1    0.0000
     14 H3         2.2070    6.2398    1.0836 H         1 RES1    0.0000
     15 C5         2.4096    4.5205    2.1198 C.ar      1 RES1    0.0000
     16 H4         3.3391    4.5354    2.1539 H         1 RES1    0.0000
     17 C6         1.7127    3.4760    2.7278 C.ar      1 RES1    0.0000
     18 C7         2.5280    2.3952    3.3712 C.2       1 RES1    0.0000
     19 C8         1.9903    1.7051    4.5520 C.2       1 RES1    0.0000
     20 C9         2.3807    0.4611    5.1481 C.2       1 RES1    0.0000
     21 C10        3.3679   -0.5283    4.7360 C.2       1 RES1    0.0000
     22 C11        4.3073   -0.6114    3.7495 C.2       1 RES1    0.0000
     23 H5         4.4602    0.0113    3.0760 H         1 RES1    0.0000
     24 C12        5.0069   -1.8313    3.9474 C.2       1 RES1    0.0000
     25 H6         5.7063   -2.1728    3.4386 H         1 RES1    0.0000
     26 C13        4.4364   -2.3858    5.0336 C.2       1 RES1    0.0000
     27 C14        1.0141    2.1887    5.4047 C.2       1 RES1    0.0000
     28 H7         0.5519    2.9904    5.3112 H         1 RES1    0.0000
     29 C15       -0.0117    1.3592    7.5333 C.ar      1 RES1    0.0000
     30 C16       -0.0642    0.2872    8.4143 C.ar      1 RES1    0.0000
     31 H8         0.4191   -0.4882    8.2410 H         1 RES1    0.0000
     32 C17       -0.8445    0.3866    9.5552 C.ar      1 RES1    0.0000
     33 H9        -0.8882   -0.3394   10.1349 H         1 RES1    0.0000
     34 C18       -1.5636    1.5364    9.8601 C.ar      1 RES1    0.0000
     35 C19       -1.5186    2.5852    8.9396 C.ar      1 RES1    0.0000
     36 H10       -2.0026    3.3602    9.1123 H         1 RES1    0.0000
     37 C20       -0.7700    2.5002    7.7732 C.ar      1 RES1    0.0000
     38 H11       -0.7761    3.1985    7.1594 H         1 RES1    0.0000
     39 C21       -0.3868    6.6143    0.6347 C.3       1 RES1    0.0000
     40 H12       -0.0493    7.4680    0.9140 H         1 RES1    0.0000
     41 H13       -1.3253    6.5622    0.8287 H         1 RES1    0.0000
     42 H14       -0.2487    6.5086   -0.3097 H         1 RES1    0.0000
     43 C22       -2.3447    1.6290   11.1499 C.3       1 RES1    0.0000
     44 H15       -1.8247    1.2574   11.8664 H         1 RES1    0.0000
     45 H16       -3.1660    1.1392   11.0631 H         1 RES1    0.0000
     46 H17       -2.5397    2.5499   11.3403 H         1 RES1    0.0000
@<TRIPOS>BOND
     1    1   21 1
     2    2   18 2
     3    3    7 2
     4    4    7 2
     5    5    6 1
     6    6   20 2
     7    7   26 1
     8    8    9 1
     9   10    8 ar
    10   11   10 1
    11   12   10 ar
    12   13   12 ar
    13   14   13 1
    14   15   13 ar
    15   16   15 1
    16   17    8 ar
    17   18   17 1
    18   19   18 1
    19   20   19 1
    20   21   20 1
    21   22   21 2
    22   23   22 1
    23   24   22 1
    24   25   24 1
    25   26    1 1
    26   27    5 1
    27   28   27 1
    28   29    5 1
    29   30   29 ar
    30   31   30 1
    31   32   30 ar
    32   33   32 1
    33   34   32 ar
    34   35   34 ar
    35   36   35 1
    36   37   29 ar
    37   38   37 1
    38   39   12 1
    39   40   39 1
    40   41   39 1
    41   42   39 1
    42   43   34 1
    43   44   43 1
    44   45   43 1
    45   46   43 1
    46   15   17 ar
    47   19   27 2
    48   24   26 2
    49   35   37 ar
@<TRIPOS>SUBSTRUCTURE
     1 RES1 1

@<TRIPOS>CRYSIN
   9.6398    9.9160   10.1815  88.0510  85.9300  70.4950   2 1

