# MOL2 file generated by ConQuest
# Please check atom types

@<TRIPOS>MOLECULE
RUGRER
    34    35     1
SMALL
NO_CHARGES
****
Generated from CSD

@<TRIPOS>ATOM
      1 C1         8.1239    1.4208    3.3580 C.2       1 RES1    0.0000
      2 H1         8.7708    2.0639    3.5393 H         1 RES1    0.0000
      3 O1         9.5903    0.1877    0.3470 O.2       1 RES1    0.0000
      4 C2         7.0069    1.3502    4.2968 C.ar      1 RES1    0.0000
      5 N1        12.2430    0.8081    2.4809 N.pl3     1 RES1    0.0000
      6 C3         4.8859    1.3473    6.1330 C.ar      1 RES1    0.0000
      7 C4         4.7419    0.7358    4.8802 C.ar      1 RES1    0.0000
      8 H2         3.9329    0.3389    4.6480 H         1 RES1    0.0000
      9 O2        11.5352   -0.1786    2.5594 O.2       1 RES1    0.0000
     10 C5         9.7906    3.3221    1.2321 C.ar      1 RES1    0.0000
     11 H3         8.9178    3.3691    0.9136 H         1 RES1    0.0000
     12 C6        10.3264    2.0856    1.5667 C.ar      1 RES1    0.0000
     13 C7        11.6372    2.0690    2.0377 C.ar      1 RES1    0.0000
     14 C8         5.7907    0.7201    3.9922 C.ar      1 RES1    0.0000
     15 H4         5.6927    0.2845    3.1763 H         1 RES1    0.0000
     16 C9        12.3917    3.2188    2.1629 C.ar      1 RES1    0.0000
     17 H5        13.2678    3.1771    2.4745 H         1 RES1    0.0000
     18 C10        8.3279    0.6713    2.2699 C.2       1 RES1    0.0000
     19 H6         7.7286   -0.0179    2.0933 H         1 RES1    0.0000
     20 C11       11.8251    4.4339    1.8190 C.ar      1 RES1    0.0000
     21 H7        12.3229    5.2161    1.8967 H         1 RES1    0.0000
     22 C12        7.1140    1.9852    5.5344 C.ar      1 RES1    0.0000
     23 H8         7.9014    2.4324    5.7461 H         1 RES1    0.0000
     24 O3        13.4313    0.8029    2.7761 O.2       1 RES1    0.0000
     25 C13        9.4417    0.8739    1.3397 C.2       1 RES1    0.0000
     26 C14       10.5287    4.4887    1.3629 C.ar      1 RES1    0.0000
     27 H9        10.1470    5.3078    1.1420 H         1 RES1    0.0000
     28 C15        6.0804    1.9683    6.4566 C.ar      1 RES1    0.0000
     29 H10        6.1882    2.3717    7.2874 H         1 RES1    0.0000
     30 O4         3.7936    1.2890    6.9418 O.3       1 RES1    0.0000
     31 C16        3.8625    1.8913    8.2289 C.3       1 RES1    0.0000
     32 H11        3.0247    1.7747    8.6819 H         1 RES1    0.0000
     33 H12        4.0472    2.8288    8.1344 H         1 RES1    0.0000
     34 H13        4.5621    1.4770    8.7394 H         1 RES1    0.0000
@<TRIPOS>BOND
     1    1    2 1
     2    3   25 2
     3    4    1 1
     4    5    9 2
     5    6    7 ar
     6    7    8 1
     7   10   11 1
     8   12   10 ar
     9   13    5 1
    10   14    4 ar
    11   15   14 1
    12   16   13 ar
    13   17   16 1
    14   18    1 2
    15   19   18 1
    16   20   16 ar
    17   21   20 1
    18   22    4 ar
    19   23   22 1
    20   24    5 2
    21   25   12 1
    22   26   10 ar
    23   27   26 1
    24   28    6 ar
    25   29   28 1
    26   30    6 1
    27   31   30 1
    28   32   31 1
    29   33   31 1
    30   34   31 1
    31    7   14 ar
    32   12   13 ar
    33   18   25 1
    34   20   26 ar
    35   22   28 ar
@<TRIPOS>SUBSTRUCTURE
     1 RES1 1

@<TRIPOS>CRYSIN
  11.5940    7.7736   15.1740  90.0000  94.5900  90.0000  14 1

