# MOL2 file generated by ConQuest
# Please check atom types

@<TRIPOS>MOLECULE
RUHHOR
    56    58     2
SMALL
NO_CHARGES
****
Generated from CSD

@<TRIPOS>ATOM
      1 O1         1.8790   -1.8058    9.8391 O.2       1 RES1    0.0000
      2 N1         1.2312   -0.9553    9.0585 N.pl3     1 RES1    0.0000
      3 C1         0.4865    0.0163    9.6530 C.ar      1 RES1    0.0000
      4 C2        -0.1489    0.9580    8.8632 C.ar      1 RES1    0.0000
      5 C3        -0.9416    2.0385    9.5429 C.2       1 RES1    0.0000
      6 O2        -1.0930    3.0686    8.7655 O.3       1 RES1    0.0000
      7 O3        -1.4190    1.9119   10.6322 O.2       1 RES1    0.0000
      8 H1        -1.5530    3.7313    9.2248 H         1 RES1    0.0000
      9 C4        -0.0298    0.8968    7.4913 C.ar      1 RES1    0.0000
     10 H2        -0.4609    1.5608    6.9010 H         1 RES1    0.0000
     11 C5         0.7116   -0.1143    6.9217 C.ar      1 RES1    0.0000
     12 H3         0.8497   -0.2000    5.8388 H         1 RES1    0.0000
     13 C6         1.3338   -1.0451    7.7158 C.ar      1 RES1    0.0000
     14 H4         1.8592   -1.8480    7.3084 H         1 RES1    0.0000
     15 O4        -1.3751    6.2815    4.5895 O.2       2 RES2    0.0000
     16 N2        -0.6627    7.0966    3.8392 N.pl3     2 RES2    0.0000
     17 C7         0.0455    8.0668    4.4690 C.ar      2 RES2    0.0000
     18 C8         0.7794    8.9650    3.6916 C.ar      2 RES2    0.0000
     19 C9         1.5704   10.0386    4.3671 C.2       2 RES2    0.0000
     20 O5         1.9030   10.9844    3.5625 O.3       2 RES2    0.0000
     21 H5         2.4425   11.7260    3.9784 H         2 RES2    0.0000
     22 O6         1.8476   10.0182    5.5187 O.2       2 RES2    0.0000
     23 C10        0.7587    8.8629    2.3135 C.ar      2 RES2    0.0000
     24 H6         1.1261    9.4889    1.7606 H         2 RES2    0.0000
     25 C11        0.0298    7.8518    1.7294 C.ar      2 RES2    0.0000
     26 H7        -0.0513    7.7402    0.8439 H         2 RES2    0.0000
     27 C12       -0.6793    6.9659    2.4922 C.ar      2 RES2    0.0000
     28 H8        -1.1691    6.2121    2.1721 H         2 RES2    0.0000
     29 C1B        0.4865   -0.0163   11.1330 C.ar      1 RES1    0.0000
     30 N1B        1.2312    0.9553   11.7275 N.pl3     1 RES1    0.0000
     31 O1B        1.8790    1.8058   10.9469 O.2       1 RES1    0.0000
     32 C6B        1.3338    1.0451   13.0702 C.ar      1 RES1    0.0000
     33 C5B        0.7116    0.1143   13.8643 C.ar      1 RES1    0.0000
     34 C4B       -0.0298   -0.8968   13.2947 C.ar      1 RES1    0.0000
     35 C2B       -0.1489   -0.9580   11.9228 C.ar      1 RES1    0.0000
     36 C3B       -0.9416   -2.0385   11.2431 C.2       1 RES1    0.0000
     37 O2B       -1.0930   -3.0686   12.0205 O.3       1 RES1    0.0000
     38 H1B       -1.5530   -3.7313   11.5612 H         1 RES1    0.0000
     39 O3B       -1.4190   -1.9119   10.1538 O.2       1 RES1    0.0000
     40 H2B       -0.4609   -1.5608   13.8850 H         1 RES1    0.0000
     41 H3B        0.8497    0.2000   14.9472 H         1 RES1    0.0000
     42 H4B        1.8592    1.8480   13.4776 H         1 RES1    0.0000
     43 C7C       -0.0455    8.0668    5.9240 C.ar      2 RES2    0.0000
     44 N2C        0.6627    7.0966    6.5538 N.pl3     2 RES2    0.0000
     45 O4C        1.3751    6.2815    5.8035 O.2       2 RES2    0.0000
     46 C12C       0.6793    6.9659    7.9008 C.ar      2 RES2    0.0000
     47 C11C      -0.0298    7.8518    8.6636 C.ar      2 RES2    0.0000
     48 C10C      -0.7587    8.8629    8.0795 C.ar      2 RES2    0.0000
     49 C8C       -0.7794    8.9650    6.7014 C.ar      2 RES2    0.0000
     50 C9C       -1.5704   10.0386    6.0259 C.2       2 RES2    0.0000
     51 O5C       -1.9030   10.9844    6.8305 O.3       2 RES2    0.0000
     52 H5C       -2.4425   11.7260    6.4146 H         2 RES2    0.0000
     53 O6C       -1.8476   10.0182    4.8743 O.2       2 RES2    0.0000
     54 H6C       -1.1261    9.4889    8.6324 H         2 RES2    0.0000
     55 H7C        0.0513    7.7402    9.5491 H         2 RES2    0.0000
     56 H8C        1.1691    6.2121    8.2209 H         2 RES2    0.0000
@<TRIPOS>BOND
     1    1    2 1
     2    2    3 ar
     3    3    4 ar
     4    4    5 1
     5    5    6 1
     6    6    8 1
     7    7    5 2
     8    9    4 ar
     9   10    9 1
    10   11    9 ar
    11   12   11 1
    12   13    2 ar
    13   14   13 1
    14   15   16 1
    15   16   17 ar
    16   17   18 ar
    17   18   19 1
    18   19   20 1
    19   20   21 1
    20   22   19 2
    21   23   18 ar
    22   24   23 1
    23   25   23 ar
    24   26   25 1
    25   27   16 ar
    26   28   27 1
    27   29    3 1
    28   30   29 ar
    29   31   30 1
    30   32   30 ar
    31   33   32 ar
    32   34   33 ar
    33   35   29 ar
    34   36   35 1
    35   37   36 1
    36   38   37 1
    37   39   36 2
    38   40   34 1
    39   41   33 1
    40   42   32 1
    41   43   17 1
    42   44   43 ar
    43   45   44 1
    44   46   44 ar
    45   47   46 ar
    46   48   47 ar
    47   49   43 ar
    48   50   49 1
    49   51   50 1
    50   52   51 1
    51   53   50 2
    52   54   48 1
    53   55   47 1
    54   56   46 1
    55   11   13 ar
    56   25   27 ar
    57   34   35 ar
    58   48   49 ar
@<TRIPOS>SUBSTRUCTURE
     1 RES1 1
     2 RES2 15

@<TRIPOS>CRYSIN
   8.2740   13.6080   20.7860  90.0000  90.0000  90.0000  20 1

