# MOL2 file generated by ConQuest
# Please check atom types

@<TRIPOS>MOLECULE
RUJHOV
    36    36     1
SMALL
NO_CHARGES
****
Generated from CSD

@<TRIPOS>ATOM
      1 N1         2.2729    3.0677    1.2832 N.2       1 RES1    0.0000
      2 N2         1.4526    3.3947    0.1893 N.2       1 RES1    0.0000
      3 N3        -0.5569    6.0564   -0.7209 N.2       1 RES1    0.0000
      4 O1         5.0545    2.3511    5.4013 O.3       1 RES1    0.0000
      5 O2         3.4896    3.3277    3.5931 O.3       1 RES1    0.0000
      6 H1         2.9987    3.5512    2.9761 H         1 RES1    0.0000
      7 O3        -1.3834    6.3347   -1.7992 O.3       1 RES1    0.0000
      8 H2        -1.7481    7.0601   -1.6839 H         1 RES1    0.0000
      9 C1         3.7098    1.3849    2.1758 C.ar      1 RES1    0.0000
     10 C2         4.2927    0.1295    2.0027 C.ar      1 RES1    0.0000
     11 H3         4.0896   -0.3701    1.2453 H         1 RES1    0.0000
     12 C3         5.1574   -0.3741    2.9318 C.ar      1 RES1    0.0000
     13 H4         5.5517   -1.2040    2.7926 H         1 RES1    0.0000
     14 C4         5.4512    0.3439    4.0782 C.ar      1 RES1    0.0000
     15 H5         6.0405   -0.0047    4.7081 H         1 RES1    0.0000
     16 C5         4.8708    1.5706    4.2852 C.ar      1 RES1    0.0000
     17 C6         4.0097    2.1089    3.3352 C.ar      1 RES1    0.0000
     18 C7         5.9050    1.8482    6.4388 C.3       1 RES1    0.0000
     19 H6         6.8268    1.8365    6.1369 H         1 RES1    0.0000
     20 H7         5.6471    0.9417    6.6704 H         1 RES1    0.0000
     21 C8         5.7673    2.7365    7.6204 C.3       1 RES1    0.0000
     22 H8         6.3309    2.4174    8.3283 H         1 RES1    0.0000
     23 H9         6.0291    3.6285    7.3822 H         1 RES1    0.0000
     24 H10        4.8537    2.7383    7.9145 H         1 RES1    0.0000
     25 C9         2.8165    1.9154    1.1712 C.2       1 RES1    0.0000
     26 H11        2.6307    1.4008    0.4177 H         1 RES1    0.0000
     27 C10        0.9184    4.5643    0.2694 C.2       1 RES1    0.0000
     28 C11        0.0490    4.9299   -0.8549 C.2       1 RES1    0.0000
     29 C12        1.1155    5.5270    1.3807 C.3       1 RES1    0.0000
     30 H12        0.6117    6.3246    1.2063 H         1 RES1    0.0000
     31 H13        0.8147    5.1323    2.2031 H         1 RES1    0.0000
     32 H14        2.0472    5.7460    1.4535 H         1 RES1    0.0000
     33 C13       -0.0940    4.0449   -2.0352 C.3       1 RES1    0.0000
     34 H15        0.4484    3.2630   -1.9155 H         1 RES1    0.0000
     35 H16       -1.0134    3.7854   -2.1315 H         1 RES1    0.0000
     36 H17        0.1899    4.5139   -2.8225 H         1 RES1    0.0000
@<TRIPOS>BOND
     1    1    2 1
     2    2   27 2
     3    3    7 1
     4    4   16 1
     5    5    6 1
     6    7    8 1
     7    9   10 ar
     8   10   11 1
     9   12   10 ar
    10   13   12 1
    11   14   12 ar
    12   15   14 1
    13   16   14 ar
    14   17    5 1
    15   18    4 1
    16   19   18 1
    17   20   18 1
    18   21   18 1
    19   22   21 1
    20   23   21 1
    21   24   21 1
    22   25    1 2
    23   26   25 1
    24   27   28 1
    25   28    3 2
    26   29   27 1
    27   30   29 1
    28   31   29 1
    29   32   29 1
    30   33   28 1
    31   34   33 1
    32   35   33 1
    33   36   33 1
    34    9   17 ar
    35    9   25 1
    36   16   17 ar
@<TRIPOS>SUBSTRUCTURE
     1 RES1 1

@<TRIPOS>CRYSIN
   4.4209   23.4245   13.6546  90.0000 107.6350  90.0000  14 1

