# MOL2 file generated by ConQuest
# Please check atom types

@<TRIPOS>MOLECULE
RUJHAG
    76    80     2
SMALL
NO_CHARGES
****
Generated from CSD

@<TRIPOS>ATOM
      1 O1         0.7051    0.0799   15.5852 O.3       1 RES1    0.0000
      2 H1         1.0175    0.8082   15.7944 H         1 RES1    0.0000
      3 O2         1.3104   -1.7185   17.7187 O.3       1 RES1    0.0000
      4 N1         1.8926   -1.8642   18.9891 N.2       1 RES1    0.0000
      5 C1         2.9181   -0.3363   14.6516 C.3       1 RES1    0.0000
      6 H2         3.6377   -0.9859   14.6395 H         1 RES1    0.0000
      7 H3         3.2537    0.4750   15.0621 H         1 RES1    0.0000
      8 C2         2.4851   -0.0359   13.2194 C.3       1 RES1    0.0000
      9 H4         1.8172    0.6683   13.2261 H         1 RES1    0.0000
     10 H5         3.2493    0.2788   12.7120 H         1 RES1    0.0000
     11 C3         1.9105   -1.2696   12.5539 C.3       1 RES1    0.0000
     12 H6         2.6005   -1.9466   12.4751 H         1 RES1    0.0000
     13 H7         1.6061   -1.0442   11.6620 H         1 RES1    0.0000
     14 C4         0.7413   -1.8216   13.3691 C.3       1 RES1    0.0000
     15 H8         0.0153   -1.1792   13.3634 H         1 RES1    0.0000
     16 H9         0.4201   -2.6392   12.9569 H         1 RES1    0.0000
     17 C5         1.1468   -2.1108   14.8107 C.3       1 RES1    0.0000
     18 H10        1.7898   -2.8373   14.8252 H         1 RES1    0.0000
     19 H11        0.3665   -2.3925   15.3125 H         1 RES1    0.0000
     20 C6         1.7609   -0.8794   15.4783 C.3       1 RES1    0.0000
     21 C7         2.2334   -1.2007   16.8731 C.2       1 RES1    0.0000
     22 C8         3.3923   -1.0142   17.5297 C.2       1 RES1    0.0000
     23 H12        4.1902   -0.6790   17.1889 H         1 RES1    0.0000
     24 C9         3.1267   -1.4434   18.8585 C.2       1 RES1    0.0000
     25 C10        4.0250   -1.3870   20.0268 C.ar      1 RES1    0.0000
     26 C11        5.1004   -0.5219   20.0303 C.ar      1 RES1    0.0000
     27 H13        5.2700    0.0029   19.2806 H         1 RES1    0.0000
     28 C12        5.9279   -0.4273   21.1341 C.ar      1 RES1    0.0000
     29 H14        6.6452    0.1642   21.1166 H         1 RES1    0.0000
     30 C13        5.7087   -1.1961   22.2631 C.ar      1 RES1    0.0000
     31 C14        4.6337   -2.0690   22.2551 C.ar      1 RES1    0.0000
     32 H15        4.4713   -2.6003   23.0010 H         1 RES1    0.0000
     33 C15        3.7958   -2.1672   21.1583 C.ar      1 RES1    0.0000
     34 H16        3.0764   -2.7567   21.1758 H         1 RES1    0.0000
     35 C16        6.6419   -1.0947   23.4509 C.3       1 RES1    0.0000
     36 H17        7.5500   -1.1870   23.1545 H         1 RES1    0.0000
     37 H18        6.4384   -1.7922   24.0779 H         1 RES1    0.0000
     38 H19        6.5292   -0.2399   23.8733 H         1 RES1    0.0000
     39 O3         1.5147    2.7156   16.0060 O.3       2 RES2    0.0000
     40 H20        0.9113    3.1249   15.6302 H         2 RES2    0.0000
     41 O4         4.1151    5.2041   15.9053 O.3       2 RES2    0.0000
     42 N2         4.7307    5.7464   14.7614 N.2       2 RES2    0.0000
     43 C17        3.3402    2.8489   17.5415 C.3       2 RES2    0.0000
     44 H21        3.7197    2.1030   17.0516 H         2 RES2    0.0000
     45 H22        4.0709    3.4172   17.8323 H         2 RES2    0.0000
     46 C18        2.5963    2.3220   18.7640 C.3       2 RES2    0.0000
     47 H23        1.9474    1.6581   18.4811 H         2 RES2    0.0000
     48 H24        3.2263    1.8883   19.3614 H         2 RES2    0.0000
     49 C19        1.8807    3.4377   19.5140 C.3       2 RES2    0.0000
     50 H25        1.3883    3.0627   20.2605 H         2 RES2    0.0000
     51 H26        2.5338    4.0622   19.8675 H         2 RES2    0.0000
     52 C20        0.9222    4.1725   18.5890 C.3       2 RES2    0.0000
     53 H27        0.2308    3.5629   18.2872 H         2 RES2    0.0000
     54 H28        0.4956    4.8966   19.0733 H         2 RES2    0.0000
     55 C21        1.6621    4.7301   17.3927 C.3       2 RES2    0.0000
     56 H29        2.2942    5.4017   17.6950 H         2 RES2    0.0000
     57 H30        1.0273    5.1637   16.8012 H         2 RES2    0.0000
     58 C22        2.4154    3.6469   16.6133 C.3       2 RES2    0.0000
     59 C23        3.2044    4.2932   15.5096 C.2       2 RES2    0.0000
     60 C24        3.1940    4.2252   14.1646 C.2       2 RES2    0.0000
     61 H31        2.6596    3.6834   13.6300 H         2 RES2    0.0000
     62 C25        4.1753    5.1590   13.7409 C.2       2 RES2    0.0000
     63 C26        4.5771    5.5230   12.3711 C.ar      2 RES2    0.0000
     64 C27        5.4582    6.5800   12.1539 C.ar      2 RES2    0.0000
     65 H32        5.7798    7.0754   12.8708 H         2 RES2    0.0000
     66 C28        5.8539    6.8889   10.8601 C.ar      2 RES2    0.0000
     67 H33        6.4406    7.5980   10.7252 H         2 RES2    0.0000
     68 C29        5.3991    6.1720    9.7633 C.ar      2 RES2    0.0000
     69 C30        4.4987    5.1793   10.0000 C.ar      2 RES2    0.0000
     70 H34        4.1486    4.7082    9.2769 H         2 RES2    0.0000
     71 C31        4.0830    4.8442   11.2830 C.ar      2 RES2    0.0000
     72 H35        3.4681    4.1574   11.4063 H         2 RES2    0.0000
     73 C32        5.8673    6.4877    8.3551 C.3       2 RES2    0.0000
     74 H36        6.3564    7.3134    8.3589 H         2 RES2    0.0000
     75 H37        5.1070    6.5674    7.7747 H         2 RES2    0.0000
     76 H38        6.4362    5.7806    8.0412 H         2 RES2    0.0000
@<TRIPOS>BOND
     1    1    2 1
     2    3    4 1
     3    4   24 2
     4    5    6 1
     5    7    5 1
     6    8    5 1
     7    9    8 1
     8   10    8 1
     9   11    8 1
    10   12   11 1
    11   13   11 1
    12   14   11 1
    13   15   14 1
    14   16   14 1
    15   17   14 1
    16   18   17 1
    17   19   17 1
    18   20    1 1
    19   21    3 1
    20   22   21 2
    21   23   22 1
    22   24   22 1
    23   25   24 1
    24   26   25 ar
    25   27   26 1
    26   28   26 ar
    27   29   28 1
    28   30   28 ar
    29   31   30 ar
    30   32   31 1
    31   33   25 ar
    32   34   33 1
    33   35   30 1
    34   36   35 1
    35   37   35 1
    36   38   35 1
    37   39   40 1
    38   41   42 1
    39   42   62 2
    40   43   44 1
    41   45   43 1
    42   46   43 1
    43   47   46 1
    44   48   46 1
    45   49   46 1
    46   50   49 1
    47   51   49 1
    48   52   49 1
    49   53   52 1
    50   54   52 1
    51   55   52 1
    52   56   55 1
    53   57   55 1
    54   58   39 1
    55   59   41 1
    56   60   59 2
    57   61   60 1
    58   62   60 1
    59   63   62 1
    60   64   63 ar
    61   65   64 1
    62   66   64 ar
    63   67   66 1
    64   68   66 ar
    65   69   68 ar
    66   70   69 1
    67   71   63 ar
    68   72   71 1
    69   73   68 1
    70   74   73 1
    71   75   73 1
    72   76   73 1
    73    5   20 1
    74   17   20 1
    75   20   21 1
    76   31   33 ar
    77   43   58 1
    78   55   58 1
    79   58   59 1
    80   69   71 ar
@<TRIPOS>SUBSTRUCTURE
     1 RES1 1
     2 RES2 39

@<TRIPOS>CRYSIN
  10.9404    9.7136   26.9207  90.0000  90.0000  90.0000  29 1

