# MOL2 file generated by ConQuest
# Please check atom types

@<TRIPOS>MOLECULE
RUJVUP
    71    74     1
SMALL
NO_CHARGES
****
Generated from CSD

@<TRIPOS>ATOM
      1 C1        -3.9598   18.1857    8.7256 C.ar      1 RES1    0.0000
      2 H1        -4.3705   17.9398    9.5228 H         1 RES1    0.0000
      3 C2        -4.7180   18.7255    7.7140 C.ar      1 RES1    0.0000
      4 H2        -5.6311   18.8517    7.8345 H         1 RES1    0.0000
      5 C3        -4.1319   19.0770    6.5344 C.ar      1 RES1    0.0000
      6 H3        -4.6478   19.4285    5.8462 H         1 RES1    0.0000
      7 C4        -2.7804   18.9119    6.3634 C.ar      1 RES1    0.0000
      8 H4        -2.3808   19.1654    5.5632 H         1 RES1    0.0000
      9 C5        -2.0129   18.3718    7.3744 C.ar      1 RES1    0.0000
     10 H5        -1.0984   18.2555    7.2491 H         1 RES1    0.0000
     11 C6        -2.5995   18.0022    8.5785 C.ar      1 RES1    0.0000
     12 C7        -1.8097   17.3524    9.6326 C.2       1 RES1    0.0000
     13 H6        -2.2319   16.6831   10.1203 H         1 RES1    0.0000
     14 C8        -0.5591   17.6269    9.9538 C.2       1 RES1    0.0000
     15 H7        -0.1562   18.3744    9.5736 H         1 RES1    0.0000
     16 C9         0.2365   16.7912   10.9015 C.3       1 RES1    0.0000
     17 H8        -0.3500   16.0868   11.2474 H         1 RES1    0.0000
     18 C10       -1.2083   17.1491   13.4108 C.ar      1 RES1    0.0000
     19 H9        -1.7160   17.0474   12.6382 H         1 RES1    0.0000
     20 C11       -1.8107   17.0046   14.6490 C.ar      1 RES1    0.0000
     21 H10       -2.7138   16.7863   14.7039 H         1 RES1    0.0000
     22 C12       -1.0817   17.1811   15.7940 C.ar      1 RES1    0.0000
     23 C13       -2.9475   16.6879   17.1827 C.3       1 RES1    0.0000
     24 H11       -3.4852   17.3650   16.7647 H         1 RES1    0.0000
     25 H12       -3.1813   16.6207   18.1120 H         1 RES1    0.0000
     26 H13       -3.1038   15.8452   16.7526 H         1 RES1    0.0000
     27 C14        0.2537   17.5119   15.7024 C.ar      1 RES1    0.0000
     28 H14        0.7435   17.6632   16.4769 H         1 RES1    0.0000
     29 C15        0.8689   17.6197   14.4765 C.ar      1 RES1    0.0000
     30 H15        1.7777   17.8112   14.4281 H         1 RES1    0.0000
     31 C16        0.1353   17.4416   13.3104 C.ar      1 RES1    0.0000
     32 C17        1.8901   18.2804   11.8415 C.2       1 RES1    0.0000
     33 H16        2.1204   18.8985   12.4979 H         1 RES1    0.0000
     34 C18        2.6856   18.1887   10.7634 C.2       1 RES1    0.0000
     35 C19        3.7347   19.1803   10.5356 C.2       1 RES1    0.0000
     36 C20        5.0341   20.9094   11.4927 C.3       1 RES1    0.0000
     37 H17        5.8418   20.5119   11.1579 H         1 RES1    0.0000
     38 H18        5.2060   21.3166   12.3456 H         1 RES1    0.0000
     39 H19        4.7277   21.5777   10.8749 H         1 RES1    0.0000
     40 C21        2.4874   17.1456    9.6866 C.3       1 RES1    0.0000
     41 H20        2.1229   17.5989    8.8988 H         1 RES1    0.0000
     42 C22        3.7919   16.4753    9.2703 C.ar      1 RES1    0.0000
     43 C23        4.7582   16.1336   10.2095 C.ar      1 RES1    0.0000
     44 H21        4.5945   16.2973   11.1095 H         1 RES1    0.0000
     45 C24        5.9496   15.5607    9.8351 C.ar      1 RES1    0.0000
     46 H22        6.5854   15.3230   10.4710 H         1 RES1    0.0000
     47 C25        6.1765   15.3489    8.4965 C.ar      1 RES1    0.0000
     48 C26        5.2429   15.6544    7.5377 C.ar      1 RES1    0.0000
     49 H23        5.4143   15.4886    6.6396 H         1 RES1    0.0000
     50 C27        4.0492   16.2113    7.9339 C.ar      1 RES1    0.0000
     51 H24        3.4041   16.4142    7.2951 H         1 RES1    0.0000
     52 C28        1.4372   16.0979   10.1556 C.3       1 RES1    0.0000
     53 C29        2.0186   15.1280   11.0979 C.1       1 RES1    0.0000
     54 C30        0.8240   15.3807    8.9370 C.2       1 RES1    0.0000
     55 C31       -0.5910   13.6171    8.2435 C.3       1 RES1    0.0000
     56 H25       -1.2546   14.2396    7.9046 H         1 RES1    0.0000
     57 H26       -0.0279   13.3355    7.5055 H         1 RES1    0.0000
     58 C32       -1.2413   12.4710    8.8397 C.3       1 RES1    0.0000
     59 H27       -0.5873   11.7962    9.0318 H         1 RES1    0.0000
     60 H28       -1.8940   12.1197    8.2288 H         1 RES1    0.0000
     61 H29       -1.6748   12.7373    9.6534 H         1 RES1    0.0000
     62 N1         2.4431   14.3967   11.8541 N.1       1 RES1    0.0000
     63 N2         7.4901   14.8224    8.0931 N.pl3     1 RES1    0.0000
     64 N3         0.7718   17.5340   12.0430 N.pl3     1 RES1    0.0000
     65 O1         4.0255   19.8924   11.6410 O.3       1 RES1    0.0000
     66 O2         4.2988   19.3566    9.4877 O.2       1 RES1    0.0000
     67 O3         0.8235   15.8380    7.8393 O.2       1 RES1    0.0000
     68 O4         0.2275   14.2652    9.2921 O.3       1 RES1    0.0000
     69 O5        -1.5760   17.0330   17.0639 O.3       1 RES1    0.0000
     70 O6         7.6486   14.5362    6.9393 O.2       1 RES1    0.0000
     71 O7         8.3415   14.6775    8.9367 O.2       1 RES1    0.0000
@<TRIPOS>BOND
     1    1    2 1
     2    3    1 ar
     3    4    3 1
     4    5    3 ar
     5    6    5 1
     6    7    5 ar
     7    8    7 1
     8    9    7 ar
     9   10    9 1
    10   11    1 ar
    11   12   11 1
    12   13   12 1
    13   14   12 2
    14   15   14 1
    15   16   14 1
    16   17   16 1
    17   18   19 1
    18   20   18 ar
    19   21   20 1
    20   22   20 ar
    21   23   24 1
    22   25   23 1
    23   26   23 1
    24   27   22 ar
    25   28   27 1
    26   29   27 ar
    27   30   29 1
    28   31   18 ar
    29   32   33 1
    30   34   32 2
    31   35   34 1
    32   36   37 1
    33   38   36 1
    34   39   36 1
    35   40   34 1
    36   41   40 1
    37   42   40 1
    38   43   42 ar
    39   44   43 1
    40   45   43 ar
    41   46   45 1
    42   47   45 ar
    43   48   47 ar
    44   49   48 1
    45   50   42 ar
    46   51   50 1
    47   52   16 1
    48   53   52 1
    49   54   52 1
    50   55   56 1
    51   57   55 1
    52   58   55 1
    53   59   58 1
    54   60   58 1
    55   61   58 1
    56   62   53 3
    57   63   47 1
    58   64   16 1
    59   65   35 1
    60   66   35 2
    61   67   54 2
    62   68   54 1
    63   69   22 1
    64   70   63 2
    65   71   63 2
    66    9   11 ar
    67   23   69 1
    68   29   31 ar
    69   31   64 1
    70   32   64 1
    71   36   65 1
    72   40   52 1
    73   48   50 ar
    74   55   68 1
@<TRIPOS>SUBSTRUCTURE
     1 RES1 1

@<TRIPOS>CRYSIN
  12.1099   19.4850   24.1880  90.0000  90.0000  90.0000  61 1

