# MOL2 file generated by ConQuest
# Please check atom types

@<TRIPOS>MOLECULE
RUKCUW
    92    93     2
SMALL
NO_CHARGES
****
Generated from CSD

@<TRIPOS>ATOM
      1 O1        15.3448    9.1726    4.4553 O.3       1 RES1    0.0000
      2 O2        14.1454   10.8603    5.1389 O.2       1 RES1    0.0000
      3 O3        24.7951    0.7961    3.4079 O.3       1 RES1    0.0000
      4 O4        25.1385    2.8491    4.1897 O.2       1 RES1    0.0000
      5 N1        15.3702    7.7357    4.4603 N.2       1 RES1    0.0000
      6 C1        18.8252    7.5919    3.1108 C.3       1 RES1    0.0000
      7 H1        19.5486    8.1763    3.3814 H         1 RES1    0.0000
      8 H2        18.8481    7.5314    2.1427 H         1 RES1    0.0000
      9 C2        17.6074    8.2531    3.6672 C.3       1 RES1    0.0000
     10 H3        17.3125    8.9592    3.0390 H         1 RES1    0.0000
     11 H4        17.8460    8.6928    4.5220 H         1 RES1    0.0000
     12 C3        17.3256    8.0218    3.0340 Du        2 SUP2    0.0000
     13 H5        17.2646    8.9854    3.2505 Du        2 SUP2    0.0000
     14 H6        17.0116    7.9049    2.1024 Du        2 SUP2    0.0000
     15 C4        16.4295    7.2911    3.9177 C.2       1 RES1    0.0000
     16 C5        16.5091    5.7579    3.8598 C.3       1 RES1    0.0000
     17 C6        17.9014    5.3075    3.3034 C.3       1 RES1    0.0000
     18 H7        17.8262    5.3983    2.3101 H         1 RES1    0.0000
     19 C7        18.1622    3.8217    3.5489 C.3       1 RES1    0.0000
     20 H8        18.3393    3.6713    4.5119 H         1 RES1    0.0000
     21 H9        17.3589    3.2986    3.2996 H         1 RES1    0.0000
     22 C8        19.3533    3.3493    2.7306 C.3       1 RES1    0.0000
     23 H10       19.1563    3.4801    1.7688 H         1 RES1    0.0000
     24 H11       19.4867    2.3800    2.8829 H         1 RES1    0.0000
     25 C9        20.6558    4.0979    3.0856 C.3       1 RES1    0.0000
     26 C10       20.3982    5.6312    2.9786 C.3       1 RES1    0.0000
     27 H12       20.2302    5.7898    2.0054 H         1 RES1    0.0000
     28 C11       19.1069    6.1861    3.6974 C.3       1 RES1    0.0000
     29 C12       21.6683    6.4379    3.2870 C.3       1 RES1    0.0000
     30 H13       21.4832    7.4015    3.1511 H         1 RES1    0.0000
     31 H14       21.9144    6.3063    4.2362 H         1 RES1    0.0000
     32 C13       22.8426    6.0194    2.3982 C.3       1 RES1    0.0000
     33 H15       22.6503    6.2760    1.4616 H         1 RES1    0.0000
     34 H16       23.6574    6.5033    2.6853 H         1 RES1    0.0000
     35 C14       23.1015    4.5164    2.4637 C.3       1 RES1    0.0000
     36 H17       23.2840    4.2990    3.4230 H         1 RES1    0.0000
     37 C15       21.8235    3.7122    2.0596 C.3       1 RES1    0.0000
     38 C16       22.1270    2.1822    2.0885 C.3       1 RES1    0.0000
     39 H18       22.2396    1.9010    3.0315 H         1 RES1    0.0000
     40 H19       21.3455    1.6983    1.7234 H         1 RES1    0.0000
     41 C17       23.3760    1.7629    1.2992 C.3       1 RES1    0.0000
     42 H20       23.5301    0.7903    1.4037 H         1 RES1    0.0000
     43 H21       23.2465    1.9574    0.3374 H         1 RES1    0.0000
     44 C18       24.5791    2.5385    1.8317 C.3       1 RES1    0.0000
     45 C19       24.3238    4.0489    1.6643 C.3       1 RES1    0.0000
     46 H22       24.0991    4.1911    0.7000 H         1 RES1    0.0000
     47 C20       25.6791    4.7338    1.8997 C.3       1 RES1    0.0000
     48 H23       25.7547    4.9594    2.8716 H         1 RES1    0.0000
     49 C21       25.9988    5.9802    1.0940 C.2       1 RES1    0.0000
     50 C22       26.7286    3.6059    1.5699 C.3       1 RES1    0.0000
     51 H24       27.3533    3.9083    0.8624 H         1 RES1    0.0000
     52 H25       27.2532    3.3730    2.3768 H         1 RES1    0.0000
     53 C23       25.9137    2.3963    1.0890 C.3       1 RES1    0.0000
     54 H26       25.7800    2.4266    0.1083 H         1 RES1    0.0000
     55 H27       26.3642    1.5480    1.3269 H         1 RES1    0.0000
     56 C24       16.1978    5.1915    5.2635 C.3       1 RES1    0.0000
     57 H28       15.3292    5.5307    5.5669 H         1 RES1    0.0000
     58 H29       16.8970    5.4726    5.8904 H         1 RES1    0.0000
     59 H30       16.1697    4.2132    5.2220 H         1 RES1    0.0000
     60 C25       15.4160    5.2626    2.9030 C.3       1 RES1    0.0000
     61 H31       15.5418    5.6737    2.0218 H         1 RES1    0.0000
     62 H32       14.5361    5.5111    3.2555 H         1 RES1    0.0000
     63 H33       15.4727    4.2876    2.8187 H         1 RES1    0.0000
     64 C26       19.2822    6.3398    5.2182 C.3       1 RES1    0.0000
     65 H34       19.2054    5.4612    5.6462 H         1 RES1    0.0000
     66 H35       18.5868    6.9356    5.5694 H         1 RES1    0.0000
     67 H36       20.1659    6.7190    5.4095 H         1 RES1    0.0000
     68 C27       21.0598    3.6795    4.5157 C.3       1 RES1    0.0000
     69 H37       20.2616    3.6484    5.0847 H         1 RES1    0.0000
     70 H38       21.6939    4.3309    4.8808 H         1 RES1    0.0000
     71 H39       21.4787    2.7935    4.4918 H         1 RES1    0.0000
     72 C28       21.4172    4.0407    0.6106 C.3       1 RES1    0.0000
     73 H40       22.1693    3.8601    0.0113 H         1 RES1    0.0000
     74 H41       21.1675    4.9863    0.5476 H         1 RES1    0.0000
     75 H42       20.6521    3.4841    0.3525 H         1 RES1    0.0000
     76 C29       24.8532    2.1217    3.2769 C.2       1 RES1    0.0000
     77 C30       25.3699    6.3717   -0.0063 C.2       1 RES1    0.0000
     78 H43       25.6516    7.1571   -0.4608 H         1 RES1    0.0000
     79 H44       24.6386    5.8666   -0.3399 H         1 RES1    0.0000
     80 C31       27.1492    6.7640    1.6290 C.3       1 RES1    0.0000
     81 H45       27.3627    7.4946    1.0109 H         1 RES1    0.0000
     82 H46       27.9282    6.1780    1.7209 H         1 RES1    0.0000
     83 H47       26.9131    7.1350    2.5040 H         1 RES1    0.0000
     84 C32       25.0960    0.2812    4.7385 C.3       1 RES1    0.0000
     85 H48       25.0364   -0.6972    4.7310 H         1 RES1    0.0000
     86 H49       24.4505    0.6416    5.3818 H         1 RES1    0.0000
     87 H50       26.0015    0.5525    4.9954 H         1 RES1    0.0000
     88 C33       14.2853    9.6785    5.1703 C.2       1 RES1    0.0000
     89 C34       13.4260    8.7369    5.8980 C.3       1 RES1    0.0000
     90 H51       12.8875    9.2257    6.5539 H         1 RES1    0.0000
     91 H52       13.9841    8.0757    6.3600 H         1 RES1    0.0000
     92 H53       12.8334    8.2792    5.2648 H         1 RES1    0.0000
@<TRIPOS>BOND
     1    1    5 1
     2    2   88 2
     3    3   76 1
     4    4   76 2
     5    5   15 2
     6    6    7 1
     7    8    6 1
     8    9    6 1
     9   10    9 1
    10   11    9 1
    11   15    9 1
    12   16   15 1
    13   17   16 1
    14   18   17 1
    15   19   17 1
    16   20   19 1
    17   21   19 1
    18   22   19 1
    19   23   22 1
    20   24   22 1
    21   25   22 1
    22   26   25 1
    23   27   26 1
    24   28    6 1
    25   29   26 1
    26   30   29 1
    27   31   29 1
    28   32   29 1
    29   33   32 1
    30   34   32 1
    31   35   32 1
    32   36   35 1
    33   37   25 1
    34   38   37 1
    35   39   38 1
    36   40   38 1
    37   41   38 1
    38   42   41 1
    39   43   41 1
    40   44   41 1
    41   45   35 1
    42   46   45 1
    43   47   45 1
    44   48   47 1
    45   49   47 1
    46   50   47 1
    47   51   50 1
    48   52   50 1
    49   53   44 1
    50   54   53 1
    51   55   53 1
    52   56   16 1
    53   57   56 1
    54   58   56 1
    55   59   56 1
    56   60   16 1
    57   61   60 1
    58   62   60 1
    59   63   60 1
    60   64   28 1
    61   65   64 1
    62   66   64 1
    63   67   64 1
    64   68   25 1
    65   69   68 1
    66   70   68 1
    67   71   68 1
    68   72   37 1
    69   73   72 1
    70   74   72 1
    71   75   72 1
    72   76   44 1
    73   77   49 2
    74   78   77 1
    75   79   77 1
    76   80   49 1
    77   81   80 1
    78   82   80 1
    79   83   80 1
    80   84    3 1
    81   85   84 1
    82   86   84 1
    83   87   84 1
    84   88    1 1
    85   89   88 1
    86   90   89 1
    87   91   89 1
    88   92   89 1
    89   17   28 1
    90   26   28 1
    91   35   37 1
    92   44   45 1
    93   50   53 1
@<TRIPOS>SUBSTRUCTURE
     1 RES1 1
     2 SUP2 12

@<TRIPOS>CRYSIN
  28.1390    8.1730   13.4350  90.0000 110.4400  90.0000   5 1

