# MOL2 file generated by ConQuest
# Please check atom types

@<TRIPOS>MOLECULE
RUKLUF
    86    90     2
SMALL
NO_CHARGES
****
Generated from CSD

@<TRIPOS>ATOM
      1 O1         9.5282    7.5461    2.9925 O.2       1 RES1    0.0000
      2 O2        11.4347    6.4058    2.9303 O.3       1 RES1    0.0000
      3 C1        11.2779    6.0496    4.3885 C.3       1 RES1    0.0000
      4 H1        12.1470    5.9932    4.8168 H         1 RES1    0.0000
      5 H2        10.7507    6.7229    4.8453 H         1 RES1    0.0000
      6 C2        10.6249    4.7990    4.4387 C.3       1 RES1    0.0000
      7 H3        10.5086    4.5350    5.3539 H         1 RES1    0.0000
      8 H4        11.1560    4.1429    3.9803 H         1 RES1    0.0000
      9 H5         9.7669    4.8692    4.0138 H         1 RES1    0.0000
     10 C3         8.4072   11.2388    1.7770 C.ar      1 RES1    0.0000
     11 C4         8.9184    9.3372    0.7158 C.ar      1 RES1    0.0000
     12 C5         6.7957    9.8592    1.0484 C.ar      1 RES1    0.0000
     13 N1         7.6624    8.9777    0.5250 N.ar      1 RES1    0.0000
     14 N2         7.0821   10.9747    1.6835 N.ar      1 RES1    0.0000
     15 N3         9.3796   10.4233    1.3080 N.ar      1 RES1    0.0000
     16 O3         5.5210    9.5121    0.8829 O.3       1 RES1    0.0000
     17 C6         9.9923    8.4152    0.2225 C.2       1 RES1    0.0000
     18 C7        10.7305    7.4666    0.9721 C.2       1 RES1    0.0000
     19 C8        11.6475    6.9863    0.0937 C.2       1 RES1    0.0000
     20 O4        11.4773    7.5793   -1.0890 O.3       1 RES1    0.0000
     21 N4        10.4030    8.5024   -1.0005 N.2       1 RES1    0.0000
     22 C9        12.7925    6.0452    0.1790 C.3       1 RES1    0.0000
     23 H6        13.2078    5.9677   -0.6843 H         1 RES1    0.0000
     24 H7        12.4783    5.1834    0.4601 H         1 RES1    0.0000
     25 H8        13.4327    6.3756    0.8131 H         1 RES1    0.0000
     26 C10       10.4760    7.1478    2.3775 C.2       1 RES1    0.0000
     27 C11        4.5164   10.3958    1.4121 C.3       1 RES1    0.0000
     28 H9         3.6450   10.0362    1.2281 H         1 RES1    0.0000
     29 H10        4.6006   11.2590    1.0022 H         1 RES1    0.0000
     30 H11        4.6323   10.4792    2.3624 H         1 RES1    0.0000
     31 N5         8.7803   12.3652    2.3653 N.3       1 RES1    0.0000
     32 C12        7.8549   13.3636    2.9028 C.3       1 RES1    0.0000
     33 H12        7.4726   13.0729    3.7444 H         1 RES1    0.0000
     34 H13        7.1397   13.5543    2.2754 H         1 RES1    0.0000
     35 C13       10.1830   12.7583    2.5314 C.3       1 RES1    0.0000
     36 H14       10.5911   12.9561    1.6748 H         1 RES1    0.0000
     37 H15       10.6893   12.0554    2.9664 H         1 RES1    0.0000
     38 C14        8.7579   14.5691    3.0936 C.3       1 RES1    0.0000
     39 H16        8.7831   15.1108    2.2888 H         1 RES1    0.0000
     40 H17        8.4486   15.1164    3.8314 H         1 RES1    0.0000
     41 C15       10.1216   13.9849    3.3914 C.3       1 RES1    0.0000
     42 H18       10.8254   14.6097    3.1555 H         1 RES1    0.0000
     43 H19       10.2035   13.7563    4.3300 H         1 RES1    0.0000
     44 N6         5.2641    1.7217    6.7653 N.ar      2 RES2    0.0000
     45 N7         6.2780    1.7594    8.9240 N.ar      2 RES2    0.0000
     46 N8         6.5399   -0.1484    7.4916 N.ar      2 RES2    0.0000
     47 C16        5.5563    2.2745    7.9377 C.ar      2 RES2    0.0000
     48 C17        5.7942    0.4927    6.6270 C.ar      2 RES2    0.0000
     49 C18        6.7559    0.5251    8.6491 C.ar      2 RES2    0.0000
     50 C19        4.9777    3.6288    8.1604 C.2       2 RES2    0.0000
     51 C20        4.3669    5.7278    8.0024 C.2       2 RES2    0.0000
     52 C21        5.2088    4.8217    7.4257 C.2       2 RES2    0.0000
     53 O5         3.6793    5.1336    8.9922 O.3       2 RES2    0.0000
     54 N9         4.0740    3.7894    9.0884 N.2       2 RES2    0.0000
     55 C22        4.0864    7.1730    7.8000 C.3       2 RES2    0.0000
     56 H20        4.1134    7.6250    8.6466 H         2 RES2    0.0000
     57 H21        3.2159    7.2784    7.4085 H         2 RES2    0.0000
     58 H22        4.7474    7.5481    7.2144 H         2 RES2    0.0000
     59 C23        6.2177    5.0275    6.3778 C.2       2 RES2    0.0000
     60 O6         7.1619    4.3016    6.2075 O.2       2 RES2    0.0000
     61 O7         5.9620    6.1122    5.6626 O.3       2 RES2    0.0000
     62 C24        6.9342    6.4853    4.6378 C.3       2 RES2    0.0000
     63 H23        7.7253    6.8629    5.0544 H         2 RES2    0.0000
     64 H24        7.1991    5.7012    4.1325 H         2 RES2    0.0000
     65 C25        6.3311    7.4525    3.7645 C.3       2 RES2    0.0000
     66 H25        6.9647    7.7149    3.0936 H         2 RES2    0.0000
     67 H26        6.0665    8.2216    4.2748 H         2 RES2    0.0000
     68 H27        5.5595    7.0658    3.3445 H         2 RES2    0.0000
     69 C26        6.0030   -1.3980    5.2033 C.3       2 RES2    0.0000
     70 H28        5.7134   -1.6879    4.3350 H         2 RES2    0.0000
     71 H29        5.6633   -1.9990    5.8709 H         2 RES2    0.0000
     72 H30        6.9628   -1.3938    5.2368 H         2 RES2    0.0000
     73 C27        8.0637   -1.4199    9.3978 C.3       2 RES2    0.0000
     74 H31        8.7632   -1.4192    8.7252 H         2 RES2    0.0000
     75 H32        7.3802   -2.0575    9.1418 H         2 RES2    0.0000
     76 C28        7.7879    0.4804   10.8919 C.3       2 RES2    0.0000
     77 H33        6.9720    0.6493   11.3888 H         2 RES2    0.0000
     78 H34        8.2925    1.3054   10.8182 H         2 RES2    0.0000
     79 C29        8.6069   -1.7321   10.7229 C.3       2 RES2    0.0000
     80 H35        8.0739   -2.4300   11.1344 H         2 RES2    0.0000
     81 H36        9.5151   -2.0605   10.6308 H         2 RES2    0.0000
     82 C30        8.6005   -0.5967   11.5343 C.3       2 RES2    0.0000
     83 H37        9.5095   -0.2860   11.6682 H         2 RES2    0.0000
     84 H38        8.2253   -0.8176   12.4010 H         2 RES2    0.0000
     85 N10        7.4991   -0.0867    9.5661 N.3       2 RES2    0.0000
     86 O8         5.5088   -0.0727    5.4561 O.3       2 RES2    0.0000
@<TRIPOS>BOND
     1    1   26 2
     2    2    3 1
     3    3    4 1
     4    5    3 1
     5    6    3 1
     6    7    6 1
     7    8    6 1
     8    9    6 1
     9   10   14 ar
    10   11   13 ar
    11   12   13 ar
    12   14   12 ar
    13   15   10 ar
    14   16   12 1
    15   17   11 1
    16   18   17 1
    17   19   18 2
    18   20   19 1
    19   21   17 2
    20   22   19 1
    21   23   22 1
    22   24   22 1
    23   25   22 1
    24   26    2 1
    25   27   16 1
    26   28   27 1
    27   29   27 1
    28   30   27 1
    29   31   10 1
    30   32   31 1
    31   33   32 1
    32   34   32 1
    33   35   31 1
    34   36   35 1
    35   37   35 1
    36   38   32 1
    37   39   38 1
    38   40   38 1
    39   41   35 1
    40   42   41 1
    41   43   41 1
    42   44   47 ar
    43   45   47 ar
    44   46   48 ar
    45   47   50 1
    46   48   44 ar
    47   49   45 ar
    48   50   52 1
    49   51   52 2
    50   52   59 1
    51   53   51 1
    52   54   50 2
    53   55   51 1
    54   56   55 1
    55   57   55 1
    56   58   55 1
    57   59   60 2
    58   61   59 1
    59   62   61 1
    60   63   62 1
    61   64   62 1
    62   65   62 1
    63   66   65 1
    64   67   65 1
    65   68   65 1
    66   69   70 1
    67   71   69 1
    68   72   69 1
    69   73   74 1
    70   75   73 1
    71   76   77 1
    72   78   76 1
    73   79   73 1
    74   80   79 1
    75   81   79 1
    76   82   76 1
    77   83   82 1
    78   84   82 1
    79   85   49 1
    80   86   48 1
    81   11   15 ar
    82   18   26 1
    83   20   21 1
    84   38   41 1
    85   46   49 ar
    86   53   54 1
    87   69   86 1
    88   73   85 1
    89   76   85 1
    90   79   82 1
@<TRIPOS>SUBSTRUCTURE
     1 RES1 1
     2 RES2 44

@<TRIPOS>CRYSIN
   8.6299   11.9384   16.7740  89.5040  85.9450  74.0570   2 1

