# MOL2 file generated by ConQuest
# Please check atom types

@<TRIPOS>MOLECULE
RULCUY
    39    40     1
SMALL
NO_CHARGES
****
Generated from CSD

@<TRIPOS>ATOM
      1 C1         3.2097    5.7646    1.8429 C.ar      1 RES1    0.0000
      2 H1         2.5272    5.9304    2.4534 H         1 RES1    0.0000
      3 C2         3.5319    4.4708    1.5056 C.ar      1 RES1    0.0000
      4 H2         3.0566    3.7571    1.8649 H         1 RES1    0.0000
      5 C3         4.5745    4.2463    0.6229 C.ar      1 RES1    0.0000
      6 H3         4.7990    3.3708    0.3996 H         1 RES1    0.0000
      7 C4         5.2789    5.2754    0.0738 C.ar      1 RES1    0.0000
      8 H4         5.9774    5.0937   -0.5118 H         1 RES1    0.0000
      9 C5         4.9624    6.5960    0.3805 C.ar      1 RES1    0.0000
     10 C6         5.7208    7.7240   -0.2338 C.3       1 RES1    0.0000
     11 H5         5.3916    7.8711   -1.1347 H         1 RES1    0.0000
     12 H6         6.6564    7.4768   -0.2980 H         1 RES1    0.0000
     13 C7         5.6057    9.0245    0.5510 C.3       1 RES1    0.0000
     14 H7         6.0810    8.9443    1.3934 H         1 RES1    0.0000
     15 H8         6.0027    9.7503    0.0460 H         1 RES1    0.0000
     16 C8         4.1361    9.3172    0.8127 C.3       1 RES1    0.0000
     17 H9         3.6792    9.3252   -0.0537 H         1 RES1    0.0000
     18 C9         3.5238    8.2119    1.6378 C.2       1 RES1    0.0000
     19 C10        3.9071    6.8272    1.2698 C.ar      1 RES1    0.0000
     20 N1         3.9370   10.6190    1.4231 N.am      1 RES1    0.0000
     21 C11        2.7459   11.2579    1.2986 C.2       1 RES1    0.0000
     22 C12        1.3798   13.0489    2.2799 C.3       1 RES1    0.0000
     23 C13        1.6227   13.8709    3.5267 C.3       1 RES1    0.0000
     24 H10        1.7193   13.2868    4.2819 H         1 RES1    0.0000
     25 H11        0.8792   14.4617    3.6704 H         1 RES1    0.0000
     26 H12        2.4248   14.3882    3.4174 H         1 RES1    0.0000
     27 C14        1.3833   13.9324    1.0628 C.3       1 RES1    0.0000
     28 H13        2.2165   14.4082    1.0158 H         1 RES1    0.0000
     29 H14        0.6594   14.5593    1.1203 H         1 RES1    0.0000
     30 H15        1.2786   13.3924    0.2760 H         1 RES1    0.0000
     31 C15        0.1393   12.2336    2.3987 C.3       1 RES1    0.0000
     32 H16       -0.0058   11.7511    1.5813 H         1 RES1    0.0000
     33 H17       -0.6088   12.8110    2.5664 H         1 RES1    0.0000
     34 H18        0.2336   11.6121    3.1242 H         1 RES1    0.0000
     35 O1         2.5871   12.1747    2.2463 O.3       1 RES1    0.0000
     36 O2         2.7551    8.4658    2.5386 O.2       1 RES1    0.0000
     37 O3         1.9817   11.0280    0.3757 O.2       1 RES1    0.0000
     38 O4         4.6931   10.7995    2.5990 O.3       1 RES1    0.0000
     39 H19        4.1545   10.7594    3.2775 H         1 RES1    0.0000
@<TRIPOS>BOND
     1    1    2 1
     2    3    1 ar
     3    4    3 1
     4    5    3 ar
     5    6    5 1
     6    7    5 ar
     7    8    7 1
     8    9    7 ar
     9   10    9 1
    10   11   10 1
    11   12   10 1
    12   13   10 1
    13   14   13 1
    14   15   13 1
    15   16   13 1
    16   17   16 1
    17   18   16 1
    18   19    1 ar
    19   20   16 1
    20   21   20 1
    21   22   23 1
    22   23   24 1
    23   25   23 1
    24   26   23 1
    25   27   22 1
    26   28   27 1
    27   29   27 1
    28   30   27 1
    29   31   22 1
    30   32   31 1
    31   33   31 1
    32   34   31 1
    33   35   21 1
    34   36   18 2
    35   37   21 2
    36   38   20 1
    37   39   38 1
    38    9   19 ar
    39   18   19 1
    40   22   35 1
@<TRIPOS>SUBSTRUCTURE
     1 RES1 1

@<TRIPOS>CRYSIN
  11.5083   13.3657    9.5834  90.0000  90.0000  90.0000  29 1

