# MOL2 file generated by ConQuest
# Please check atom types

@<TRIPOS>MOLECULE
RULHIR
    30    31     1
SMALL
NO_CHARGES
****
Generated from CSD

@<TRIPOS>ATOM
      1 O1         0.9434    8.5177    0.8316 O.3       1 RES1    0.0000
      2 N1        -0.4427    8.5156    0.6515 N.2       1 RES1    0.0000
      3 O2         0.7256   11.1122    2.2363 O.3       1 RES1    0.0000
      4 O3        -2.9712    8.4857    0.0806 O.3       1 RES1    0.0000
      5 C1        -1.2070    8.8875    1.6094 C.2       1 RES1    0.0000
      6 C2        -2.6809    8.8564    1.3243 C.2       1 RES1    0.0000
      7 O4         2.7373    6.8972    4.9828 O.2       1 RES1    0.0000
      8 C3         0.6720    9.8476    2.8899 C.3       1 RES1    0.0000
      9 O5        -3.4861    9.1508    2.1720 O.2       1 RES1    0.0000
     10 C4         1.4852    8.7920    2.1540 C.3       1 RES1    0.0000
     11 C5        -0.7826    9.3655    2.9638 C.3       1 RES1    0.0000
     12 C6         1.9447    9.1143    4.9129 C.2       1 RES1    0.0000
     13 C7         2.1621    7.7678    4.3547 C.2       1 RES1    0.0000
     14 C8         1.2495   10.0466    4.2653 C.2       1 RES1    0.0000
     15 C9         1.5952    7.5106    2.9674 C.3       1 RES1    0.0000
     16 C10       -4.4004    8.4368   -0.2360 C.3       1 RES1    0.0000
     17 C11       -4.5305    8.0976   -1.6830 C.3       1 RES1    0.0000
     18 H1         1.1149   10.8878    4.6741 H         1 RES1    0.0000
     19 H2        -1.3440   10.0875    3.2709 H         1 RES1    0.0000
     20 H3         2.1445    6.8666    2.5064 H         1 RES1    0.0000
     21 H4         2.3858    9.1489    1.9354 H         1 RES1    0.0000
     22 H5        -0.8915    8.6450    3.6096 H         1 RES1    0.0000
     23 H6         0.7015    7.1334    3.0870 H         1 RES1    0.0000
     24 H7         2.2906    9.2872    5.7773 H         1 RES1    0.0000
     25 H8        -5.4713    8.0621   -1.9161 H         1 RES1    0.0000
     26 H9        -4.8033    7.7657    0.3193 H         1 RES1    0.0000
     27 H10       -4.7666    9.2971   -0.0097 H         1 RES1    0.0000
     28 H11        0.8242   11.0360    1.3645 H         1 RES1    0.0000
     29 H12       -4.1371    8.8130   -2.2548 H         1 RES1    0.0000
     30 H13       -4.0913    7.1828   -1.8967 H         1 RES1    0.0000
@<TRIPOS>BOND
     1    1    2 1
     2    2    5 2
     3    3    8 1
     4    4    6 1
     5    5    6 1
     6    6    9 2
     7    7   13 2
     8    8   10 1
     9   10    1 1
    10   11    5 1
    11   12   13 1
    12   13   15 1
    13   14    8 1
    14   15   10 1
    15   16    4 1
    16   17   16 1
    17   18   14 1
    18   19   11 1
    19   20   15 1
    20   21   10 1
    21   22   11 1
    22   23   15 1
    23   24   12 1
    24   25   17 1
    25   26   16 1
    26   27   16 1
    27   28    3 1
    28   29   17 1
    29   30   17 1
    30    8   11 1
    31   12   14 2
@<TRIPOS>SUBSTRUCTURE
     1 RES1 1

@<TRIPOS>CRYSIN
  11.5420    9.8800    9.9960  90.0000 104.5100  90.0000  14 1

