# MOL2 file generated by ConQuest
# Please check atom types

@<TRIPOS>MOLECULE
RULHOX
    38    39     1
SMALL
NO_CHARGES
****
Generated from CSD

@<TRIPOS>ATOM
      1 O1         1.5588    0.5767    0.1898 O.3       1 RES1    0.0000
      2 O2         4.4220    2.0341    3.8199 O.3       1 RES1    0.0000
      3 N1         5.5912    2.7682    3.5235 N.2       1 RES1    0.0000
      4 O3        -0.1255    0.3905   -1.1221 O.3       1 RES1    0.0000
      5 O4         5.9332   -0.4682    3.3688 O.3       1 RES1    0.0000
      6 H1         5.5214   -1.1130    3.6632 H         1 RES1    0.0000
      7 O5         7.5380    4.3389    2.9166 O.3       1 RES1    0.0000
      8 C1         6.3158    2.3556    2.5379 C.2       1 RES1    0.0000
      9 C2         3.9828    0.9422    2.9750 C.3       1 RES1    0.0000
     10 C3         2.9878    1.3903    1.9243 C.3       1 RES1    0.0000
     11 C4         2.3392    0.1554    1.3482 C.3       1 RES1    0.0000
     12 C5         5.1467    0.1785    2.3533 C.3       1 RES1    0.0000
     13 C6         0.4940   -0.1813   -0.0745 C.2       1 RES1    0.0000
     14 C7         6.0878    1.1783    1.6733 C.3       1 RES1    0.0000
     15 H2         6.9362    0.7465    1.4847 H         1 RES1    0.0000
     16 H3         5.7016    1.4652    0.8301 H         1 RES1    0.0000
     17 O6         0.1449   -1.1591    0.5210 O.2       1 RES1    0.0000
     18 C8         4.6173   -0.8415    1.3698 C.2       1 RES1    0.0000
     19 C9         3.3669   -0.8559    0.9170 C.2       1 RES1    0.0000
     20 O7         8.4429    2.7787    1.5788 O.2       1 RES1    0.0000
     21 C10        7.5512    3.1855    2.2819 C.2       1 RES1    0.0000
     22 C11        8.7469    5.1784    2.7331 C.3       1 RES1    0.0000
     23 C12       -1.2831   -0.2984   -1.5683 C.3       1 RES1    0.0000
     24 H4        -1.6649    0.1670   -2.3147 H         1 RES1    0.0000
     25 H5        -1.9247   -0.3406   -0.8547 H         1 RES1    0.0000
     26 H6        -1.0428   -1.1888   -1.8341 H         1 RES1    0.0000
     27 C13        8.4526    6.5006    3.2859 C.3       1 RES1    0.0000
     28 H7         9.2214    7.0667    3.1875 H         1 RES1    0.0000
     29 H8         8.2343    6.4162    4.2177 H         1 RES1    0.0000
     30 H9         7.7085    6.8854    2.8167 H         1 RES1    0.0000
     31 H10        3.4464    1.7463    1.1976 H         1 RES1    0.0000
     32 H11        8.9342    5.4308    1.8210 H         1 RES1    0.0000
     33 H12        3.0311   -1.4584    0.3445 H         1 RES1    0.0000
     34 H13        9.4202    4.5288    3.3794 H         1 RES1    0.0000
     35 H14        2.2446    1.9958    2.3787 H         1 RES1    0.0000
     36 H15        3.5613    0.4893    3.6255 H         1 RES1    0.0000
     37 H16        5.2315   -1.3913    1.1812 H         1 RES1    0.0000
     38 H17        1.7144   -0.2974    2.0342 H         1 RES1    0.0000
@<TRIPOS>BOND
     1    1   11 1
     2    2    3 1
     3    3    8 2
     4    4   13 1
     5    5    6 1
     6    7   21 1
     7    8   14 1
     8    9    2 1
     9   10    9 1
    10   11   10 1
    11   12    5 1
    12   13    1 1
    13   14   12 1
    14   15   14 1
    15   16   14 1
    16   17   13 2
    17   18   12 1
    18   19   11 1
    19   20   21 2
    20   21    8 1
    21   22    7 1
    22   23    4 1
    23   24   23 1
    24   25   23 1
    25   26   23 1
    26   27   22 1
    27   28   27 1
    28   29   27 1
    29   30   27 1
    30   31   10 1
    31   32   22 1
    32   33   19 1
    33   34   22 1
    34   35   10 1
    35   36    9 1
    36   37   18 1
    37   38   11 1
    38    9   12 1
    39   18   19 2
@<TRIPOS>SUBSTRUCTURE
     1 RES1 1

@<TRIPOS>CRYSIN
   8.8370    9.5950   16.4050  90.0000  90.0000  90.0000  19 1

