# MOL2 file generated by ConQuest
# Please check atom types

@<TRIPOS>MOLECULE
RULLEP
    46    46     1
SMALL
NO_CHARGES
****
Generated from CSD

@<TRIPOS>ATOM
      1 O1         3.2669    2.9137    5.8370 O.2       1 RES1    0.0000
      2 O2         5.2204    2.5124    5.3804 O.2       1 RES1    0.0000
      3 O3         6.3580   -0.4998    5.3246 O.2       1 RES1    0.0000
      4 O4         5.2761   -1.9216    4.2295 O.2       1 RES1    0.0000
      5 O5         1.2233    4.5921    0.3760 O.2       1 RES1    0.0000
      6 O6         1.1064    2.7376   -0.6839 O.2       1 RES1    0.0000
      7 N1         5.1592    0.9996    2.6241 N.3       1 RES1    0.0000
      8 N2         2.2819    1.5531    2.0187 N.3       1 RES1    0.0000
      9 N3         4.1318    2.7421    5.0477 N.pl3     1 RES1    0.0000
     10 N4         6.0887   -1.0801    4.3142 N.pl3     1 RES1    0.0000
     11 N5         0.9261    3.4150    0.2851 N.pl3     1 RES1    0.0000
     12 C1         4.4724    0.4759    1.4649 C.3       1 RES1    0.0000
     13 C2         2.9864    0.3208    1.6406 C.3       1 RES1    0.0000
     14 C3         4.9544    2.4273    2.7377 C.3       1 RES1    0.0000
     15 C4         3.7601    2.8331    3.5601 C.3       1 RES1    0.0000
     16 C5         2.5635    1.8962    3.4196 C.3       1 RES1    0.0000
     17 C6         3.3994    4.2758    3.2956 C.3       1 RES1    0.0000
     18 C7         6.5795    0.6430    2.6613 C.3       1 RES1    0.0000
     19 C8         6.8333   -0.7430    3.0600 C.3       1 RES1    0.0000
     20 C9         8.3193   -1.0503    3.2667 C.3       1 RES1    0.0000
     21 C10        0.8382    1.4561    1.7707 C.3       1 RES1    0.0000
     22 C11        0.2338    2.7943    1.4835 C.3       1 RES1    0.0000
     23 C12       -1.2589    2.7153    1.1591 C.3       1 RES1    0.0000
     24 H1         4.6238    1.0667    0.7376 H         1 RES1    0.0000
     25 H2         4.8386   -0.3775    1.2624 H         1 RES1    0.0000
     26 H3         2.8351   -0.3282    2.3183 H         1 RES1    0.0000
     27 H4         2.6236    0.0090    0.8203 H         1 RES1    0.0000
     28 H5         5.7302    2.8078    3.1344 H         1 RES1    0.0000
     29 H6         4.8442    2.7794    1.8596 H         1 RES1    0.0000
     30 H7         1.7977    2.3229    3.7894 H         1 RES1    0.0000
     31 H8         2.7438    1.0980    3.9010 H         1 RES1    0.0000
     32 H9         4.1474    4.8308    3.4815 H         1 RES1    0.0000
     33 H10        3.1490    4.3787    2.3823 H         1 RES1    0.0000
     34 H11        2.6714    4.5294    3.8514 H         1 RES1    0.0000
     35 H12        6.9424    0.7758    1.7935 H         1 RES1    0.0000
     36 H13        7.0170    1.2159    3.2791 H         1 RES1    0.0000
     37 H14        6.5061   -1.3114    2.3699 H         1 RES1    0.0000
     38 H15        8.4161   -1.9738    3.5043 H         1 RES1    0.0000
     39 H16        8.7879   -0.8936    2.4567 H         1 RES1    0.0000
     40 H17        8.6644   -0.5102    3.9547 H         1 RES1    0.0000
     41 H18        0.6935    0.8892    1.0228 H         1 RES1    0.0000
     42 H19        0.4196    1.0876    2.5373 H         1 RES1    0.0000
     43 H20        0.3573    3.3613    2.2398 H         1 RES1    0.0000
     44 H21       -1.5951    3.5880    1.0000 H         1 RES1    0.0000
     45 H22       -1.3836    2.1812    0.3843 H         1 RES1    0.0000
     46 H23       -1.7197    2.3244    1.8906 H         1 RES1    0.0000
@<TRIPOS>BOND
     1    1    9 2
     2    2    9 2
     3    3   10 2
     4    4   10 2
     5    5   11 2
     6    6   11 2
     7    7   12 1
     8    8   13 1
     9    9   15 1
    10   10   19 1
    11   11   22 1
    12   12   13 1
    13   13   26 1
    14   14    7 1
    15   15   14 1
    16   16    8 1
    17   17   15 1
    18   18    7 1
    19   19   18 1
    20   20   19 1
    21   21    8 1
    22   22   21 1
    23   23   22 1
    24   24   12 1
    25   25   12 1
    26   27   13 1
    27   28   14 1
    28   29   14 1
    29   30   16 1
    30   31   16 1
    31   32   17 1
    32   33   17 1
    33   34   17 1
    34   35   18 1
    35   36   18 1
    36   37   19 1
    37   38   20 1
    38   39   20 1
    39   40   20 1
    40   41   21 1
    41   42   21 1
    42   43   22 1
    43   44   23 1
    44   45   23 1
    45   46   23 1
    46   15   16 1
@<TRIPOS>SUBSTRUCTURE
     1 RES1 1

@<TRIPOS>CRYSIN
  11.1310   14.9190   20.6620  90.0000  90.0000  90.0000  61 1

