# MOL2 file generated by ConQuest
# Please check atom types

@<TRIPOS>MOLECULE
RUMGUC
   100   106     2
SMALL
NO_CHARGES
****
Generated from CSD

@<TRIPOS>ATOM
      1 C1         8.7653   10.8950   -1.9309 C.ar      1 RES1    0.0000
      2 C2        10.1118   11.0945   -2.1404 C.ar      1 RES1    0.0000
      3 H1        10.4461   11.9658   -2.3138 H         1 RES1    0.0000
      4 C3        10.9650   10.0198   -2.0967 C.ar      1 RES1    0.0000
      5 H2        11.8941   10.1411   -2.2564 H         1 RES1    0.0000
      6 C4        10.4697    8.7682   -1.8210 C.ar      1 RES1    0.0000
      7 H3        11.0561    8.0212   -1.8046 H         1 RES1    0.0000
      8 C5         9.1252    8.5937   -1.5676 C.ar      1 RES1    0.0000
      9 H4         8.8057    7.7237   -1.3593 H         1 RES1    0.0000
     10 C6         8.2247    9.6476   -1.6064 C.ar      1 RES1    0.0000
     11 C7         6.7914    9.4053   -1.3100 C.2       1 RES1    0.0000
     12 H5         6.1736    9.4941   -2.0266 H         1 RES1    0.0000
     13 C8         6.3064    9.0725   -0.1132 C.2       1 RES1    0.0000
     14 C9         4.8567    8.7473    0.0192 C.2       1 RES1    0.0000
     15 C10        3.9039    9.0484   -1.1038 C.3       1 RES1    0.0000
     16 H6         3.0001    8.7695   -0.8488 H         1 RES1    0.0000
     17 H7         4.1821    8.5608   -1.9077 H         1 RES1    0.0000
     18 H8         3.9092   10.0113   -1.2875 H         1 RES1    0.0000
     19 C11        7.1298    8.9594    1.1618 C.3       1 RES1    0.0000
     20 H9         6.5141    8.9619    1.9365 H         1 RES1    0.0000
     21 H10        7.6006    8.0884    1.1569 H         1 RES1    0.0000
     22 C12        8.1479   10.0551    1.3533 C.2       1 RES1    0.0000
     23 C13        9.5598    9.8194    1.4353 C.ar      1 RES1    0.0000
     24 C14       10.3492    8.6694    1.4922 C.ar      1 RES1    0.0000
     25 H11        9.9475    7.8077    1.4808 H         1 RES1    0.0000
     26 C15       11.7184    8.8020    1.5651 C.ar      1 RES1    0.0000
     27 H12       12.2619    8.0231    1.6009 H         1 RES1    0.0000
     28 C16       12.3218   10.0618    1.5869 C.ar      1 RES1    0.0000
     29 H13       13.2680   10.1227    1.6440 H         1 RES1    0.0000
     30 C17       11.5765   11.2150    1.5272 C.ar      1 RES1    0.0000
     31 H14       11.9880   12.0716    1.5395 H         1 RES1    0.0000
     32 C18       10.1919   11.0753    1.4480 C.ar      1 RES1    0.0000
     33 C19        7.9614   11.4149    1.3681 C.2       1 RES1    0.0000
     34 C20        6.7618   12.2566    1.4276 C.ar      1 RES1    0.0000
     35 C21        5.5792   11.7777    1.9869 C.ar      1 RES1    0.0000
     36 H15        5.5244   10.8716    2.2655 H         1 RES1    0.0000
     37 C22        4.4812   12.6082    2.1403 C.ar      1 RES1    0.0000
     38 H16        3.6827   12.2675    2.5254 H         1 RES1    0.0000
     39 C23        4.5356   13.9208    1.7413 C.ar      1 RES1    0.0000
     40 H17        3.7800   14.4860    1.8503 H         1 RES1    0.0000
     41 C24        5.7014   14.4168    1.1774 C.ar      1 RES1    0.0000
     42 H18        5.7470   15.3248    0.9010 H         1 RES1    0.0000
     43 C25        6.7959   13.5906    1.0177 C.ar      1 RES1    0.0000
     44 H19        7.5872   13.9359    0.6216 H         1 RES1    0.0000
     45 C26        8.7136    6.8612    8.2369 C.ar      2 RES2    0.0000
     46 C27       10.0481    7.0597    8.5114 C.ar      2 RES2    0.0000
     47 H20       10.3654    7.9277    8.7292 H         2 RES2    0.0000
     48 C28       10.9188    5.9973    8.4688 C.ar      2 RES2    0.0000
     49 H21       11.8398    6.1250    8.6678 H         2 RES2    0.0000
     50 C29       10.4465    4.7483    8.1363 C.ar      2 RES2    0.0000
     51 H22       11.0448    4.0112    8.0972 H         2 RES2    0.0000
     52 C30        9.1060    4.5618    7.8583 C.ar      2 RES2    0.0000
     53 H23        8.7994    3.6916    7.6336 H         2 RES2    0.0000
     54 C31        8.1921    5.6086    7.8982 C.ar      2 RES2    0.0000
     55 C32        6.7644    5.3352    7.6225 C.2       2 RES2    0.0000
     56 H24        6.1518    5.4930    8.3309 H         2 RES2    0.0000
     57 C33        6.2582    4.8887    6.4745 C.2       2 RES2    0.0000
     58 C34        4.8020    4.5784    6.3968 C.2       2 RES2    0.0000
     59 C35        3.8565    5.0589    7.4671 C.3       2 RES2    0.0000
     60 H25        2.9464    4.7635    7.2549 H         2 RES2    0.0000
     61 H26        3.8811    6.0380    7.5096 H         2 RES2    0.0000
     62 H27        4.1275    4.6876    8.3322 H         2 RES2    0.0000
     63 C36        7.0493    4.6387    5.2077 C.3       2 RES2    0.0000
     64 H28        7.4948    3.7579    5.2858 H         2 RES2    0.0000
     65 H29        6.4153    4.5844    4.4488 H         2 RES2    0.0000
     66 C37        8.0957    5.6762    4.8817 C.2       2 RES2    0.0000
     67 C38        7.9554    7.0418    4.7854 C.2       2 RES2    0.0000
     68 C39        6.7823    7.9209    4.8446 C.ar      2 RES2    0.0000
     69 C40        5.5334    7.4925    4.4198 C.ar      2 RES2    0.0000
     70 H30        5.4210    6.6003    4.1119 H         2 RES2    0.0000
     71 C41        4.4533    8.3482    4.4395 C.ar      2 RES2    0.0000
     72 H31        3.6055    8.0402    4.1406 H         2 RES2    0.0000
     73 C42        4.5831    9.6377    4.8849 C.ar      2 RES2    0.0000
     74 H32        3.8346   10.2215    4.8915 H         2 RES2    0.0000
     75 C43        5.8145   10.0766    5.3233 C.ar      2 RES2    0.0000
     76 H33        5.9124   10.9650    5.6449 H         2 RES2    0.0000
     77 C44        6.9000    9.2340    5.2981 C.ar      2 RES2    0.0000
     78 H34        7.7448    9.5518    5.5940 H         2 RES2    0.0000
     79 C45       10.1572    6.6174    4.6092 C.ar      2 RES2    0.0000
     80 C46       11.5431    6.7136    4.5069 C.ar      2 RES2    0.0000
     81 H35       11.9752    7.5548    4.4122 H         2 RES2    0.0000
     82 C47       12.2569    5.5460    4.5487 C.ar      2 RES2    0.0000
     83 H36       13.2046    5.5791    4.4893 H         2 RES2    0.0000
     84 C48       11.6229    4.3083    4.6771 C.ar      2 RES2    0.0000
     85 H37       12.1465    3.5157    4.6969 H         2 RES2    0.0000
     86 C49       10.2525    4.2162    4.7749 C.ar      2 RES2    0.0000
     87 H38        9.8306    3.3686    4.8575 H         2 RES2    0.0000
     88 C50        9.4891    5.3914    4.7502 C.ar      2 RES2    0.0000
     89 N1         7.8927   12.0599   -2.0678 N.pl3     1 RES1    0.0000
     90 N2         9.2056   12.0249    1.3831 N.pl3     1 RES1    0.0000
     91 H39        9.3420   12.8943    1.3554 H         1 RES1    0.0000
     92 N3         7.8353    8.0333    8.2763 N.pl3     2 RES2    0.0000
     93 N4         9.2086    7.6030    4.6351 N.pl3     2 RES2    0.0000
     94 H40        9.3719    8.4644    4.5663 H         2 RES2    0.0000
     95 O1         8.3655   13.1750   -1.9028 O.2       1 RES1    0.0000
     96 O2         6.7238   11.8816   -2.3757 O.2       1 RES1    0.0000
     97 O3         4.4399    8.2357    1.0393 O.2       1 RES1    0.0000
     98 O4         6.6238    7.8651    8.3206 O.2       2 RES2    0.0000
     99 O5         8.3494    9.1448    8.2622 O.2       2 RES2    0.0000
    100 O6         4.3666    3.9432    5.4563 O.2       2 RES2    0.0000
@<TRIPOS>BOND
     1    1    2 ar
     2    2    3 1
     3    4    2 ar
     4    5    4 1
     5    6    4 ar
     6    7    6 1
     7    8    6 ar
     8    9    8 1
     9   10    1 ar
    10   11   10 1
    11   12   11 1
    12   13   11 2
    13   14   13 1
    14   15   14 1
    15   16   15 1
    16   17   15 1
    17   18   15 1
    18   19   13 1
    19   20   19 1
    20   21   19 1
    21   22   19 1
    22   23   22 1
    23   24   23 ar
    24   25   24 1
    25   26   24 ar
    26   27   26 1
    27   28   26 ar
    28   29   28 1
    29   30   28 ar
    30   31   30 1
    31   32   23 ar
    32   33   22 2
    33   34   33 1
    34   35   34 ar
    35   36   35 1
    36   37   35 ar
    37   38   37 1
    38   39   37 ar
    39   40   39 1
    40   41   39 ar
    41   42   41 1
    42   43   34 ar
    43   44   43 1
    44   45   46 ar
    45   46   47 1
    46   48   46 ar
    47   49   48 1
    48   50   48 ar
    49   51   50 1
    50   52   50 ar
    51   53   52 1
    52   54   45 ar
    53   55   54 1
    54   56   55 1
    55   57   55 2
    56   58   57 1
    57   59   58 1
    58   60   59 1
    59   61   59 1
    60   62   59 1
    61   63   57 1
    62   64   63 1
    63   65   63 1
    64   66   63 1
    65   67   66 2
    66   68   67 1
    67   69   68 ar
    68   70   69 1
    69   71   69 ar
    70   72   71 1
    71   73   71 ar
    72   74   73 1
    73   75   73 ar
    74   76   75 1
    75   77   68 ar
    76   78   77 1
    77   79   80 ar
    78   80   81 1
    79   82   80 ar
    80   83   82 1
    81   84   82 ar
    82   85   84 1
    83   86   84 ar
    84   87   86 1
    85   88   66 1
    86   89    1 1
    87   90   32 1
    88   91   90 1
    89   92   45 1
    90   93   67 1
    91   94   93 1
    92   95   89 2
    93   96   89 2
    94   97   14 2
    95   98   92 2
    96   99   92 2
    97  100   58 2
    98    8   10 ar
    99   30   32 ar
   100   33   90 1
   101   41   43 ar
   102   52   54 ar
   103   75   77 ar
   104   79   88 ar
   105   79   93 1
   106   86   88 ar
@<TRIPOS>SUBSTRUCTURE
     1 RES1 1
     2 RES2 45

@<TRIPOS>CRYSIN
  10.7195   14.4598   14.7384  64.1320  73.9800  73.2870   2 1

