# MOL2 file generated by ConQuest
# Please check atom types

@<TRIPOS>MOLECULE
RUPCEL
    88    92     2
SMALL
NO_CHARGES
****
Generated from CSD

@<TRIPOS>ATOM
      1 O1         0.3112    9.2810    3.4070 O.3       1 RES1    0.0000
      2 O2         2.6012    7.1311    6.0569 O.2       1 RES1    0.0000
      3 O3         2.3868    5.5329    4.6065 O.2       1 RES1    0.0000
      4 O4         3.5104   11.3524    7.7805 O.3       1 RES1    0.0000
      5 O5         2.2125    9.6201    8.3713 O.2       1 RES1    0.0000
      6 O6         3.4247    9.8638    3.9370 O.2       1 RES1    0.0000
      7 N1         0.3194    8.3079    2.3619 N.2       1 RES1    0.0000
      8 N2         2.1530    6.6804    4.9925 N.pl3     1 RES1    0.0000
      9 C1        -0.4730   14.3345    7.7271 C.ar      1 RES1    0.0000
     10 C2         0.2324   14.5830    6.5498 C.ar      1 RES1    0.0000
     11 H1         0.3235   15.4741    6.2306 H         1 RES1    0.0000
     12 C3        -0.5905   13.0211    8.1501 C.ar      1 RES1    0.0000
     13 H2        -1.0540   12.8390    8.9592 H         1 RES1    0.0000
     14 C4        -0.0561   11.9637    7.4346 C.ar      1 RES1    0.0000
     15 H3        -0.1853   11.0728    7.7360 H         1 RES1    0.0000
     16 C5         0.6773   12.2067    6.2618 C.ar      1 RES1    0.0000
     17 C6         0.8083   13.5241    5.8328 C.ar      1 RES1    0.0000
     18 H4         1.2976   13.7090    5.0400 H         1 RES1    0.0000
     19 C7         1.3161   11.1402    5.4661 C.3       1 RES1    0.0000
     20 H5         1.4699   11.3986    4.5115 H         1 RES1    0.0000
     21 C8         2.4406   10.2201    6.0421 C.3       1 RES1    0.0000
     22 C9         1.0823    9.6626    5.6472 C.3       1 RES1    0.0000
     23 H6         0.4860    9.4176    6.4117 H         1 RES1    0.0000
     24 C10        0.9655    8.8009    4.4700 C.2       1 RES1    0.0000
     25 C11        1.3756    7.5279    4.1701 C.2       1 RES1    0.0000
     26 C12        3.6040    9.9270    5.1336 C.2       1 RES1    0.0000
     27 C13        1.1693    6.0849    1.9655 C.3       1 RES1    0.0000
     28 H7         0.7630    6.2440    1.0882 H         1 RES1    0.0000
     29 H8         0.7541    5.2993    2.3797 H         1 RES1    0.0000
     30 H9         2.1303    5.9266    1.8572 H         1 RES1    0.0000
     31 C14        0.9584    7.2683    2.8325 C.2       1 RES1    0.0000
     32 C15        2.6869   10.3337    7.5252 C.2       1 RES1    0.0000
     33 C16       -1.0635   15.4803    8.5302 C.3       1 RES1    0.0000
     34 H10       -0.3956   15.8102    9.1671 H         1 RES1    0.0000
     35 H11       -1.8525   15.1649    9.0186 H         1 RES1    0.0000
     36 H12       -1.3227   16.2050    7.9230 H         1 RES1    0.0000
     37 C17        4.9649    9.6623    5.7392 C.3       1 RES1    0.0000
     38 H13        5.5579    9.2843    5.0564 H         1 RES1    0.0000
     39 H14        4.8746    9.0297    6.4815 H         1 RES1    0.0000
     40 H15        5.3437   10.5029    6.0718 H         1 RES1    0.0000
     41 C18        3.8833   11.5331    9.1537 C.3       1 RES1    0.0000
     42 H16        3.0777   11.5408    9.7119 H         1 RES1    0.0000
     43 H17        4.3584   12.3840    9.2546 H         1 RES1    0.0000
     44 H18        4.4670   10.7978    9.4328 H         1 RES1    0.0000
     45 O7         3.7262   17.3976    3.1695 O.2       2 RES2    0.0000
     46 O8         4.9141   15.6514    2.6618 O.2       2 RES2    0.0000
     47 O9         1.2392   14.0638    1.6167 O.3       2 RES2    0.0000
     48 O10        6.1989   13.3141    0.1217 O.2       2 RES2    0.0000
     49 O11        6.4951   11.4538    1.3584 O.3       2 RES2    0.0000
     50 O12        3.5388   12.9551    3.8940 O.2       2 RES2    0.0000
     51 N3         3.8403   16.2427    2.7657 N.pl3     2 RES2    0.0000
     52 N4         0.4543   15.0542    2.2728 N.2       2 RES2    0.0000
     53 C19        3.1769    9.6332    0.4661 C.ar      2 RES2    0.0000
     54 H19        2.8559    9.4276    1.3361 H         2 RES2    0.0000
     55 C20        3.3385    8.6112   -0.4632 C.ar      2 RES2    0.0000
     56 H20        3.1041    7.7211   -0.2271 H         2 RES2    0.0000
     57 C21        3.8418    8.8759   -1.7384 C.ar      2 RES2    0.0000
     58 C22        4.1436   10.1909   -2.0442 C.ar      2 RES2    0.0000
     59 H21        4.4903   10.3912   -2.9067 H         2 RES2    0.0000
     60 C23        3.9604   11.2331   -1.1416 C.ar      2 RES2    0.0000
     61 H22        4.1617   12.1278   -1.3940 H         2 RES2    0.0000
     62 C24        3.4765   10.9544    0.1440 C.ar      2 RES2    0.0000
     63 C25        4.5710   12.7326    1.7904 C.3       2 RES2    0.0000
     64 C26        3.4775   13.4688    1.0258 C.3       2 RES2    0.0000
     65 H23        3.7301   13.7548    0.1009 H         2 RES2    0.0000
     66 C27        3.3369   11.9768    1.2129 C.3       2 RES2    0.0000
     67 H24        2.6649   11.7282    1.9106 H         2 RES2    0.0000
     68 C28        2.6405   15.5384    2.4109 C.2       2 RES2    0.0000
     69 C29        2.5451   14.3686    1.7191 C.2       2 RES2    0.0000
     70 C30        0.7984   17.1022    3.5317 C.3       2 RES2    0.0000
     71 H25       -0.1658   17.0036    3.6772 H         2 RES2    0.0000
     72 H26        0.9713   17.9273    3.0329 H         2 RES2    0.0000
     73 H27        1.2583   17.1395    4.3957 H         2 RES2    0.0000
     74 C31        1.3087   15.9249    2.7434 C.2       2 RES2    0.0000
     75 C32        4.5937   12.8564    3.2912 C.2       2 RES2    0.0000
     76 C33        5.8307   12.5622    1.0095 C.2       2 RES2    0.0000
     77 C34        5.9171   12.8576    3.9756 C.3       2 RES2    0.0000
     78 H28        5.7877   13.0063    4.9361 H         2 RES2    0.0000
     79 H29        6.4753   13.5740    3.6060 H         2 RES2    0.0000
     80 H30        6.3584   11.9948    3.8361 H         2 RES2    0.0000
     81 C35        4.0695    7.7535   -2.7182 C.3       2 RES2    0.0000
     82 H31        3.6672    7.9863   -3.5822 H         2 RES2    0.0000
     83 H32        3.6560    6.9325   -2.3768 H         2 RES2    0.0000
     84 H33        5.0316    7.6109   -2.8340 H         2 RES2    0.0000
     85 C36        7.6525   11.1734    0.5567 C.3       2 RES2    0.0000
     86 H34        7.3918   11.1239   -0.3875 H         2 RES2    0.0000
     87 H35        8.0404   10.3162    0.8328 H         2 RES2    0.0000
     88 H36        8.3139   11.8863    0.6770 H         2 RES2    0.0000
@<TRIPOS>BOND
     1    1    7 1
     2    2    8 2
     3    3    8 2
     4    4   32 1
     5    5   32 2
     6    6   26 2
     7    7   31 2
     8    8   25 1
     9    9   10 ar
    10   10   11 1
    11   12    9 ar
    12   13   12 1
    13   14   12 ar
    14   15   14 1
    15   16   14 ar
    16   17   10 ar
    17   18   17 1
    18   19   16 1
    19   20   19 1
    20   21   19 1
    21   22   19 1
    22   23   22 1
    23   24    1 1
    24   25   24 2
    25   26   21 1
    26   27   28 1
    27   29   27 1
    28   30   27 1
    29   31   25 1
    30   32   21 1
    31   33    9 1
    32   34   33 1
    33   35   33 1
    34   36   33 1
    35   37   26 1
    36   38   37 1
    37   39   37 1
    38   40   37 1
    39   41    4 1
    40   42   41 1
    41   43   41 1
    42   44   41 1
    43   45   51 2
    44   46   51 2
    45   47   52 1
    46   48   76 2
    47   49   76 1
    48   50   75 2
    49   51   68 1
    50   52   74 2
    51   53   54 1
    52   55   53 ar
    53   56   55 1
    54   57   55 ar
    55   58   57 ar
    56   59   58 1
    57   60   58 ar
    58   61   60 1
    59   62   53 ar
    60   63   64 1
    61   64   65 1
    62   66   62 1
    63   67   66 1
    64   68   69 2
    65   69   47 1
    66   70   71 1
    67   72   70 1
    68   73   70 1
    69   74   68 1
    70   75   63 1
    71   76   63 1
    72   77   75 1
    73   78   77 1
    74   79   77 1
    75   80   77 1
    76   81   57 1
    77   82   81 1
    78   83   81 1
    79   84   81 1
    80   85   49 1
    81   86   85 1
    82   87   85 1
    83   88   85 1
    84   16   17 ar
    85   21   22 1
    86   22   24 1
    87   27   31 1
    88   60   62 ar
    89   63   66 1
    90   64   66 1
    91   64   69 1
    92   70   74 1
@<TRIPOS>SUBSTRUCTURE
     1 RES1 1
     2 RES2 45

@<TRIPOS>CRYSIN
   7.8620   14.8930   14.8960  85.4470  88.3800  85.2700   2 1

