# MOL2 file generated by ConQuest
# Please check atom types

@<TRIPOS>MOLECULE
RUPCAH
    41    43     1
SMALL
NO_CHARGES
****
Generated from CSD

@<TRIPOS>ATOM
      1 O1         1.7101   -0.4486    2.8311 O.3       1 RES1    0.0000
      2 O2         3.3383    1.5443    2.8563 O.3       1 RES1    0.0000
      3 O3         1.9018    2.9565   -1.0255 O.2       1 RES1    0.0000
      4 O4         0.3867    3.9525    0.3406 O.3       1 RES1    0.0000
      5 O5        -1.6017    0.4234    5.7199 O.2       1 RES1    0.0000
      6 O6        -0.1846    2.0901    5.4346 O.2       1 RES1    0.0000
      7 N1         0.8227   -1.5707    2.9719 N.2       1 RES1    0.0000
      8 N2        -0.5798    0.9362    5.2011 N.pl3     1 RES1    0.0000
      9 C1         0.7596    4.9744    4.1202 C.ar      1 RES1    0.0000
     10 H1        -0.0136    4.4975    4.3971 H         1 RES1    0.0000
     11 C2         0.9761    6.2749    4.5933 C.ar      1 RES1    0.0000
     12 H2         0.3635    6.6675    5.2035 H         1 RES1    0.0000
     13 C3         2.1089    7.0019    4.1587 C.ar      1 RES1    0.0000
     14 H3         2.2464    7.8947    4.4536 H         1 RES1    0.0000
     15 C4         3.0256    6.3984    3.2933 C.ar      1 RES1    0.0000
     16 H4         3.7968    6.8766    3.0140 H         1 RES1    0.0000
     17 C5         2.8146    5.0901    2.8323 C.ar      1 RES1    0.0000
     18 H5         3.4410    4.6871    2.2413 H         1 RES1    0.0000
     19 C6         1.6696    4.3701    3.2451 C.ar      1 RES1    0.0000
     20 C7         2.1106    1.8515    3.5846 C.3       1 RES1    0.0000
     21 H6         2.3099    2.1785    4.5090 H         1 RES1    0.0000
     22 C8         1.3943    2.9503    2.7372 C.3       1 RES1    0.0000
     23 H7         0.4094    2.7798    2.7239 H         1 RES1    0.0000
     24 C9         1.3051    0.5615    3.6195 C.2       1 RES1    0.0000
     25 C10        3.0911    1.8469    1.5251 C.2       1 RES1    0.0000
     26 C11        1.9976    2.6246    1.3662 C.2       1 RES1    0.0000
     27 C12        4.0571    1.2335    0.5790 C.3       1 RES1    0.0000
     28 H8         3.8641    1.5424   -0.3310 H         1 RES1    0.0000
     29 H9         3.9758    0.2570    0.6163 H         1 RES1    0.0000
     30 H10        4.9681    1.4954    0.8257 H         1 RES1    0.0000
     31 C13        1.4707    3.1746    0.0999 C.2       1 RES1    0.0000
     32 C14       -0.0959   -1.1999    3.8422 C.2       1 RES1    0.0000
     33 C15        0.1654    0.1393    4.2899 C.2       1 RES1    0.0000
     34 C16       -1.1928   -2.1505    4.2273 C.3       1 RES1    0.0000
     35 H11       -1.0447   -3.0145    3.7892 H         1 RES1    0.0000
     36 H12       -2.0567   -1.7841    3.9433 H         1 RES1    0.0000
     37 H13       -1.1932   -2.2721    5.1987 H         1 RES1    0.0000
     38 C17       -0.2848    4.4897   -0.8474 C.3       1 RES1    0.0000
     39 H14        0.3293    5.0824   -1.3289 H         1 RES1    0.0000
     40 H15       -1.0784    4.9954   -0.5730 H         1 RES1    0.0000
     41 H16       -0.5533    3.7519   -1.4324 H         1 RES1    0.0000
@<TRIPOS>BOND
     1    1    7 1
     2    2   20 1
     3    3   31 2
     4    4   31 1
     5    5    8 2
     6    6    8 2
     7    7   32 2
     8    8   33 1
     9    9   10 1
    10   11    9 ar
    11   12   11 1
    12   13   11 ar
    13   14   13 1
    14   15   13 ar
    15   16   15 1
    16   17   15 ar
    17   18   17 1
    18   19    9 ar
    19   20   21 1
    20   22   19 1
    21   23   22 1
    22   24    1 1
    23   25    2 1
    24   26   22 1
    25   27   25 1
    26   28   27 1
    27   29   27 1
    28   30   27 1
    29   31   26 1
    30   32   33 1
    31   33   24 2
    32   34   32 1
    33   35   34 1
    34   36   34 1
    35   37   34 1
    36   38    4 1
    37   39   38 1
    38   40   38 1
    39   41   38 1
    40   17   19 ar
    41   20   22 1
    42   20   24 1
    43   25   26 2
@<TRIPOS>SUBSTRUCTURE
     1 RES1 1

@<TRIPOS>CRYSIN
   5.5890   11.9380   13.3840  65.7390  80.2200  87.1300   2 1

