# MOL2 file generated by ConQuest
# Please check atom types

@<TRIPOS>MOLECULE
RUPSEA
    23    24     1
SMALL
NO_CHARGES
****
Generated from CSD

@<TRIPOS>ATOM
      1 N1         7.9776    2.1962    2.7309 N.3       1 RES1    0.0000
      2 N2         6.9671    2.9376    3.2588 N.2       1 RES1    0.0000
      3 C1         6.1462    2.0357    3.7922 C.2       1 RES1    0.0000
      4 C2         6.6248    0.7221    3.6051 C.2       1 RES1    0.0000
      5 C3         7.8109    0.8709    2.9167 C.2       1 RES1    0.0000
      6 N3         8.7614   -0.0257    2.5123 N.3       1 RES1    0.0000
      7 C4         4.9227    2.4562    4.4838 C.ar      1 RES1    0.0000
      8 C5         4.4305    3.7611    4.3510 C.ar      1 RES1    0.0000
      9 C6         3.2749    4.1530    4.9912 C.ar      1 RES1    0.0000
     10 C7         2.5929    3.2218    5.7570 C.ar      1 RES1    0.0000
     11 C8         3.0525    1.9307    5.9209 C.ar      1 RES1    0.0000
     12 C9         4.2169    1.5617    5.2828 C.ar      1 RES1    0.0000
     13 N4         1.3456    3.6138    6.3974 N.pl3     1 RES1    0.0000
     14 O1         0.6756    2.7467    6.9667 O.2       1 RES1    0.0000
     15 O2         1.0072    4.7896    6.3363 O.2       1 RES1    0.0000
     16 H1         8.5898    2.5590    2.3304 H         1 RES1    0.0000
     17 H2         6.1857   -0.1676    3.8692 H         1 RES1    0.0000
     18 H3         9.2908    0.2581    1.8309 H         1 RES1    0.0000
     19 H4         8.5657   -0.9961    2.4931 H         1 RES1    0.0000
     20 H5         4.8645    4.3535    3.7684 H         1 RES1    0.0000
     21 H6         2.9236    5.0445    4.8683 H         1 RES1    0.0000
     22 H7         2.5971    1.3434    6.4826 H         1 RES1    0.0000
     23 H8         4.5724    0.6874    5.4251 H         1 RES1    0.0000
@<TRIPOS>BOND
     1    1    2 1
     2    2    3 2
     3    3    4 1
     4    4    5 2
     5    5    1 1
     6    6    5 1
     7    7    3 1
     8    8    7 ar
     9    9    8 ar
    10   10    9 ar
    11   11   10 ar
    12   12    7 ar
    13   13   10 1
    14   14   13 2
    15   15   13 2
    16   16    1 1
    17   17    4 1
    18   18    6 1
    19   19    6 1
    20   20    8 1
    21   21    9 1
    22   22   11 1
    23   23   12 1
    24   11   12 ar
@<TRIPOS>SUBSTRUCTURE
     1 RES1 1

@<TRIPOS>CRYSIN
   6.3575   12.0596   11.4679  90.0000  92.4480  90.0000 231 1

