# MOL2 file generated by ConQuest
# Please check atom types

@<TRIPOS>MOLECULE
RUSCOZ
    36    38     1
SMALL
NO_CHARGES
****
Generated from CSD

@<TRIPOS>ATOM
      1 N1         1.0201    6.0829    6.7174 N.pl3     1 RES1    0.0000
      2 C1         1.7204    8.2456    0.4059 C.2       1 RES1    0.0000
      3 C2         1.7775   10.8728   -2.9383 C.ar      1 RES1    0.0000
      4 C3         1.3488    7.8988    2.9219 C.ar      1 RES1    0.0000
      5 C4         2.2149    8.7415   -1.9949 C.ar      1 RES1    0.0000
      6 H1         2.5212    7.8680   -2.0883 H         1 RES1    0.0000
      7 C5         1.5448    5.9521    4.3469 C.ar      1 RES1    0.0000
      8 H2         1.7527    5.0510    4.4505 H         1 RES1    0.0000
      9 C6         1.1157    6.6903    5.4379 C.ar      1 RES1    0.0000
     10 C7         1.7312    9.1698   -0.7597 C.ar      1 RES1    0.0000
     11 C8         0.7970    8.0319    5.2796 C.ar      1 RES1    0.0000
     12 H3         0.5059    8.5318    6.0083 H         1 RES1    0.0000
     13 C9         1.4369    8.6333    1.6626 C.2       1 RES1    0.0000
     14 H4         1.2634    9.5439    1.7454 H         1 RES1    0.0000
     15 C10        0.9127    8.6201    4.0364 C.ar      1 RES1    0.0000
     16 H5         0.6960    9.5192    3.9376 H         1 RES1    0.0000
     17 C11        1.6644    6.5483    3.1060 C.ar      1 RES1    0.0000
     18 H6         1.9595    6.0450    2.3823 H         1 RES1    0.0000
     19 N2         1.8212   11.7747   -4.0891 N.pl3     1 RES1    0.0000
     20 C12        1.2508   10.4764   -0.6608 C.ar      1 RES1    0.0000
     21 H7         0.9083   10.7774    0.1501 H         1 RES1    0.0000
     22 C13        2.2463    9.5915   -3.0822 C.ar      1 RES1    0.0000
     23 H8         2.5808    9.2996   -3.9000 H         1 RES1    0.0000
     24 O1         1.4054   12.9215   -3.9413 O.2       1 RES1    0.0000
     25 O2         2.2746   11.3507   -5.1481 O.2       1 RES1    0.0000
     26 C14        1.2753   11.3284   -1.7427 C.ar      1 RES1    0.0000
     27 H9         0.9572   12.1991   -1.6654 H         1 RES1    0.0000
     28 N3         2.2879    5.8198   -0.2664 N.1       1 RES1    0.0000
     29 C15        2.0301    6.8763    0.0780 C.1       1 RES1    0.0000
     30 N4         1.5612    4.8374    8.4763 N.2       1 RES1    0.0000
     31 C16        1.8791    5.1749    7.2555 C.2       1 RES1    0.0000
     32 H10        2.6144    4.8314    6.8016 H         1 RES1    0.0000
     33 C17        0.0828    6.3282    7.6908 C.2       1 RES1    0.0000
     34 H11       -0.6418    6.9086    7.6361 H         1 RES1    0.0000
     35 C18        0.4260    5.5569    8.7406 C.2       1 RES1    0.0000
     36 H12       -0.0463    5.5183    9.5405 H         1 RES1    0.0000
@<TRIPOS>BOND
     1    1    9 1
     2    2   10 1
     3    3   19 1
     4    4   13 1
     5    5    6 1
     6    7    8 1
     7    9    7 ar
     8   10    5 ar
     9   11    9 ar
    10   12   11 1
    11   13    2 2
    12   14   13 1
    13   15    4 ar
    14   16   15 1
    15   17    4 ar
    16   18   17 1
    17   19   24 2
    18   20   10 ar
    19   21   20 1
    20   22    3 ar
    21   23   22 1
    22   25   19 2
    23   26    3 ar
    24   27   26 1
    25   28   29 3
    26   29    2 1
    27   30   31 2
    28   31    1 1
    29   32   31 1
    30   33    1 1
    31   34   33 1
    32   35   30 1
    33   36   35 1
    34    5   22 ar
    35    7   17 ar
    36   11   15 ar
    37   20   26 ar
    38   33   35 2
@<TRIPOS>SUBSTRUCTURE
     1 RES1 1

@<TRIPOS>CRYSIN
   7.1792   16.5120   12.7710  90.0000 101.5570  90.0000  14 1

