# MOL2 file generated by ConQuest
# Please check atom types

@<TRIPOS>MOLECULE
RUSHIW
    27    28     1
SMALL
USER_CHARGES
****
Generated from CSD

@<TRIPOS>ATOM
      1 O1         5.2256   11.2722   15.5307 O.2       1 RES1    0.0000
      2 O2         3.7340    9.7582   15.6974 O.2       1 RES1    0.0000
      3 O3         4.2877    5.8351   17.8425 O.2       1 RES1    0.0000
      4 O4         3.8579    7.7883   18.4394 O.2       1 RES1    0.0000
      5 N1         6.4768    9.3867   13.9281 N.2       1 RES1    0.0000
      6 N2         7.2329   10.3544   13.8712 N.1       1 RES1    1.0000
      7 N3         7.9717   11.1807   13.6687 N.2       1 RES1   -1.0000
      8 N4         6.8423    6.7130   18.7451 N.2       1 RES1    0.0000
      9 N5         6.9601    5.4813   18.6352 N.1       1 RES1    1.0000
     10 N6         7.1575    4.3802   18.6683 N.2       1 RES1   -1.0000
     11 N7         4.6238    6.9875   18.0159 N.pl3     1 RES1    0.0000
     12 N8         4.8589   10.1130   15.5254 N.pl3     1 RES1    0.0000
     13 C1         6.4400    6.9512   16.2731 C.3       1 RES1    0.0000
     14 C2         6.0609    7.3451   17.7036 C.3       1 RES1    0.0000
     15 C3         6.3398    8.8633   17.7420 C.3       1 RES1    0.0000
     16 C4         7.0294    9.1211   16.3829 C.3       1 RES1    0.0000
     17 C5         5.9756    9.0737   15.2713 C.3       1 RES1    0.0000
     18 C6         5.4789    7.6378   15.2845 C.3       1 RES1    0.0000
     19 C7         7.7080    7.7712   16.1262 C.3       1 RES1    0.0000
     20 H1         8.3975    7.5501   16.7640 H         1 RES1    0.0000
     21 H2         8.1171    7.7093   15.2462 H         1 RES1    0.0000
     22 H3         6.5535    5.9990   16.1341 H         1 RES1    0.0000
     23 H4         7.6240    9.9033   16.3604 H         1 RES1    0.0000
     24 H5         6.8928    9.1016   18.4963 H         1 RES1    0.0000
     25 H6         5.5181    9.3620   17.8267 H         1 RES1    0.0000
     26 H7         4.5701    7.5818   15.5876 H         1 RES1    0.0000
     27 H8         5.5209    7.2412   14.4098 H         1 RES1    0.0000
@<TRIPOS>BOND
     1    1   12 2
     2    2   12 2
     3    3   11 2
     4    4   11 2
     5    5    6 2
     6    6    7 2
     7    8    9 2
     8    9   10 2
     9   11   14 1
    10   12   17 1
    11   13   14 1
    12   14    8 1
    13   15   14 1
    14   16   15 1
    15   17    5 1
    16   18   13 1
    17   19   13 1
    18   20   19 1
    19   21   19 1
    20   22   13 1
    21   23   16 1
    22   24   15 1
    23   25   15 1
    24   26   18 1
    25   27   18 1
    26   16   17 1
    27   16   19 1
    28   17   18 1
@<TRIPOS>SUBSTRUCTURE
     1 RES1 1

@<TRIPOS>CRYSIN
   6.5540    7.0300   13.5680  78.3700  80.8500  67.9400   2 1

