# MOL2 file generated by ConQuest
# Please check atom types

@<TRIPOS>MOLECULE
RUSHES
    26    26     1
SMALL
USER_CHARGES
****
Generated from CSD

@<TRIPOS>ATOM
      1 O1         0.0314    4.4462    5.8399 O.2       1 RES1    0.0000
      2 O2        -0.3660    6.4238    6.5688 O.2       1 RES1    0.0000
      3 N1        -0.1707    5.6336    5.6674 N.pl3     1 RES1    0.0000
      4 N2         0.9728    5.5674    3.5495 N.2       1 RES1    0.0000
      5 N3         0.8706    4.3566    3.1892 N.1       1 RES1    1.0000
      6 N4         0.9366    3.2850    2.8060 N.2       1 RES1   -1.0000
      7 C1        -0.2129    6.1149    4.1988 C.3       1 RES1    0.0000
      8 C2        -0.0609    7.6361    4.1613 C.3       1 RES1    0.0000
      9 C3        -1.5503    5.6653    3.6501 C.3       1 RES1    0.0000
     10 H1        -1.5979    4.7055    3.6807 H         1 RES1    0.0000
     11 H2        -2.2544    6.0115    4.1976 H         1 RES1    0.0000
     12 H3         0.8080    7.8926    4.4802 H         1 RES1    0.0000
     13 H4        -0.7150    8.0512    4.7265 H         1 RES1    0.0000
     14 C3B       -0.2522    8.1257    2.7156 C.3       1 RES1    0.0000
     15 C1B       -1.5896    7.6761    2.1669 C.3       1 RES1    0.0000
     16 N1B       -1.6319    8.1574    0.6983 N.pl3     1 RES1    0.0000
     17 O1B       -1.8339    9.3448    0.5258 O.2       1 RES1    0.0000
     18 O2B       -1.4365    7.3672   -0.2031 O.2       1 RES1    0.0000
     19 N2B       -2.7753    8.2236    2.8162 N.2       1 RES1    0.0000
     20 N3B       -2.6731    9.4344    3.1765 N.1       1 RES1    1.0000
     21 N4B       -2.7391   10.5060    3.5597 N.2       1 RES1   -1.0000
     22 C2B       -1.7416    6.1549    2.2044 C.3       1 RES1    0.0000
     23 H3B       -2.6105    5.8984    1.8855 H         1 RES1    0.0000
     24 H4B       -1.0875    5.7398    1.6392 H         1 RES1    0.0000
     25 H1B       -0.2046    9.0855    2.6851 H         1 RES1    0.0000
     26 H2B        0.4519    7.7795    2.1682 H         1 RES1    0.0000
@<TRIPOS>BOND
     1    1    3 2
     2    2    3 2
     3    3    7 1
     4    4    5 2
     5    5    6 2
     6    7    4 1
     7    8    7 1
     8    9    7 1
     9   10    9 1
    10   11    9 1
    11   12    8 1
    12   13    8 1
    13   14    8 1
    14   15   14 1
    15   16   15 1
    16   17   16 2
    17   18   16 2
    18   19   15 1
    19   20   19 2
    20   21   20 2
    21   22    9 1
    22   23   22 1
    23   24   22 1
    24   25   14 1
    25   26   14 1
    26   15   22 1
@<TRIPOS>SUBSTRUCTURE
     1 RES1 1

@<TRIPOS>CRYSIN
   5.9880   13.7910    6.6160  90.0000 105.8100  90.0000 231 1

