# MOL2 file generated by ConQuest
# Please check atom types

@<TRIPOS>MOLECULE
RUSKAS
    64    72     2
SMALL
NO_CHARGES
****
Generated from CSD

@<TRIPOS>ATOM
      1 N1         3.8170    1.1132   13.8666 N.am      1 RES1    0.0000
      2 N2         3.6999   -0.4043   12.2650 N.am      1 RES1    0.0000
      3 N3         3.0318   -5.1617    9.3863 N.pl3     1 RES1    0.0000
      4 O1         3.0975   -0.9784   14.4429 O.2       1 RES1    0.0000
      5 O2         3.1741   -6.2300    9.9612 O.2       1 RES1    0.0000
      6 O3         2.8006   -5.0668    8.1786 O.2       1 RES1    0.0000
      7 C1         5.3620    0.6065   10.6997 C.3       1 RES1    0.0000
      8 C2         4.1306    0.8237   11.5656 C.3       1 RES1    0.0000
      9 C3         4.4187    1.7746   12.7211 C.3       1 RES1    0.0000
     10 C4         3.8594    3.1649   12.6169 C.3       1 RES1    0.0000
     11 C5         4.0375    3.8887   13.9462 C.3       1 RES1    0.0000
     12 C6         3.3683    3.1724   15.1423 C.3       1 RES1    0.0000
     13 C7         3.7512    3.8588   16.4832 C.ar      1 RES1    0.0000
     14 C8         3.5607    3.1699   17.6749 C.ar      1 RES1    0.0000
     15 C9         3.8685    3.7764   18.8855 C.ar      1 RES1    0.0000
     16 C10        4.3678    5.0743   18.9043 C.ar      1 RES1    0.0000
     17 C11        4.5583    5.7632   17.7126 C.ar      1 RES1    0.0000
     18 C12        4.2505    5.1542   16.5020 C.ar      1 RES1    0.0000
     19 C13        1.8150    3.2073   15.0395 C.ar      1 RES1    0.0000
     20 C14        1.2101    4.4354   14.7991 C.ar      1 RES1    0.0000
     21 C15       -0.1756    4.5327   14.7701 C.ar      1 RES1    0.0000
     22 C16       -0.9575    3.4020   14.9801 C.ar      1 RES1    0.0000
     23 C17       -0.3526    2.1740   15.2190 C.ar      1 RES1    0.0000
     24 C18        1.0342    2.0767   15.2494 C.ar      1 RES1    0.0000
     25 C19        3.9300    1.7247   15.1655 C.3       1 RES1    0.0000
     26 C20        3.5033   -0.1772   13.6276 C.2       1 RES1    0.0000
     27 C21        3.4035   -1.5924   11.5946 C.ar      1 RES1    0.0000
     28 C22        3.4966   -2.8205   12.2404 C.ar      1 RES1    0.0000
     29 C23        3.3385   -3.9986   11.5207 C.ar      1 RES1    0.0000
     30 C24        3.0872   -3.9486   10.1537 C.ar      1 RES1    0.0000
     31 C25        2.9940   -2.7231    9.5079 C.ar      1 RES1    0.0000
     32 C26        3.1522   -1.5450   10.2276 C.ar      1 RES1    0.0000
     33 N4         3.8005   -5.8581   16.6526 N.am      2 RES2    0.0000
     34 N5         4.1946   -7.3357   15.0655 N.am      2 RES2    0.0000
     35 N6         2.0754   -1.3129   19.4444 N.pl3     2 RES2    0.0000
     36 O4         3.0979   -5.4263   14.4675 O.2       2 RES2    0.0000
     37 O5         2.0654   -0.2421   18.8580 O.2       2 RES2    0.0000
     38 O6         1.8408   -1.4302   20.6536 O.2       2 RES2    0.0000
     39 C27        5.6221   -6.5519   18.2223 C.3       2 RES2    0.0000
     40 C28        4.4471   -6.9813   17.3621 C.3       2 RES2    0.0000
     41 C29        4.8967   -7.8848   16.2167 C.3       2 RES2    0.0000
     42 C30        4.5943   -9.3449   16.3152 C.3       2 RES2    0.0000
     43 C31        4.8562  -10.0338   14.9801 C.3       2 RES2    0.0000
     44 C32        4.0465   -9.4323   13.7999 C.3       2 RES2    0.0000
     45 C33        4.4569  -10.0912   12.4619 C.ar      2 RES2    0.0000
     46 C34        4.6823  -11.4615   12.4156 C.ar      2 RES2    0.0000
     47 C35        5.0439  -12.0681   11.2181 C.ar      2 RES2    0.0000
     48 C36        5.1801  -11.3018   10.0669 C.ar      2 RES2    0.0000
     49 C37        4.9547   -9.9315   10.1118 C.ar      2 RES2    0.0000
     50 C38        4.5932   -9.3250   11.3093 C.ar      2 RES2    0.0000
     51 C39        2.5252   -9.6270   13.9752 C.ar      2 RES2    0.0000
     52 C40        2.0763  -10.8375   14.4878 C.ar      2 RES2    0.0000
     53 C41        0.7132  -11.0772   14.6152 C.ar      2 RES2    0.0000
     54 C42       -0.2010  -10.1037   14.2300 C.ar      2 RES2    0.0000
     55 C43        0.2478   -8.8907   13.7188 C.ar      2 RES2    0.0000
     56 C44        1.6109   -8.6536   13.5914 C.ar      2 RES2    0.0000
     57 C45        4.4164   -7.9297   13.7695 C.3       2 RES2    0.0000
     58 C46        3.6433   -6.1301   15.2929 C.2       2 RES2    0.0000
     59 C47        3.2554   -4.7474   17.3100 C.ar      2 RES2    0.0000
     60 C48        3.0651   -3.5443   16.6396 C.ar      2 RES2    0.0000
     61 C49        2.6322   -2.4211   17.3346 C.ar      2 RES2    0.0000
     62 C50        2.3883   -2.5035   18.7016 C.ar      2 RES2    0.0000
     63 C51        2.5786   -3.7065   19.3720 C.ar      2 RES2    0.0000
     64 C52        3.0116   -4.8272   18.6755 C.ar      2 RES2    0.0000
@<TRIPOS>BOND
     1    1    9 1
     2    2    8 1
     3    3    5 2
     4    4   26 2
     5    6    3 2
     6    7    8 1
     7    8    9 1
     8    9   10 1
     9   10   11 1
    10   11   12 1
    11   12   13 1
    12   13   14 ar
    13   14   15 ar
    14   15   16 ar
    15   16   17 ar
    16   17   18 ar
    17   18   13 ar
    18   19   12 1
    19   20   19 ar
    20   21   20 ar
    21   22   21 ar
    22   23   22 ar
    23   24   19 ar
    24   25    1 1
    25   26    1 1
    26   27    2 1
    27   28   27 ar
    28   29   28 ar
    29   30    3 1
    30   31   30 ar
    31   32   27 ar
    32   33   40 1
    33   34   41 1
    34   35   37 2
    35   36   58 2
    36   38   35 2
    37   39   40 1
    38   40   41 1
    39   41   42 1
    40   42   43 1
    41   43   44 1
    42   44   45 1
    43   45   46 ar
    44   46   47 ar
    45   47   48 ar
    46   48   49 ar
    47   49   50 ar
    48   50   45 ar
    49   51   44 1
    50   52   51 ar
    51   53   52 ar
    52   54   53 ar
    53   55   54 ar
    54   56   51 ar
    55   57   34 1
    56   58   33 1
    57   59   33 1
    58   60   59 ar
    59   61   60 ar
    60   62   35 1
    61   63   62 ar
    62   64   59 ar
    63    2   26 1
    64   12   25 1
    65   23   24 ar
    66   29   30 ar
    67   31   32 ar
    68   34   58 1
    69   44   57 1
    70   55   56 ar
    71   61   62 ar
    72   63   64 ar
@<TRIPOS>SUBSTRUCTURE
     1 RES1 1
     2 RES2 33

@<TRIPOS>CRYSIN
  11.7900   24.9598   14.4867  90.0000  91.6730  90.0000 231 1

