# MOL2 file generated by ConQuest
# Please check atom types

@<TRIPOS>MOLECULE
RUSNEY
    60    61     1
SMALL
NO_CHARGES
****
Generated from CSD

@<TRIPOS>ATOM
      1 O1        -1.6357    6.5529    6.5545 O.3       1 RES1    0.0000
      2 O2        -0.2273    7.6874    7.8867 O.2       1 RES1    0.0000
      3 O3        -1.3687    8.0402   12.5890 O.2       1 RES1    0.0000
      4 O4        -3.3145    7.4307   13.2737 O.2       1 RES1    0.0000
      5 O5        -6.1750    4.8372   10.3817 O.2       1 RES1    0.0000
      6 O6        -5.5131    4.3997    8.3652 O.2       1 RES1    0.0000
      7 N1        -2.4802    7.5289   12.4319 N.pl3     1 RES1    0.0000
      8 N2        -5.3845    4.9392    9.4614 N.pl3     1 RES1    0.0000
      9 C1         1.3593   11.0421    1.6124 C.3       1 RES1    0.0000
     10 C2         0.2139   11.9802    1.8182 C.3       1 RES1    0.0000
     11 C3         0.6528   13.4344    1.4591 C.3       1 RES1    0.0000
     12 C4         1.8930   13.8369    2.2484 C.3       1 RES1    0.0000
     13 C5         2.9762   12.9474    2.0614 C.3       1 RES1    0.0000
     14 C6         2.5532   11.5184    2.4056 C.3       1 RES1    0.0000
     15 C7         0.9386    9.6005    1.8519 C.3       1 RES1    0.0000
     16 C8         2.0046    8.6099    1.4366 C.3       1 RES1    0.0000
     17 C9         0.5156    9.3351    3.2698 C.2       1 RES1    0.0000
     18 C10       -0.5883    8.7363    3.6289 C.2       1 RES1    0.0000
     19 C11       -1.0103    8.3863    5.0393 C.3       1 RES1    0.0000
     20 C12       -2.3815    8.9628    5.3274 C.3       1 RES1    0.0000
     21 C13       -0.9399    6.8825    5.2788 C.3       1 RES1    0.0000
     22 C14        0.4926    6.3546    5.3573 C.3       1 RES1    0.0000
     23 C15       -1.7609    6.0795    4.2687 C.3       1 RES1    0.0000
     24 C16       -1.2226    7.0399    7.7031 C.2       1 RES1    0.0000
     25 C17       -2.1839    6.7114    8.8291 C.ar      1 RES1    0.0000
     26 C18       -1.8927    7.2023   10.0862 C.ar      1 RES1    0.0000
     27 C19       -2.7717    6.9670   11.1000 C.ar      1 RES1    0.0000
     28 C20       -3.9463    6.2525   10.9130 C.ar      1 RES1    0.0000
     29 C21       -4.1721    5.7344    9.6784 C.ar      1 RES1    0.0000
     30 C22       -3.3329    5.9522    8.6084 C.ar      1 RES1    0.0000
     31 H1         1.6144   11.1335    0.6809 H         1 RES1    0.0000
     32 H2        -0.5354   11.7070    1.3057 H         1 RES1    0.0000
     33 H3        -0.0217   11.9957    2.7385 H         1 RES1    0.0000
     34 H4         0.8993   13.4490    0.4527 H         1 RES1    0.0000
     35 H5        -0.0695   14.0614    1.4965 H         1 RES1    0.0000
     36 H6         2.1054   14.7536    2.0427 H         1 RES1    0.0000
     37 H7         1.6077   13.8058    3.1650 H         1 RES1    0.0000
     38 H8         3.2279   13.0018    1.0924 H         1 RES1    0.0000
     39 H9         3.7335   13.2672    2.5365 H         1 RES1    0.0000
     40 H10        2.3162   11.5058    3.3558 H         1 RES1    0.0000
     41 H11        3.2845   10.9167    2.2971 H         1 RES1    0.0000
     42 H12        0.1393    9.4342    1.3019 H         1 RES1    0.0000
     43 H13        1.7255    7.7000    1.5002 H         1 RES1    0.0000
     44 H14        2.2601    8.7402    0.4826 H         1 RES1    0.0000
     45 H15        2.8085    8.7236    1.9304 H         1 RES1    0.0000
     46 H16        1.1449    9.6034    4.0105 H         1 RES1    0.0000
     47 H17       -1.2205    8.5195    2.9106 H         1 RES1    0.0000
     48 H18       -0.3668    8.8383    5.6492 H         1 RES1    0.0000
     49 H19       -2.4137    9.9232    5.1628 H         1 RES1    0.0000
     50 H20       -3.0313    8.5642    4.7438 H         1 RES1    0.0000
     51 H21       -2.6583    8.8199    6.2253 H         1 RES1    0.0000
     52 H22        0.5111    5.4039    5.4883 H         1 RES1    0.0000
     53 H23        0.9714    6.5354    4.5343 H         1 RES1    0.0000
     54 H24        0.9660    6.7697    6.0644 H         1 RES1    0.0000
     55 H25       -2.6791    6.3906    4.2500 H         1 RES1    0.0000
     56 H26       -1.4230    6.1855    3.3633 H         1 RES1    0.0000
     57 H27       -1.7767    5.1463    4.4595 H         1 RES1    0.0000
     58 H28       -1.0525    7.6874   10.2470 H         1 RES1    0.0000
     59 H29       -4.5735    6.1028   11.6799 H         1 RES1    0.0000
     60 H30       -3.5118    5.5692    7.7255 H         1 RES1    0.0000
@<TRIPOS>BOND
     1    1   21 1
     2    2   24 2
     3    3    7 2
     4    4    7 2
     5    5    8 2
     6    6    8 2
     7    7   27 1
     8    8   29 1
     9    9   10 1
    10   10   11 1
    11   11   12 1
    12   12   13 1
    13   13   14 1
    14   14    9 1
    15   15    9 1
    16   16   15 1
    17   17   15 1
    18   18   17 2
    19   19   18 1
    20   20   19 1
    21   21   19 1
    22   22   21 1
    23   23   21 1
    24   24    1 1
    25   25   24 1
    26   26   25 ar
    27   27   26 ar
    28   28   27 ar
    29   29   28 ar
    30   30   25 ar
    31   31    9 1
    32   32   10 1
    33   33   10 1
    34   34   11 1
    35   35   11 1
    36   36   12 1
    37   37   12 1
    38   38   13 1
    39   39   13 1
    40   40   14 1
    41   41   14 1
    42   42   15 1
    43   43   16 1
    44   44   16 1
    45   45   16 1
    46   46   17 1
    47   47   18 1
    48   48   19 1
    49   49   20 1
    50   50   20 1
    51   51   20 1
    52   52   22 1
    53   53   22 1
    54   54   22 1
    55   55   23 1
    56   56   23 1
    57   57   23 1
    58   58   26 1
    59   59   28 1
    60   60   30 1
    61   29   30 ar
@<TRIPOS>SUBSTRUCTURE
     1 RES1 1

@<TRIPOS>CRYSIN
   6.3210    9.7210   37.4520  90.0000  92.6600  90.0000 231 1

