# MOL2 file generated by ConQuest
# Please check atom types

@<TRIPOS>MOLECULE
RUTDAL
    38    39     1
SMALL
NO_CHARGES
****
Generated from CSD

@<TRIPOS>ATOM
      1 O1         0.5593   10.1684    5.8322 O.3       1 RES1    0.0000
      2 N1         0.6831   11.1766    6.8364 N.2       1 RES1    0.0000
      3 C1         1.9188   11.1273    7.2518 C.2       1 RES1    0.0000
      4 C2         2.6421   10.0944    6.5682 C.2       1 RES1    0.0000
      5 C3         4.0543    9.7126    6.7088 C.2       1 RES1    0.0000
      6 N2         4.4575    8.4083    6.3899 N.2       1 RES1    0.0000
      7 C4         4.1422    7.8326    5.3154 C.2       1 RES1    0.0000
      8 N3         3.2671    8.3225    4.3112 N.am      1 RES1    0.0000
      9 C5         1.8586    8.4964    4.6808 C.3       1 RES1    0.0000
     10 C6         1.7463    9.5551    5.7194 C.2       1 RES1    0.0000
     11 O2         1.2962    7.3332    5.1944 O.3       1 RES1    0.0000
     12 C7         1.0903    6.3144    4.2049 C.3       1 RES1    0.0000
     13 C8         3.6784    8.5822    3.0077 C.2       1 RES1    0.0000
     14 O3         2.8740    8.9053    2.1703 O.2       1 RES1    0.0000
     15 C9         5.1540    8.5011    2.7493 C.3       1 RES1    0.0000
     16 O4         4.6091    6.6352    4.9850 O.3       1 RES1    0.0000
     17 C10        5.6703    6.1065    5.8224 C.3       1 RES1    0.0000
     18 N4         4.8911   10.5503    7.1815 N.2       1 RES1    0.0000
     19 C11        6.2377   10.1743    7.3271 C.2       1 RES1    0.0000
     20 O5         7.0408   10.4434    6.4831 O.2       1 RES1    0.0000
     21 C12        6.5768    9.5645    8.6355 C.3       1 RES1    0.0000
     22 C13        2.4095   12.0625    8.2969 C.3       1 RES1    0.0000
     23 H1         1.3998    8.7972    3.8614 H         1 RES1    0.0000
     24 H2         0.6137    5.6271    4.6187 H         1 RES1    0.0000
     25 H3         0.5484    6.6916    3.5049 H         1 RES1    0.0000
     26 H4         1.8679    6.0148    3.8222 H         1 RES1    0.0000
     27 H5         5.3604    8.8501    2.0068 H         1 RES1    0.0000
     28 H6         5.3792    7.5776    2.5972 H         1 RES1    0.0000
     29 H7         5.6863    8.8642    3.4983 H         1 RES1    0.0000
     30 H8         6.4082    6.7457    5.8420 H         1 RES1    0.0000
     31 H9         5.9258    5.3298    5.4904 H         1 RES1    0.0000
     32 H10        5.3899    6.0242    6.7121 H         1 RES1    0.0000
     33 H11        7.3888    9.6185    8.8546 H         1 RES1    0.0000
     34 H12        6.1878    8.6609    8.6665 H         1 RES1    0.0000
     35 H13        6.1807   10.0286    9.3731 H         1 RES1    0.0000
     36 H14        1.6867   12.5643    8.5979 H         1 RES1    0.0000
     37 H15        3.1048   12.5972    7.9469 H         1 RES1    0.0000
     38 H16        2.7965   11.5655    9.0623 H         1 RES1    0.0000
@<TRIPOS>BOND
     1    1    2 1
     2    2    3 2
     3    3    4 1
     4    4    5 1
     5    5    6 1
     6    6    7 2
     7    7    8 1
     8    8    9 1
     9    9   10 1
    10   10    1 1
    11   11    9 1
    12   12   11 1
    13   13    8 1
    14   14   13 2
    15   15   13 1
    16   16    7 1
    17   17   16 1
    18   18    5 2
    19   19   18 1
    20   20   19 2
    21   21   19 1
    22   22    3 1
    23   23    9 1
    24   24   12 1
    25   25   12 1
    26   26   12 1
    27   27   15 1
    28   28   15 1
    29   29   15 1
    30   30   17 1
    31   31   17 1
    32   32   17 1
    33   33   21 1
    34   34   21 1
    35   35   21 1
    36   36   22 1
    37   37   22 1
    38   38   22 1
    39    4   10 2
@<TRIPOS>SUBSTRUCTURE
     1 RES1 1

@<TRIPOS>CRYSIN
  16.1580   11.7500   16.6640  90.0000 101.0500  90.0000  15 1

