# MOL2 file generated by ConQuest
# Please check atom types

@<TRIPOS>MOLECULE
RUTFET
    37    39     1
SMALL
NO_CHARGES
****
Generated from CSD

@<TRIPOS>ATOM
      1 O1         6.7743    0.7652    5.9780 O.3       1 RES1    0.0000
      2 H1         6.9615    1.4647    6.3621 H         1 RES1    0.0000
      3 N1         7.3752    3.2465    6.1933 N.2       1 RES1    0.0000
      4 N2         7.7017    4.4524    6.8333 N.2       1 RES1    0.0000
      5 O2         9.3449    9.8129   10.9163 O.2       1 RES1    0.0000
      6 N3         9.1057    8.7306   11.4432 N.pl3     1 RES1    0.0000
      7 O3         9.1443    8.5480   12.6439 O.2       1 RES1    0.0000
      8 C1         7.7297    4.3479    8.1031 C.2       1 RES1    0.0000
      9 H2         7.5323    3.5286    8.4964 H         1 RES1    0.0000
     10 C2         6.9560    2.2314    4.0746 C.ar      1 RES1    0.0000
     11 C3         7.3040    3.3517    4.9136 C.2       1 RES1    0.0000
     12 H3         7.4818    4.1742    4.5170 H         1 RES1    0.0000
     13 C4         8.7402    7.6015   10.5723 C.ar      1 RES1    0.0000
     14 C5         8.0660    5.4871    8.9563 C.ar      1 RES1    0.0000
     15 C6         6.8680    2.3687    2.6430 C.ar      1 RES1    0.0000
     16 C7         6.6654    0.9946    4.6537 C.ar      1 RES1    0.0000
     17 C8         8.7210    7.7875    9.2119 C.ar      1 RES1    0.0000
     18 H4         8.9298    8.6156    8.8441 H         1 RES1    0.0000
     19 C9         8.4316    6.3957   11.1573 C.ar      1 RES1    0.0000
     20 H5         8.4543    6.2936   12.0813 H         1 RES1    0.0000
     21 C10        8.3865    6.7242    8.4041 C.ar      1 RES1    0.0000
     22 H6         8.3751    6.8336    7.4811 H         1 RES1    0.0000
     23 C11        8.0841    5.3369   10.3331 C.ar      1 RES1    0.0000
     24 H7         7.8614    4.5154   10.7081 H         1 RES1    0.0000
     25 C12        6.4155    1.2686    1.8646 C.ar      1 RES1    0.0000
     26 C13        6.1012    0.0573    2.5198 C.ar      1 RES1    0.0000
     27 H8         5.8001   -0.6627    2.0145 H         1 RES1    0.0000
     28 C14        6.2241   -0.0896    3.8637 C.ar      1 RES1    0.0000
     29 H9         6.0171   -0.9038    4.2643 H         1 RES1    0.0000
     30 C15        7.2103    3.5485    1.9466 C.ar      1 RES1    0.0000
     31 H10        7.5153    4.2855    2.4250 H         1 RES1    0.0000
     32 C16        6.3010    1.4102    0.4634 C.ar      1 RES1    0.0000
     33 H11        5.9821    0.6967   -0.0409 H         1 RES1    0.0000
     34 C17        7.1067    3.6342    0.5968 C.ar      1 RES1    0.0000
     35 H12        7.3481    4.4234    0.1680 H         1 RES1    0.0000
     36 C18        6.6432    2.5540   -0.1591 C.ar      1 RES1    0.0000
     37 H13        6.5706    2.6242   -1.0840 H         1 RES1    0.0000
@<TRIPOS>BOND
     1    1    2 1
     2    3    4 1
     3    4    8 2
     4    5    6 2
     5    6    7 2
     6    8    9 1
     7   10   11 1
     8   11    3 2
     9   12   11 1
    10   13    6 1
    11   14    8 1
    12   15   10 ar
    13   16    1 1
    14   17   13 ar
    15   18   17 1
    16   19   13 ar
    17   20   19 1
    18   21   14 ar
    19   22   21 1
    20   23   14 ar
    21   24   23 1
    22   25   15 ar
    23   26   25 ar
    24   27   26 1
    25   28   16 ar
    26   29   28 1
    27   30   15 ar
    28   31   30 1
    29   32   25 ar
    30   33   32 1
    31   34   30 ar
    32   35   34 1
    33   36   32 ar
    34   37   36 1
    35   10   16 ar
    36   17   21 ar
    37   19   23 ar
    38   26   28 ar
    39   34   36 ar
@<TRIPOS>SUBSTRUCTURE
     1 RES1 1

@<TRIPOS>CRYSIN
   7.2028    7.9197   14.7696  81.7530  84.8450  65.4280   2 1

