# MOL2 file generated by ConQuest
# Please check atom types

@<TRIPOS>MOLECULE
RUTVIL
    48    52     1
SMALL
NO_CHARGES
****
Generated from CSD

@<TRIPOS>ATOM
      1 O1         6.4149    7.1986    7.7218 O.2       1 RES1    0.0000
      2 O2        10.7618    9.7282    9.3182 O.2       1 RES1    0.0000
      3 N1         6.3374    4.1834    5.0220 N.2       1 RES1    0.0000
      4 O3         6.2671    3.6584    6.3393 O.3       1 RES1    0.0000
      5 N2         2.9692    7.2570    9.1715 N.2       1 RES1    0.0000
      6 O4         3.3136    6.2965   10.1643 O.3       1 RES1    0.0000
      7 C1         8.8947    6.2154    6.6785 C.ar      1 RES1    0.0000
      8 C2        10.1304    6.0603    6.0616 C.ar      1 RES1    0.0000
      9 C3        11.2096    6.8597    6.3549 C.ar      1 RES1    0.0000
     10 C4        11.0890    7.8178    7.3279 C.ar      1 RES1    0.0000
     11 C5         8.5345    9.9692   10.9523 C.ar      1 RES1    0.0000
     12 C6         7.4080   10.0479   11.7228 C.ar      1 RES1    0.0000
     13 C7         6.2872    9.3093   11.4039 C.ar      1 RES1    0.0000
     14 C8         6.2398    8.4944   10.2726 C.ar      1 RES1    0.0000
     15 C9         7.4037    8.4049    9.4811 C.ar      1 RES1    0.0000
     16 C10        8.5475    9.1375    9.8303 C.ar      1 RES1    0.0000
     17 C11        8.7670    7.2177    7.6585 C.ar      1 RES1    0.0000
     18 C12        9.8893    7.9932    7.9937 C.ar      1 RES1    0.0000
     19 C13        7.4410    7.5589    8.2474 C.2       1 RES1    0.0000
     20 C14        9.8017    9.0278    9.0551 C.2       1 RES1    0.0000
     21 C15        7.4539    5.9087    3.7757 C.3       1 RES1    0.0000
     22 C16        7.2544    5.1546    5.0327 C.2       1 RES1    0.0000
     23 C17        7.8069    5.2954    6.2827 C.2       1 RES1    0.0000
     24 C18        7.1382    4.3456    7.0579 C.2       1 RES1    0.0000
     25 C19        7.2444    4.0330    8.5081 C.3       1 RES1    0.0000
     26 C20        3.9135    9.2199    8.1520 C.3       1 RES1    0.0000
     27 C21        3.9795    8.1018    9.1133 C.2       1 RES1    0.0000
     28 C22        4.9898    7.7546   10.0072 C.2       1 RES1    0.0000
     29 C23        4.5234    6.6402   10.6334 C.2       1 RES1    0.0000
     30 C24        5.0759    5.7858   11.7112 C.3       1 RES1    0.0000
     31 H1        10.2323    5.3754    5.4098 H         1 RES1    0.0000
     32 H2        12.0290    6.7487    5.8870 H         1 RES1    0.0000
     33 H3        11.8353    8.3643    7.5467 H         1 RES1    0.0000
     34 H4         9.3038   10.4775   11.1781 H         1 RES1    0.0000
     35 H5         7.3979   10.6159   12.4840 H         1 RES1    0.0000
     36 H6         5.5251    9.3583   11.9719 H         1 RES1    0.0000
     37 H7         6.7134    6.4874    3.6314 H         1 RES1    0.0000
     38 H8         7.5257    5.3002    3.0494 H         1 RES1    0.0000
     39 H9         8.2490    6.4242    3.8385 H         1 RES1    0.0000
     40 H10        7.0248    3.1202    8.6524 H         1 RES1    0.0000
     41 H11        6.6416    4.5843    8.9946 H         1 RES1    0.0000
     42 H12        8.1327    4.1965    8.8037 H         1 RES1    0.0000
     43 H13        3.1328    9.1339    7.6189 H         1 RES1    0.0000
     44 H14        4.6827    9.2043    7.5933 H         1 RES1    0.0000
     45 H15        3.8834   10.0432    8.6268 H         1 RES1    0.0000
     46 H16        5.9643    6.0603   11.9090 H         1 RES1    0.0000
     47 H17        5.0817    4.8802   11.4272 H         1 RES1    0.0000
     48 H18        4.5378    5.8694   12.4886 H         1 RES1    0.0000
@<TRIPOS>BOND
     1    1   19 2
     2    2   20 2
     3    3    4 1
     4    4   24 1
     5    5    6 1
     6    6   29 1
     7    7    8 ar
     8    8    9 ar
     9    9   10 ar
    10   10   18 ar
    11   11   12 ar
    12   12   13 ar
    13   13   14 ar
    14   14   15 ar
    15   15   16 ar
    16   16   11 ar
    17   17    7 ar
    18   18   17 ar
    19   19   15 1
    20   20   16 1
    21   21   22 1
    22   22    3 2
    23   23    7 1
    24   24   23 2
    25   25   24 1
    26   26   27 1
    27   27    5 2
    28   28   14 1
    29   29   28 2
    30   30   29 1
    31   31    8 1
    32   32    9 1
    33   33   10 1
    34   34   11 1
    35   35   12 1
    36   36   13 1
    37   37   21 1
    38   38   21 1
    39   39   21 1
    40   40   25 1
    41   41   25 1
    42   42   25 1
    43   43   26 1
    44   44   26 1
    45   45   26 1
    46   46   30 1
    47   47   30 1
    48   48   30 1
    49   17   19 1
    50   18   20 1
    51   22   23 1
    52   27   28 1
@<TRIPOS>SUBSTRUCTURE
     1 RES1 1

@<TRIPOS>CRYSIN
  14.3510   11.9320   23.2780  90.0000  90.0000  90.0000  61 1

