# MOL2 file generated by ConQuest
# Please check atom types

@<TRIPOS>MOLECULE
RUTZAH
    59    62     1
SMALL
NO_CHARGES
****
Generated from CSD

@<TRIPOS>ATOM
      1 O1        -4.4723   -6.2243   -1.9949 O.3       1 RES1    0.0000
      2 O2        -4.9214   -4.0744   -2.4453 O.2       1 RES1    0.0000
      3 O3        -4.8116   -1.6966    3.3797 O.2       1 RES1    0.0000
      4 O4        -4.8737   -0.9526    1.3509 O.2       1 RES1    0.0000
      5 O5        -4.0709   -6.3919    4.1622 O.2       1 RES1    0.0000
      6 O6        -3.7750   -7.7376    2.5043 O.2       1 RES1    0.0000
      7 N1        -3.9818   -6.6355    2.9615 N.pl3     1 RES1    0.0000
      8 N2        -4.7724   -1.8485    2.1692 N.pl3     1 RES1    0.0000
      9 C1        -2.6122   -7.1468   -8.0921 C.3       1 RES1    0.0000
     10 H1        -3.0507   -6.3401   -8.3753 H         1 RES1    0.0000
     11 H2        -2.1951   -7.5652   -8.8507 H         1 RES1    0.0000
     12 H3        -1.9449   -6.9358   -7.4349 H         1 RES1    0.0000
     13 C2        -6.2168   -9.2039   -6.1074 C.3       1 RES1    0.0000
     14 H4        -5.7584   -9.6838   -6.8010 H         1 RES1    0.0000
     15 H5        -7.1650   -9.2810   -6.2373 H         1 RES1    0.0000
     16 H6        -5.9801   -9.5728   -5.2528 H         1 RES1    0.0000
     17 C3        -4.6391   -4.9558   -1.6808 C.2       1 RES1    0.0000
     18 C4        -3.6303   -8.0921   -7.4921 C.3       1 RES1    0.0000
     19 H7        -4.3226   -8.2923   -8.1571 H         1 RES1    0.0000
     20 C5        -2.9715   -9.4004   -7.0270 C.3       1 RES1    0.0000
     21 H8        -3.5348  -10.1649   -7.2219 H         1 RES1    0.0000
     22 H9        -2.1075   -9.5270   -7.4479 H         1 RES1    0.0000
     23 C6        -2.8254   -9.1978   -5.5385 C.2       1 RES1    0.0000
     24 C7        -3.5127   -8.1609   -5.0943 C.2       1 RES1    0.0000
     25 C8        -4.2926   -7.4928   -6.2165 C.3       1 RES1    0.0000
     26 H10       -4.1158   -6.5282   -6.1932 H         1 RES1    0.0000
     27 C9        -5.8105   -7.7195   -6.1542 C.3       1 RES1    0.0000
     28 H11       -6.1605   -7.3783   -7.0063 H         1 RES1    0.0000
     29 C10       -6.5134   -6.9092   -5.0683 C.3       1 RES1    0.0000
     30 H12       -7.4616   -7.1106   -5.1073 H         1 RES1    0.0000
     31 H13       -6.4100   -5.9675   -5.2787 H         1 RES1    0.0000
     32 C11       -6.0329   -7.1335   -3.6239 C.3       1 RES1    0.0000
     33 H14       -6.6325   -6.6753   -3.0160 H         1 RES1    0.0000
     34 H15       -6.0693   -8.0813   -3.4213 H         1 RES1    0.0000
     35 C12       -4.6263   -6.6331   -3.4031 C.3       1 RES1    0.0000
     36 H16       -4.4815   -5.8493   -3.9746 H         1 RES1    0.0000
     37 C13       -3.4884   -7.6363   -3.6551 C.3       1 RES1    0.0000
     38 H17       -2.6557   -7.1275   -3.5668 H         1 RES1    0.0000
     39 C14       -3.4307   -8.7276   -2.5874 C.ar      1 RES1    0.0000
     40 C15       -2.7042   -8.5154   -1.4236 C.ar      1 RES1    0.0000
     41 H18       -2.2158   -7.7280   -1.3379 H         1 RES1    0.0000
     42 C16       -2.6821   -9.4378   -0.3845 C.ar      1 RES1    0.0000
     43 H19       -2.1951   -9.2654    0.3871 H         1 RES1    0.0000
     44 C17       -3.3900  -10.6098   -0.5144 C.ar      1 RES1    0.0000
     45 H20       -3.3943  -11.2260    0.1792 H         1 RES1    0.0000
     46 C18       -4.0966  -10.8763   -1.6782 C.ar      1 RES1    0.0000
     47 H21       -4.5557  -11.6794   -1.7717 H         1 RES1    0.0000
     48 C19       -4.1151   -9.9346   -2.7043 C.ar      1 RES1    0.0000
     49 H22       -4.5935  -10.1155   -3.4811 H         1 RES1    0.0000
     50 C20       -4.4872   -4.7267   -0.2026 C.ar      1 RES1    0.0000
     51 C21       -4.6576   -3.4401    0.2961 C.ar      1 RES1    0.0000
     52 H23       -4.8309   -2.7323   -0.2832 H         1 RES1    0.0000
     53 C22       -4.5664   -3.2195    1.6600 C.ar      1 RES1    0.0000
     54 C23       -4.3297   -4.2420    2.5432 C.ar      1 RES1    0.0000
     55 H24       -4.2705   -4.0853    3.4577 H         1 RES1    0.0000
     56 C24       -4.1828   -5.5057    2.0263 C.ar      1 RES1    0.0000
     57 C25       -4.2192   -5.7746    0.6702 C.ar      1 RES1    0.0000
     58 H25       -4.0673   -6.6343    0.3481 H         1 RES1    0.0000
     59 H26       -2.3698   -9.7730   -5.0189 H         1 RES1    0.0000
@<TRIPOS>BOND
     1    1   17 1
     2    2   17 2
     3    3    8 2
     4    4    8 2
     5    5    7 2
     6    6    7 2
     7    7   56 1
     8    8   53 1
     9    9   10 1
    10   11    9 1
    11   12    9 1
    12   13   14 1
    13   15   13 1
    14   16   13 1
    15   17   50 1
    16   18    9 1
    17   19   18 1
    18   20   18 1
    19   21   20 1
    20   22   20 1
    21   23   20 1
    22   24   23 2
    23   25   18 1
    24   26   25 1
    25   27   13 1
    26   28   27 1
    27   29   27 1
    28   30   29 1
    29   31   29 1
    30   32   29 1
    31   33   32 1
    32   34   32 1
    33   35    1 1
    34   36   35 1
    35   37   24 1
    36   38   37 1
    37   39   37 1
    38   40   39 ar
    39   41   40 1
    40   42   40 ar
    41   43   42 1
    42   44   42 ar
    43   45   44 1
    44   46   44 ar
    45   47   46 1
    46   48   39 ar
    47   49   48 1
    48   50   51 ar
    49   51   52 1
    50   53   51 ar
    51   54   53 ar
    52   55   54 1
    53   56   54 ar
    54   57   50 ar
    55   58   57 1
    56   59   23 1
    57   24   25 1
    58   25   27 1
    59   32   35 1
    60   35   37 1
    61   46   48 ar
    62   56   57 ar
@<TRIPOS>SUBSTRUCTURE
     1 RES1 1

@<TRIPOS>CRYSIN
   7.1294   12.0580   25.9780  90.0000  90.0000  90.0000  19 1

