# MOL2 file generated by ConQuest
# Please check atom types

@<TRIPOS>MOLECULE
RUVNIH
    56    59     1
SMALL
NO_CHARGES
****
Generated from CSD

@<TRIPOS>ATOM
      1 O1         6.5125    7.5812    7.2681 O.2       1 RES1    0.0000
      2 N1         8.6283    4.7817    7.8223 N.3       1 RES1    0.0000
      3 N2         6.4333    5.4608    8.1275 N.am      1 RES1    0.0000
      4 N3        10.0564    5.0600    4.4439 N.pl3     1 RES1    0.0000
      5 C1        10.1304    7.7268    6.1774 C.ar      1 RES1    0.0000
      6 O2         9.1078    4.9197    3.7159 O.2       1 RES1    0.0000
      7 C2         9.2567    2.7607    6.4496 C.ar      1 RES1    0.0000
      8 C3        10.5022    2.3554    6.8935 C.ar      1 RES1    0.0000
      9 H1        11.0844    2.9787    7.2629 H         1 RES1    0.0000
     10 C4         8.5345    6.2529    7.6070 C.3       1 RES1    0.0000
     11 H2         9.0002    6.7365    8.3212 H         1 RES1    0.0000
     12 C5         9.8204    5.2098    5.9106 C.3       1 RES1    0.0000
     13 H3        10.6706    5.1284    6.3911 H         1 RES1    0.0000
     14 O3        11.2054    5.0808    4.0517 O.2       1 RES1    0.0000
     15 C6         8.4001    1.8039    5.9377 C.ar      1 RES1    0.0000
     16 H4         7.5559    2.0559    5.6401 H         1 RES1    0.0000
     17 C7        11.2547    7.7800    6.9774 C.ar      1 RES1    0.0000
     18 H5        11.4147    7.0970    7.5875 H         1 RES1    0.0000
     19 C8         7.3472    4.3589    8.4298 C.3       1 RES1    0.0000
     20 H6         7.0319    3.5622    7.9552 H         1 RES1    0.0000
     21 C9         9.9112    8.7575    5.2786 C.ar      1 RES1    0.0000
     22 H7         9.1620    8.7374    4.7286 H         1 RES1    0.0000
     23 C10        9.1750    6.5607    6.2362 C.3       1 RES1    0.0000
     24 H8         8.4553    6.7204    5.5900 H         1 RES1    0.0000
     25 C11        8.7844    0.4771    5.8637 C.ar      1 RES1    0.0000
     26 H9         8.1919   -0.1584    5.5331 H         1 RES1    0.0000
     27 C12        7.0485    6.5499    7.6422 C.2       1 RES1    0.0000
     28 C13        8.8216    4.2077    6.4681 C.3       1 RES1    0.0000
     29 H10        7.9827    4.2895    5.9699 H         1 RES1    0.0000
     30 C14       10.0317    0.0978    6.2753 C.ar      1 RES1    0.0000
     31 H11       10.2974   -0.7903    6.2046 H         1 RES1    0.0000
     32 C15        7.4938    4.0002    9.9257 C.3       1 RES1    0.0000
     33 C16       10.8903    1.0329    6.7935 C.ar      1 RES1    0.0000
     34 H12       11.7368    0.7758    7.0782 H         1 RES1    0.0000
     35 C17       10.7949    9.8158    5.1926 C.ar      1 RES1    0.0000
     36 H13       10.6307   10.5056    4.5922 H         1 RES1    0.0000
     37 C18        7.9673    5.1933   10.7352 C.3       1 RES1    0.0000
     38 H14        8.8329    5.4678   10.4257 H         1 RES1    0.0000
     39 H15        8.0222    4.9490   11.6618 H         1 RES1    0.0000
     40 H16        7.3465    5.9171   10.6311 H         1 RES1    0.0000
     41 C19       12.1461    8.8343    6.8829 C.ar      1 RES1    0.0000
     42 H17       12.9034    8.8554    7.4217 H         1 RES1    0.0000
     43 C20        6.1507    3.5069   10.4866 C.3       1 RES1    0.0000
     44 H18        5.5355    4.2427   10.5379 H         1 RES1    0.0000
     45 H19        6.2854    3.1404   11.3631 H         1 RES1    0.0000
     46 H20        5.7915    2.8301    9.9077 H         1 RES1    0.0000
     47 C21        4.9845    5.3582    8.1244 C.3       1 RES1    0.0000
     48 H21        4.7283    4.4447    7.9725 H         1 RES1    0.0000
     49 H22        4.6266    5.9106    7.4252 H         1 RES1    0.0000
     50 H23        4.6417    5.6504    8.9720 H         1 RES1    0.0000
     51 C22        8.4976    2.8574   10.0317 C.3       1 RES1    0.0000
     52 H24        8.1871    2.1092    9.5159 H         1 RES1    0.0000
     53 H25        8.5891    2.5957   10.9505 H         1 RES1    0.0000
     54 H26        9.3488    3.1468    9.6954 H         1 RES1    0.0000
     55 C23       11.9054    9.8552    5.9823 C.ar      1 RES1    0.0000
     56 H27       12.4995   10.5670    5.9163 H         1 RES1    0.0000
@<TRIPOS>BOND
     1    1   27 2
     2    2   10 1
     3    3   19 1
     4    4    6 2
     5    5   17 ar
     6    7    8 ar
     7    8    9 1
     8   10   11 1
     9   12    4 1
    10   13   12 1
    11   14    4 2
    12   15    7 ar
    13   16   15 1
    14   17   18 1
    15   19    2 1
    16   20   19 1
    17   21    5 ar
    18   22   21 1
    19   23    5 1
    20   24   23 1
    21   25   15 ar
    22   26   25 1
    23   27    3 1
    24   28    2 1
    25   29   28 1
    26   30   25 ar
    27   31   30 1
    28   32   19 1
    29   33    8 ar
    30   34   33 1
    31   35   21 ar
    32   36   35 1
    33   37   32 1
    34   38   37 1
    35   39   37 1
    36   40   37 1
    37   41   17 ar
    38   42   41 1
    39   43   32 1
    40   44   43 1
    41   45   43 1
    42   46   43 1
    43   47    3 1
    44   48   47 1
    45   49   47 1
    46   50   47 1
    47   51   32 1
    48   52   51 1
    49   53   51 1
    50   54   51 1
    51   55   35 ar
    52   56   55 1
    53    7   28 1
    54   10   23 1
    55   10   27 1
    56   12   23 1
    57   12   28 1
    58   30   33 ar
    59   41   55 ar
@<TRIPOS>SUBSTRUCTURE
     1 RES1 1

@<TRIPOS>CRYSIN
  15.1037   16.1625   17.2660  90.0000  90.8950  90.0000  15 1

