# MOL2 file generated by ConQuest
# Please check atom types

@<TRIPOS>MOLECULE
RUWCIV
    31    32     1
SMALL
NO_CHARGES
****
Generated from CSD

@<TRIPOS>ATOM
      1 N1        -0.3148    5.3127   10.9397 N.pl3     1 RES1    0.0000
      2 N2        -0.0864    8.0473   12.0187 N.pl3     1 RES1    0.0000
      3 N3        -1.6616    9.7436    7.7909 N.pl3     1 RES1    0.0000
      4 O1        -0.5962    7.4069   12.9192 O.2       1 RES1    0.0000
      5 O2         0.7026    8.9589   12.1937 O.2       1 RES1    0.0000
      6 O3        -2.1973    9.5235    6.7056 O.2       1 RES1    0.0000
      7 O4        -1.4082   10.8716    8.1914 O.2       1 RES1    0.0000
      8 C1        -0.6914    6.3996   10.2170 C.ar      1 RES1    0.0000
      9 C2        -0.4935    7.7339   10.6477 C.ar      1 RES1    0.0000
     10 C3        -0.7877    8.8221    9.8610 C.ar      1 RES1    0.0000
     11 C4        -1.3511    8.6082    8.6264 C.ar      1 RES1    0.0000
     12 C5        -1.6601    7.3273    8.1972 C.ar      1 RES1    0.0000
     13 C6        -1.3299    6.2578    8.9710 C.ar      1 RES1    0.0000
     14 C7        -0.8422    4.0007   10.5587 C.3       1 RES1    0.0000
     15 C8         0.8847    5.2977   11.7129 C.ar      1 RES1    0.0000
     16 C9         0.9231    4.6386   12.9375 C.ar      1 RES1    0.0000
     17 C10        2.0998    4.5615   13.6352 C.ar      1 RES1    0.0000
     18 C11        3.2402    5.1560   13.1571 C.ar      1 RES1    0.0000
     19 C12        3.1993    5.8325   11.9684 C.ar      1 RES1    0.0000
     20 C13        2.0367    5.8909   11.2306 C.ar      1 RES1    0.0000
     21 H1        -0.6417    9.6839   10.1984 H         1 RES1    0.0000
     22 H2        -1.5336    5.4034    8.6652 H         1 RES1    0.0000
     23 H3        -2.1044    7.2353    7.3760 H         1 RES1    0.0000
     24 H4        -0.6998    3.4473   11.2751 H         1 RES1    0.0000
     25 H5        -1.8329    4.0740   10.4352 H         1 RES1    0.0000
     26 H6        -0.3940    3.6736    9.7562 H         1 RES1    0.0000
     27 H7         0.1510    4.2506   13.2820 H         1 RES1    0.0000
     28 H8         2.1139    4.0740   14.4477 H         1 RES1    0.0000
     29 H9         4.0687    5.1410   13.6667 H         1 RES1    0.0000
     30 H10        3.9833    6.2690   11.6368 H         1 RES1    0.0000
     31 H11        2.0017    6.2988   10.4051 H         1 RES1    0.0000
@<TRIPOS>BOND
     1    1    8 1
     2    2    4 2
     3    3    6 2
     4    5    2 2
     5    7    3 2
     6    8    9 ar
     7    9    2 1
     8   10    9 ar
     9   11    3 1
    10   12   11 ar
    11   13    8 ar
    12   14    1 1
    13   15    1 1
    14   16   15 ar
    15   17   16 ar
    16   18   17 ar
    17   19   18 ar
    18   20   15 ar
    19   21   10 1
    20   22   13 1
    21   23   12 1
    22   24   14 1
    23   25   14 1
    24   26   14 1
    25   27   16 1
    26   28   17 1
    27   29   18 1
    28   30   19 1
    29   31   20 1
    30   10   11 ar
    31   12   13 ar
    32   19   20 ar
@<TRIPOS>SUBSTRUCTURE
     1 RES1 1

@<TRIPOS>CRYSIN
   7.0270   12.4360   14.3900  90.0000  93.9500  90.0000  14 2

