# MOL2 file generated by ConQuest
# Please check atom types

@<TRIPOS>MOLECULE
RUWJEY
    67    71     1
SMALL
USER_CHARGES
****
Generated from CSD

@<TRIPOS>ATOM
      1 O1         1.6743    9.6425    8.2308 O.2       1 RES1   -1.0000
      2 N1         2.7274    9.2660    7.6449 N.pl3     1 RES1    0.0000
      3 N2         3.8969    9.2589    8.2320 N.2       1 RES1    0.0000
      4 N3         4.7783    8.8168    7.2769 N.pl3     1 RES1    1.0000
      5 C1         4.1398    8.5429    6.0843 C.ar      1 RES1    0.0000
      6 C2         4.5534    8.0637    4.8402 C.ar      1 RES1    0.0000
      7 H1         5.4430    7.8641    4.6601 H         1 RES1    0.0000
      8 C3         3.5727    7.9040    3.9040 C.ar      1 RES1    0.0000
      9 H2         3.8093    7.6045    3.0561 H         1 RES1    0.0000
     10 C4         2.2216    8.1750    4.1695 C.ar      1 RES1    0.0000
     11 H3         1.5913    8.0295    3.5007 H         1 RES1    0.0000
     12 C5         1.8071    8.6471    5.3798 C.ar      1 RES1    0.0000
     13 H4         0.9148    8.8353    5.5613 H         1 RES1    0.0000
     14 C6         2.8059    8.8268    6.3176 C.ar      1 RES1    0.0000
     15 C7         6.1700    8.7398    7.5489 C.2       1 RES1    0.0000
     16 O2         6.9123    8.4324    6.6576 O.2       1 RES1    0.0000
     17 C8         6.6170    9.1434    8.9519 C.3       1 RES1    0.0000
     18 H5         5.9009    8.9123    9.5796 H         1 RES1    0.0000
     19 N4         7.8236    8.4534    9.3684 N.3       1 RES1    0.0000
     20 H6         8.3717    8.4859    8.7835 H         1 RES1    0.0000
     21 C9         6.8031   10.6708    8.9741 C.3       1 RES1    0.0000
     22 H7         5.9325   11.0873    8.8803 H         1 RES1    0.0000
     23 H8         7.1571   10.9247    9.8407 H         1 RES1    0.0000
     24 C10        7.7224   11.2256    7.8965 C.3       1 RES1    0.0000
     25 H9         8.0990   12.0657    8.1991 H         1 RES1    0.0000
     26 H10        8.4548   10.6052    7.7504 H         1 RES1    0.0000
     27 C11        6.9900   11.4495    6.5815 C.2       1 RES1    0.0000
     28 O3         5.8151   11.4923    6.4269 O.2       1 RES1    0.0000
     29 O4         7.8615   11.5579    5.5762 O.3       1 RES1    0.0000
     30 C12        7.2438   11.8089    4.3055 C.3       1 RES1    0.0000
     31 H11        7.9202   11.8755    3.6280 H         1 RES1    0.0000
     32 H12        6.7498   12.6314    4.3469 H         1 RES1    0.0000
     33 H13        6.6468   11.0881    4.0917 H         1 RES1    0.0000
     34 C13        7.6736    7.0896    9.9261 C.3       1 RES1    0.0000
     35 C14        9.0762    6.5287   10.2429 C.ar      1 RES1    0.0000
     36 C15        9.2532    5.1800   10.4964 C.ar      1 RES1    0.0000
     37 H14        8.5253    4.6043   10.4367 H         1 RES1    0.0000
     38 C16       10.4985    4.6722   10.8374 C.ar      1 RES1    0.0000
     39 H15       10.5979    3.7637   11.0144 H         1 RES1    0.0000
     40 C17       11.5877    5.5123   10.9154 C.ar      1 RES1    0.0000
     41 H16       12.4267    5.1728   11.1280 H         1 RES1    0.0000
     42 C18       11.4251    6.8486   10.6769 C.ar      1 RES1    0.0000
     43 H17       12.1584    7.4177   10.7294 H         1 RES1    0.0000
     44 C19       10.1734    7.3663   10.3569 C.ar      1 RES1    0.0000
     45 H18       10.0741    8.2805   10.2184 H         1 RES1    0.0000
     46 C20        6.9322    6.1940    8.9183 C.ar      1 RES1    0.0000
     47 C21        5.5387    6.1027    8.8982 C.ar      1 RES1    0.0000
     48 H19        5.0420    6.4978    9.5783 H         1 RES1    0.0000
     49 C22        4.8885    5.4310    7.8780 C.ar      1 RES1    0.0000
     50 H20        3.9601    5.3753    7.8863 H         1 RES1    0.0000
     51 C23        5.5794    4.8534    6.8634 C.ar      1 RES1    0.0000
     52 H21        5.1314    4.4127    6.1781 H         1 RES1    0.0000
     53 C24        6.9674    4.9275    6.8614 C.ar      1 RES1    0.0000
     54 H22        7.4560    4.5325    6.1761 H         1 RES1    0.0000
     55 C25        7.6204    5.5936    7.8844 C.ar      1 RES1    0.0000
     56 H23        8.5496    5.6363    7.8747 H         1 RES1    0.0000
     57 C26        6.9593    7.1938   11.3011 C.ar      1 RES1    0.0000
     58 C27        6.3524    6.0927   11.8732 C.ar      1 RES1    0.0000
     59 H24        6.3190    5.2898   11.4052 H         1 RES1    0.0000
     60 C28        5.7907    6.1754   13.1455 C.ar      1 RES1    0.0000
     61 H25        5.3852    5.4281   13.5225 H         1 RES1    0.0000
     62 C29        5.8322    7.3620   13.8473 C.ar      1 RES1    0.0000
     63 H26        5.4448    7.4205   14.6906 H         1 RES1    0.0000
     64 C30        6.4436    8.4417   13.2990 C.ar      1 RES1    0.0000
     65 H27        6.4843    9.2389   13.7771 H         1 RES1    0.0000
     66 C31        7.0090    8.3718   12.0288 C.ar      1 RES1    0.0000
     67 H28        7.4244    9.1205   11.6662 H         1 RES1    0.0000
@<TRIPOS>BOND
     1    1    2 1
     2    2    3 1
     3    3    4 2
     4    4    5 1
     5    5    6 ar
     6    6    7 1
     7    8    6 ar
     8    9    8 1
     9   10    8 ar
    10   11   10 1
    11   12   10 ar
    12   13   12 1
    13   14    2 1
    14   15    4 1
    15   16   15 2
    16   17   15 1
    17   18   17 1
    18   19   17 1
    19   20   19 1
    20   21   17 1
    21   22   21 1
    22   23   21 1
    23   24   21 1
    24   25   24 1
    25   26   24 1
    26   27   24 1
    27   28   27 2
    28   29   27 1
    29   30   29 1
    30   31   30 1
    31   32   30 1
    32   33   30 1
    33   34   19 1
    34   35   34 1
    35   36   35 ar
    36   37   36 1
    37   38   36 ar
    38   39   38 1
    39   40   38 ar
    40   41   40 1
    41   42   40 ar
    42   43   42 1
    43   44   35 ar
    44   45   44 1
    45   46   34 1
    46   47   46 ar
    47   48   47 1
    48   49   47 ar
    49   50   49 1
    50   51   49 ar
    51   52   51 1
    52   53   51 ar
    53   54   53 1
    54   55   46 ar
    55   56   55 1
    56   57   34 1
    57   58   57 ar
    58   59   58 1
    59   60   58 ar
    60   61   60 1
    61   62   60 ar
    62   63   62 1
    63   64   62 ar
    64   65   64 1
    65   66   57 ar
    66   67   66 1
    67    5   14 ar
    68   12   14 ar
    69   42   44 ar
    70   53   55 ar
    71   64   66 ar
@<TRIPOS>SUBSTRUCTURE
     1 RES1 1

@<TRIPOS>CRYSIN
   9.0310   14.2620   20.5800  90.0000  90.0000  90.0000  19 1

