# MOL2 file generated by ConQuest
# Please check atom types

@<TRIPOS>MOLECULE
RUWNEC
    63    64     3
SMALL
NO_CHARGES
****
Generated from CSD

@<TRIPOS>ATOM
      1 N1         4.1282   14.5816   -1.1265 N.pl3     1 RES1    0.0000
      2 N2         3.9925    9.0052   -1.7959 N.3       1 RES1    0.0000
      3 O1         5.1135   15.1760   -1.5285 O.2       1 RES1    0.0000
      4 O2         3.1848   15.1291   -0.5774 O.2       1 RES1    0.0000
      5 C1         4.0868   13.1291   -1.3038 C.ar      1 RES1    0.0000
      6 C2         5.1554   12.4992   -1.8994 C.ar      1 RES1    0.0000
      7 H1         5.8837   12.9910   -2.2030 H         1 RES1    0.0000
      8 C3         5.1273   11.1291   -2.0389 C.ar      1 RES1    0.0000
      9 H2         5.8449   10.6931   -2.4414 H         1 RES1    0.0000
     10 C4         4.0425   10.3890   -1.5856 C.ar      1 RES1    0.0000
     11 C5         2.9752   11.0556   -0.9989 C.ar      1 RES1    0.0000
     12 H3         2.2395   10.5702   -0.7023 H         1 RES1    0.0000
     13 C6         2.9901   12.4282   -0.8492 C.ar      1 RES1    0.0000
     14 H4         2.2759   12.8705   -0.4503 H         1 RES1    0.0000
     15 C7         5.1496    8.1735   -1.4540 C.3       1 RES1    0.0000
     16 H5         5.8934    8.6349   -1.0133 H         1 RES1    0.0000
     17 C8         5.5341    7.1026   -2.4539 C.3       1 RES1    0.0000
     18 H6         5.4476    7.4638   -3.3499 H         1 RES1    0.0000
     19 H7         6.4663    6.8668   -2.3193 H         1 RES1    0.0000
     20 C9         4.6959    5.8567   -2.3466 C.3       1 RES1    0.0000
     21 H8         4.7901    5.3485   -3.1670 H         1 RES1    0.0000
     22 H9         5.0422    5.3117   -1.6228 H         1 RES1    0.0000
     23 C10        3.2704    6.1051   -2.1075 C.3       1 RES1    0.0000
     24 H10        2.8051    5.2547   -2.0699 H         1 RES1    0.0000
     25 H11        2.9083    6.6057   -2.8559 H         1 RES1    0.0000
     26 C11        3.0015    6.8719   -0.8271 C.3       1 RES1    0.0000
     27 H12        2.0759    7.1621   -0.8207 H         1 RES1    0.0000
     28 H13        3.1312    6.2787   -0.0706 H         1 RES1    0.0000
     29 C12        3.8920    8.0709   -0.6676 C.3       1 RES1    0.0000
     30 H14        3.9106    8.4739    0.2253 H         1 RES1    0.0000
     31 N3         1.4467   11.3332    2.1065 N.pl3     2 RES2    0.0000
     32 N4         1.4104    5.7440    2.6559 N.3       2 RES2    0.0000
     33 O3         2.3359   11.9697    2.6559 O.2       2 RES2    0.0000
     34 O4         0.5680   11.8516    1.4235 O.2       2 RES2    0.0000
     35 C13        1.4332    9.8719    2.2723 C.ar      2 RES2    0.0000
     36 C14        2.3771    9.2800    3.0760 C.ar      2 RES2    0.0000
     37 H15        3.0195    9.7945    3.5094 H         2 RES2    0.0000
     38 C15        2.3563    7.9099    3.2283 C.ar      2 RES2    0.0000
     39 H16        2.9899    7.4955    3.7678 H         2 RES2    0.0000
     40 C16        1.3906    7.1406    2.5791 C.ar      2 RES2    0.0000
     41 C17        0.4609    7.7819    1.7659 C.ar      2 RES2    0.0000
     42 H17       -0.1746    7.2749    1.3146 H         2 RES2    0.0000
     43 C18        0.4622    9.1469    1.6154 C.ar      2 RES2    0.0000
     44 H18       -0.1737    9.5702    1.0855 H         2 RES2    0.0000
     45 C19        1.3929    5.0557    3.9483 C.3       2 RES2    0.0000
     46 H19        1.3306    5.6311    4.7397 H         2 RES2    0.0000
     47 C20        2.2449    3.8339    4.0922 C.3       2 RES2    0.0000
     48 H20        2.0517    3.4131    4.9438 H         2 RES2    0.0000
     49 H21        3.1778    4.0988    4.0971 H         2 RES2    0.0000
     50 C21        2.0280    2.8377    2.9934 C.3       2 RES2    0.0000
     51 H22        2.4225    3.1736    2.1730 H         2 RES2    0.0000
     52 H23        2.4731    2.0076    3.2211 H         2 RES2    0.0000
     53 C22        0.6022    2.5779    2.7724 C.3       2 RES2    0.0000
     54 H24        0.2085    2.2649    3.6026 H         2 RES2    0.0000
     55 H25        0.5123    1.8669    2.1190 H         2 RES2    0.0000
     56 C23       -0.1762    3.7870    2.2877 C.3       2 RES2    0.0000
     57 H26        0.0082    3.9328    1.3466 H         2 RES2    0.0000
     58 H27       -1.1266    3.6172    2.3841 H         2 RES2    0.0000
     59 C24        0.1916    5.0278    3.0653 C.3       2 RES2    0.0000
     60 H28       -0.5589    5.5905    3.3486 H         2 RES2    0.0000
     61 C25        0.9311    2.7439    2.0797 Du        3 SUP3    0.0000
     62 H29        0.5394    1.8593    2.1599 Du        3 SUP3    0.0000
     63 H30        1.2734    2.8314    1.1774 Du        3 SUP3    0.0000
@<TRIPOS>BOND
     1    1    3 2
     2    2   10 1
     3    4    1 2
     4    5    1 1
     5    6    5 ar
     6    7    6 1
     7    8    6 ar
     8    9    8 1
     9   10    8 ar
    10   11   10 ar
    11   12   11 1
    12   13    5 ar
    13   14   13 1
    14   15    2 1
    15   16   15 1
    16   17   15 1
    17   18   17 1
    18   19   17 1
    19   20   17 1
    20   21   20 1
    21   22   20 1
    22   23   20 1
    23   24   23 1
    24   25   23 1
    25   26   23 1
    26   27   26 1
    27   28   26 1
    28   29    2 1
    29   30   29 1
    30   31   33 2
    31   32   40 1
    32   34   31 2
    33   35   31 1
    34   36   35 ar
    35   37   36 1
    36   38   36 ar
    37   39   38 1
    38   40   38 ar
    39   41   40 ar
    40   42   41 1
    41   43   35 ar
    42   44   43 1
    43   45   32 1
    44   46   45 1
    45   47   45 1
    46   48   47 1
    47   49   47 1
    48   50   47 1
    49   51   50 1
    50   52   50 1
    51   53   50 1
    52   54   53 1
    53   55   53 1
    54   56   53 1
    55   57   56 1
    56   58   56 1
    57   59   32 1
    58   60   59 1
    59   11   13 ar
    60   15   29 1
    61   26   29 1
    62   41   43 ar
    63   45   59 1
    64   56   59 1
@<TRIPOS>SUBSTRUCTURE
     1 RES1 1
     2 RES2 31
     3 SUP3 61

@<TRIPOS>CRYSIN
  10.7990   12.6741   16.3797  90.0000  91.3030  90.0000  14 1

