# MOL2 file generated by ConQuest
# Please check atom types

@<TRIPOS>MOLECULE
RUWTAF
    65    68     1
SMALL
NO_CHARGES
****
Generated from CSD

@<TRIPOS>ATOM
      1 O1         2.0967   16.8184    5.5645 O.3       1 RES1    0.0000
      2 N1         1.6497   18.1665    5.7753 N.2       1 RES1    0.0000
      3 C1         1.7490   19.7287    7.7503 C.3       1 RES1    0.0000
      4 C2         3.0475   19.6533    8.6305 C.3       1 RES1    0.0000
      5 C3         3.4259   18.1565    8.7670 C.3       1 RES1    0.0000
      6 C4         2.4836   17.3808    7.8295 C.3       1 RES1    0.0000
      7 C5         2.9019   16.3851    6.7311 C.3       1 RES1    0.0000
      8 C6         1.8546   18.4432    6.9960 C.2       1 RES1    0.0000
      9 C7         4.3907   16.4803    6.3120 C.3       1 RES1    0.0000
     10 C8         4.7734   15.4521    5.2483 C.3       1 RES1    0.0000
     11 C9         4.7790   17.8664    5.7969 C.3       1 RES1    0.0000
     12 C10        2.4549   14.9347    7.0389 C.3       1 RES1    0.0000
     13 C11        0.9585   14.8063    7.2700 C.3       1 RES1    0.0000
     14 C12        3.2133   14.3715    8.2426 C.3       1 RES1    0.0000
     15 H1         3.7534   20.1286    8.2102 H         1 RES1    0.0000
     16 H2         2.8810   20.0260    9.4882 H         1 RES1    0.0000
     17 H3         4.3305   18.0216    8.5097 H         1 RES1    0.0000
     18 H4         3.3070   17.8690    9.6642 H         1 RES1    0.0000
     19 H5         1.8057   16.9746    8.3576 H         1 RES1    0.0000
     20 H6         4.9168   16.3038    7.0832 H         1 RES1    0.0000
     21 H7         5.0651   14.6519    5.6711 H         1 RES1    0.0000
     22 H8         5.4737   15.8014    4.7094 H         1 RES1    0.0000
     23 H9         4.0178   15.2648    4.7034 H         1 RES1    0.0000
     24 H10        4.6460   17.9032    4.8567 H         1 RES1    0.0000
     25 H11        5.6926   18.0321    5.9945 H         1 RES1    0.0000
     26 H12        4.2382   18.5240    6.2185 H         1 RES1    0.0000
     27 H13        2.6753   14.3994    6.2855 H         1 RES1    0.0000
     28 H14        0.7703   14.9149    8.1947 H         1 RES1    0.0000
     29 H15        0.6660   13.9495    6.9850 H         1 RES1    0.0000
     30 H16        0.5037   15.4779    6.7742 H         1 RES1    0.0000
     31 H17        4.0157   13.9574    7.9455 H         1 RES1    0.0000
     32 H18        2.6718   13.7286    8.6857 H         1 RES1    0.0000
     33 H19        3.4238   15.0780    8.8426 H         1 RES1    0.0000
     34 O1A        1.4013   22.6391    5.5645 O.3       1 RES1    0.0000
     35 N1A        1.8483   21.2910    5.7753 N.2       1 RES1    0.0000
     36 C2A        0.4505   19.8042    8.6305 C.3       1 RES1    0.0000
     37 C3A        0.0721   21.3010    8.7670 C.3       1 RES1    0.0000
     38 C4A        1.0144   22.0767    7.8295 C.3       1 RES1    0.0000
     39 C5A        0.5961   23.0724    6.7311 C.3       1 RES1    0.0000
     40 C6A        1.6434   21.0143    6.9960 C.2       1 RES1    0.0000
     41 C7A       -0.8927   22.9772    6.3120 C.3       1 RES1    0.0000
     42 C8A       -1.2754   24.0054    5.2483 C.3       1 RES1    0.0000
     43 C9A       -1.2810   21.5911    5.7969 C.3       1 RES1    0.0000
     44 C10A       1.0431   24.5228    7.0389 C.3       1 RES1    0.0000
     45 C11A       2.5395   24.6512    7.2700 C.3       1 RES1    0.0000
     46 C12A       0.2847   25.0860    8.2426 C.3       1 RES1    0.0000
     47 H1A       -0.2554   19.3289    8.2102 H         1 RES1    0.0000
     48 H2A        0.6170   19.4315    9.4882 H         1 RES1    0.0000
     49 H3A       -0.8325   21.4359    8.5097 H         1 RES1    0.0000
     50 H4A        0.1910   21.5885    9.6642 H         1 RES1    0.0000
     51 H5A        1.6923   22.4829    8.3576 H         1 RES1    0.0000
     52 H6A       -1.4188   23.1537    7.0832 H         1 RES1    0.0000
     53 H7A       -1.5671   24.8056    5.6711 H         1 RES1    0.0000
     54 H8A       -1.9757   23.6561    4.7094 H         1 RES1    0.0000
     55 H9A       -0.5198   24.1927    4.7034 H         1 RES1    0.0000
     56 H10A      -1.1480   21.5543    4.8567 H         1 RES1    0.0000
     57 H11A      -2.1946   21.4254    5.9945 H         1 RES1    0.0000
     58 H12A      -0.7402   20.9335    6.2185 H         1 RES1    0.0000
     59 H13A       0.8227   25.0581    6.2855 H         1 RES1    0.0000
     60 H14A       2.7277   24.5426    8.1947 H         1 RES1    0.0000
     61 H15A       2.8320   25.5080    6.9850 H         1 RES1    0.0000
     62 H16A       2.9943   23.9796    6.7742 H         1 RES1    0.0000
     63 H17A      -0.5177   25.5001    7.9455 H         1 RES1    0.0000
     64 H18A       0.8262   25.7289    8.6857 H         1 RES1    0.0000
     65 H19A       0.0742   24.3795    8.8426 H         1 RES1    0.0000
@<TRIPOS>BOND
     1    1    2 1
     2    2    8 2
     3    3    4 1
     4    4    5 1
     5    5    6 1
     6    6    7 1
     7    7    1 1
     8    8    3 1
     9    9    7 1
    10   10    9 1
    11   11    9 1
    12   12    7 1
    13   13   12 1
    14   14   12 1
    15   15    4 1
    16   16    4 1
    17   17    5 1
    18   18    5 1
    19   19    6 1
    20   20    9 1
    21   21   10 1
    22   22   10 1
    23   23   10 1
    24   24   11 1
    25   25   11 1
    26   26   11 1
    27   27   12 1
    28   28   13 1
    29   29   13 1
    30   30   13 1
    31   31   14 1
    32   32   14 1
    33   33   14 1
    34   34   35 1
    35   35   40 2
    36   36    3 1
    37   37   36 1
    38   38   37 1
    39   39   34 1
    40   40    3 1
    41   41   39 1
    42   42   41 1
    43   43   41 1
    44   44   39 1
    45   45   44 1
    46   46   44 1
    47   47   36 1
    48   48   36 1
    49   49   37 1
    50   50   37 1
    51   51   38 1
    52   52   41 1
    53   53   42 1
    54   54   42 1
    55   55   42 1
    56   56   43 1
    57   57   43 1
    58   58   43 1
    59   59   44 1
    60   60   45 1
    61   61   45 1
    62   62   45 1
    63   63   46 1
    64   64   46 1
    65   65   46 1
    66    6    8 1
    67   38   39 1
    68   38   40 1
@<TRIPOS>SUBSTRUCTURE
     1 RES1 1

@<TRIPOS>CRYSIN
   6.9960   26.3050   11.9770  90.0000  90.0000  90.0000  56 1

