# MOL2 file generated by ConQuest
# Please check atom types

@<TRIPOS>MOLECULE
RUXFAT
    28    30     1
SMALL
NO_CHARGES
****
Generated from CSD

@<TRIPOS>ATOM
      1 O1        -8.5288    0.3547   -9.6576 O.2       1 RES1    0.0000
      2 O2        -6.5921   -0.5247   -7.0714 O.3       1 RES1    0.0000
      3 O3        -6.4391   -2.0425   -8.7395 O.3       1 RES1    0.0000
      4 O4        -8.5984    4.4251   -7.3769 O.2       1 RES1    0.0000
      5 O5        -7.6913    5.1455   -5.5615 O.2       1 RES1    0.0000
      6 O6        -5.0051    5.7318   -5.2247 O.2       1 RES1    0.0000
      7 O7        -3.8610    4.0790   -4.4415 O.2       1 RES1    0.0000
      8 N1        -5.4271    2.0357   -7.6103 N.pl3     1 RES1    0.0000
      9 N2        -6.6299    2.6424   -7.6629 N.2       1 RES1    0.0000
     10 N3        -7.6868    4.4653   -6.5722 N.pl3     1 RES1    0.0000
     11 N4        -4.6750    4.5559   -5.2093 N.pl3     1 RES1    0.0000
     12 C1        -5.1679    0.8349   -8.4349 C.3       1 RES1    0.0000
     13 H1        -4.2784    0.8905   -8.7915 H         1 RES1    0.0000
     14 C2        -6.1669    0.7512   -9.5866 C.3       1 RES1    0.0000
     15 H2        -5.7677    0.2547  -10.3050 H         1 RES1    0.0000
     16 H3        -6.3622    1.6340   -9.9095 H         1 RES1    0.0000
     17 C3        -7.4471    0.0761   -9.1988 C.2       1 RES1    0.0000
     18 C4        -7.2693   -1.0400   -8.1926 C.3       1 RES1    0.0000
     19 H4        -8.1211   -1.3956   -7.9304 H         1 RES1    0.0000
     20 C5        -5.2513   -0.4145   -7.5655 C.3       1 RES1    0.0000
     21 H5        -4.6268   -0.3743   -6.8385 H         1 RES1    0.0000
     22 C6        -5.0859   -1.6964   -8.3789 C.3       1 RES1    0.0000
     23 H6        -4.5532   -1.5323   -9.1609 H         1 RES1    0.0000
     24 H7        -4.6776   -2.3903   -7.8562 H         1 RES1    0.0000
     25 C7        -6.5192    3.6432   -6.8016 C.2       1 RES1    0.0000
     26 C8        -5.2597    3.6560   -6.1838 C.2       1 RES1    0.0000
     27 C9        -4.5910    2.5971   -6.7265 C.2       1 RES1    0.0000
     28 H8        -3.7021    2.3031   -6.5114 H         1 RES1    0.0000
@<TRIPOS>BOND
     1    1   17 2
     2    2   18 1
     3    3   18 1
     4    4   10 2
     5    5   10 2
     6    6   11 2
     7    7   11 2
     8    8    9 1
     9    9   25 2
    10   10   25 1
    11   11   26 1
    12   12    8 1
    13   13   12 1
    14   14   12 1
    15   15   14 1
    16   16   14 1
    17   17   14 1
    18   18   17 1
    19   19   18 1
    20   20    2 1
    21   21   20 1
    22   22    3 1
    23   23   22 1
    24   24   22 1
    25   25   26 1
    26   26   27 2
    27   27    8 1
    28   28   27 1
    29   12   20 1
    30   20   22 1
@<TRIPOS>SUBSTRUCTURE
     1 RES1 1

@<TRIPOS>CRYSIN
   6.5120    8.5460   20.0720  90.0000  90.0000  90.0000  19 1

