# MOL2 file generated by ConQuest
# Please check atom types

@<TRIPOS>MOLECULE
RUXGOI
    43    44     1
SMALL
NO_CHARGES
****
Generated from CSD

@<TRIPOS>ATOM
      1 O1         5.8020    5.4084    5.2003 O.3       1 RES1    0.0000
      2 N1         5.3176    6.5209    4.5011 N.2       1 RES1    0.0000
      3 C1         5.1800    7.4784    5.3742 C.2       1 RES1    0.0000
      4 C2         5.5631    7.0505    6.6728 C.2       1 RES1    0.0000
      5 C3         5.9419    5.7519    6.4977 C.2       1 RES1    0.0000
      6 C4         4.6724    8.8035    4.9428 C.3       1 RES1    0.0000
      7 H1         4.4198    8.7636    4.0174 H         1 RES1    0.0000
      8 H2         5.3597    9.4633    5.0587 H         1 RES1    0.0000
      9 H3         3.9085    9.0415    5.4736 H         1 RES1    0.0000
     10 C5         5.5896    7.9189    7.8758 C.3       1 RES1    0.0000
     11 H4         4.8749    8.5802    7.7606 H         1 RES1    0.0000
     12 C6         5.2858    7.1585    9.2019 C.ar      1 RES1    0.0000
     13 C7         4.0757    6.4752    9.2737 C.ar      1 RES1    0.0000
     14 H5         3.4812    6.5025    8.5589 H         1 RES1    0.0000
     15 C8         3.7585    5.7498   10.4210 C.ar      1 RES1    0.0000
     16 C9         4.6387    5.7168   11.4949 C.ar      1 RES1    0.0000
     17 C10        5.8402    6.4210   11.4202 C.ar      1 RES1    0.0000
     18 C11        6.1584    7.1376   10.2765 C.ar      1 RES1    0.0000
     19 H6         6.9601    7.6064   10.2314 H         1 RES1    0.0000
     20 C12        6.9177    8.7095    7.9589 C.3       1 RES1    0.0000
     21 H7         6.9945    9.2744    7.1736 H         1 RES1    0.0000
     22 H8         6.8875    9.2890    8.7359 H         1 RES1    0.0000
     23 O2         8.0659    7.8967    8.0449 O.3       1 RES1    0.0000
     24 H9         8.3920    7.8233    7.2168 H         1 RES1    0.0000
     25 O3         2.5936    5.0546   10.5850 O.3       1 RES1    0.0000
     26 C13        1.6807    5.0407    9.4896 C.3       1 RES1    0.0000
     27 H10        1.3998    5.9377    9.2964 H         1 RES1    0.0000
     28 H11        0.9162    4.5075    9.7172 H         1 RES1    0.0000
     29 H12        2.1132    4.6681    8.7182 H         1 RES1    0.0000
     30 O4         4.3808    4.9258   12.5937 O.3       1 RES1    0.0000
     31 C14        3.4718    5.4439   13.5279 C.3       1 RES1    0.0000
     32 H13        3.3652    4.8201   14.2498 H         1 RES1    0.0000
     33 H14        2.6240    5.5889   13.1024 H         1 RES1    0.0000
     34 H15        3.8044    6.2759   13.8713 H         1 RES1    0.0000
     35 O5         6.6216    6.3530   12.5289 O.3       1 RES1    0.0000
     36 C15        7.8162    7.0946   12.5225 C.3       1 RES1    0.0000
     37 H16        8.4169    6.7268   11.8695 H         1 RES1    0.0000
     38 H17        8.2227    7.0524   13.3905 H         1 RES1    0.0000
     39 H18        7.6241    8.0083   12.3021 H         1 RES1    0.0000
     40 C16        6.4236    4.6864    7.3893 C.3       1 RES1    0.0000
     41 H19        5.6864    4.1278    7.6475 H         1 RES1    0.0000
     42 H20        6.8181    5.0784    8.1725 H         1 RES1    0.0000
     43 H21        7.0806    4.1582    6.9307 H         1 RES1    0.0000
@<TRIPOS>BOND
     1    1    2 1
     2    2    3 2
     3    3    4 1
     4    4    5 2
     5    5    1 1
     6    6    3 1
     7    7    6 1
     8    8    6 1
     9    9    6 1
    10   10    4 1
    11   11   10 1
    12   12   10 1
    13   13   12 ar
    14   14   13 1
    15   15   13 ar
    16   16   15 ar
    17   17   16 ar
    18   18   12 ar
    19   19   18 1
    20   20   10 1
    21   21   20 1
    22   22   20 1
    23   23   20 1
    24   24   23 1
    25   25   15 1
    26   26   25 1
    27   27   26 1
    28   28   26 1
    29   29   26 1
    30   30   16 1
    31   31   30 1
    32   32   31 1
    33   33   31 1
    34   34   31 1
    35   35   17 1
    36   36   35 1
    37   37   36 1
    38   38   36 1
    39   39   36 1
    40   40    5 1
    41   41   40 1
    42   42   40 1
    43   43   40 1
    44   17   18 ar
@<TRIPOS>SUBSTRUCTURE
     1 RES1 1

@<TRIPOS>CRYSIN
   7.7056   10.9002   11.0359  65.4880  72.5680  72.7250   2 1

