# MOL2 file generated by ConQuest
# Please check atom types

@<TRIPOS>MOLECULE
RUXLEC
    53    56     1
SMALL
NO_CHARGES
****
Generated from CSD

@<TRIPOS>ATOM
      1 O1        11.0117   -2.9930    1.7818 O.3       1 RES1    0.0000
      2 O2         9.3717   -1.2431    3.4332 O.2       1 RES1    0.0000
      3 N1        10.5848   -3.1754    4.9124 N.3       1 RES1    0.0000
      4 N2         9.5904   -2.2883    5.4640 N.am      1 RES1    0.0000
      5 N3         8.5980   -1.4338    7.4261 N.2       1 RES1    0.0000
      6 O3        13.1102   -3.3568    1.0855 O.2       1 RES1    0.0000
      7 O4        12.1710    2.2615   -2.8802 O.2       1 RES1    0.0000
      8 O5        10.9948    3.1057   -1.2913 O.2       1 RES1    0.0000
      9 C1         8.1086   -0.4310    5.2678 C.ar      1 RES1    0.0000
     10 C2        11.9556   -1.4107    0.3511 C.ar      1 RES1    0.0000
     11 C3         7.8693   -0.5670    6.6310 C.ar      1 RES1    0.0000
     12 C4        10.0642   -3.9297    3.7381 C.3       1 RES1    0.0000
     13 H1         9.1469   -3.7164    3.4645 H         1 RES1    0.0000
     14 C5         7.4465    0.5496    4.5222 C.ar      1 RES1    0.0000
     15 H2         7.6271    0.6472    3.6146 H         1 RES1    0.0000
     16 C6         9.0660   -1.3059    4.6086 C.2       1 RES1    0.0000
     17 N4        11.6430    2.2038   -1.7828 N.pl3     1 RES1    0.0000
     18 C7         9.4491   -2.2162    6.8543 C.2       1 RES1    0.0000
     19 C8        12.1160   -2.6884    1.1044 C.2       1 RES1    0.0000
     20 C9        10.2052   -4.6199    5.0371 C.3       1 RES1    0.0000
     21 H3         9.3613   -4.7813    5.5076 H         1 RES1    0.0000
     22 C10       11.0408   -0.4566    0.7452 C.ar      1 RES1    0.0000
     23 H4        10.4811   -0.6213    1.4692 H         1 RES1    0.0000
     24 C11       11.0414   -4.1815    2.6192 C.3       1 RES1    0.0000
     25 H5        11.9424   -4.3214    2.9796 H         1 RES1    0.0000
     26 C12       11.3039   -5.5792    5.3819 C.3       1 RES1    0.0000
     27 H6        11.0464   -6.4673    5.1250 H         1 RES1    0.0000
     28 H7        11.4658   -5.5538    6.3284 H         1 RES1    0.0000
     29 H8        12.1044   -5.3305    4.9137 H         1 RES1    0.0000
     30 C13       10.3556   -3.0644    7.6941 C.3       1 RES1    0.0000
     31 H9        11.2451   -3.0500    7.3082 H         1 RES1    0.0000
     32 H10       10.0385   -3.9818    7.6697 H         1 RES1    0.0000
     33 C14       11.7642    0.9447   -1.0232 C.ar      1 RES1    0.0000
     34 C15        6.9074    0.2652    7.2315 C.ar      1 RES1    0.0000
     35 H11        6.7116    0.1702    8.1357 H         1 RES1    0.0000
     36 C16        6.5326    1.3649    5.1328 C.ar      1 RES1    0.0000
     37 H12        6.0945    2.0210    4.6412 H         1 RES1    0.0000
     38 C17       12.7926   -1.1683   -0.7363 C.ar      1 RES1    0.0000
     39 H13       13.4254   -1.8023   -0.9865 H         1 RES1    0.0000
     40 C18       10.9538    0.7482    0.0645 C.ar      1 RES1    0.0000
     41 H14       10.3585    1.4079    0.3392 H         1 RES1    0.0000
     42 C19        6.2581    1.2137    6.4874 C.ar      1 RES1    0.0000
     43 H15        5.6259    1.7620    6.8922 H         1 RES1    0.0000
     44 C20       12.6822    0.0081   -1.4403 C.ar      1 RES1    0.0000
     45 H16       13.2185    0.1677   -2.1832 H         1 RES1    0.0000
     46 C21       10.6130   -5.3757    1.7929 C.3       1 RES1    0.0000
     47 H17        9.7398   -5.2163    1.4281 H         1 RES1    0.0000
     48 H18       10.5896   -6.1584    2.3489 H         1 RES1    0.0000
     49 H19       11.2389   -5.5112    1.0777 H         1 RES1    0.0000
     50 C22       10.4403   -2.6134    9.1366 C.3       1 RES1    0.0000
     51 H20       10.7254   -1.6980    9.1700 H         1 RES1    0.0000
     52 H21       11.0727   -3.1621    9.6071 H         1 RES1    0.0000
     53 H22        9.5776   -2.6946    9.5493 H         1 RES1    0.0000
@<TRIPOS>BOND
     1    1   19 1
     2    2   16 2
     3    3    4 1
     4    4   16 1
     5    5   11 1
     6    6   19 2
     7    7   17 2
     8    8   17 2
     9    9   11 ar
    10   10   19 1
    11   11   34 ar
    12   12    3 1
    13   13   12 1
    14   14    9 ar
    15   15   14 1
    16   16    9 1
    17   17   33 1
    18   18    4 1
    19   20    3 1
    20   21   20 1
    21   22   10 ar
    22   23   22 1
    23   24    1 1
    24   25   24 1
    25   26   20 1
    26   27   26 1
    27   28   26 1
    28   29   26 1
    29   30   18 1
    30   31   30 1
    31   32   30 1
    32   33   40 ar
    33   34   35 1
    34   36   14 ar
    35   37   36 1
    36   38   10 ar
    37   39   38 1
    38   40   22 ar
    39   41   40 1
    40   42   34 ar
    41   43   42 1
    42   44   33 ar
    43   45   44 1
    44   46   24 1
    45   47   46 1
    46   48   46 1
    47   49   46 1
    48   50   30 1
    49   51   50 1
    50   52   50 1
    51   53   50 1
    52    5   18 2
    53   12   20 1
    54   12   24 1
    55   36   42 ar
    56   38   44 ar
@<TRIPOS>SUBSTRUCTURE
     1 RES1 1

@<TRIPOS>CRYSIN
   9.2770   10.2500   11.1920  83.5860  88.6850  76.6960   2 1

