# MOL2 file generated by ConQuest
# Please check atom types

@<TRIPOS>MOLECULE
RUZYIV01
   120   122     2
SMALL
NO_CHARGES
****
Generated from CSD

@<TRIPOS>ATOM
      1 H1         6.0705    2.6062   28.2107 H         1 RES1    0.0000
      2 H2         7.5801   -3.3336   16.4273 H         2 RES2    0.0000
      3 H3         8.5193   -5.0201   22.5440 H         2 RES2    0.0000
      4 H4         6.1277   -0.6996   23.7306 H         1 RES1    0.0000
      5 C1         5.2474    2.3301   16.6748 C.ar      1 RES1    0.0000
      6 O1         5.1486    4.4312   15.6804 O.2       1 RES1    0.0000
      7 C2         8.5264   -5.6862   27.4968 C.ar      2 RES2    0.0000
      8 N1         8.5472   -7.8205   26.1901 N.pl3     2 RES2    0.0000
      9 C3         7.6692   -4.2535   16.5643 C.ar      2 RES2    0.0000
     10 O2         5.2304    4.3174   17.8219 O.2       1 RES1    0.0000
     11 O3         8.4607   -8.3586   25.0977 O.2       2 RES2    0.0000
     12 C4         5.4075    0.2192   15.5906 C.ar      1 RES1    0.0000
     13 N2         5.4066    2.2571   14.2306 N.pl3     1 RES1    0.0000
     14 H5         5.0713    3.0483   14.1933 H         1 RES1    0.0000
     15 C5         5.9370    0.8732   24.9519 C.ar      1 RES1    0.0000
     16 C6         7.8693   -6.3340   15.3921 C.ar      2 RES2    0.0000
     17 H6         7.9713   -6.8000   14.5943 H         2 RES2    0.0000
     18 O4         8.6855   -8.4841   27.2384 O.2       2 RES2    0.0000
     19 C7         8.2202   -3.6242   26.1568 C.ar      2 RES2    0.0000
     20 H7         8.1221   -2.6992   26.1384 H         2 RES2    0.0000
     21 C8         6.0972    0.8529   27.3699 C.ar      1 RES1    0.0000
     22 N3         7.4156   -4.2152   18.9642 N.am      2 RES2    0.0000
     23 H8         6.9919   -3.4680   18.9169 H         2 RES2    0.0000
     24 C9         5.9444    2.9580   26.1670 C.ar      1 RES1    0.0000
     25 C10        8.2775   -5.7247   25.0419 C.ar      2 RES2    0.0000
     26 H9         8.2416   -6.2261   24.2604 H         2 RES2    0.0000
     27 N4         8.7080   -3.3924   28.5184 N.pl3     2 RES2    0.0000
     28 C11        7.6274   -6.3462   17.7795 C.ar      2 RES2    0.0000
     29 H10        7.5561   -6.8090   18.5835 H         2 RES2    0.0000
     30 N5         5.2021    3.7755   16.7372 N.pl3     1 RES1    0.0000
     31 N6         8.5992   -6.3028   28.7101 N.3       2 RES2    0.0000
     32 H11        8.9929   -7.0669   28.7324 H         2 RES2    0.0000
     33 O5         4.2764   -0.5805   13.7498 O.2       1 RES1    0.0000
     34 O6         9.7595   -3.5149   29.0982 O.2       2 RES2    0.0000
     35 C12        7.9308   -4.1739   14.0788 C.3       2 RES2    0.0000
     36 H12        7.1139   -3.6970   13.9172 H         2 RES2    0.0000
     37 H13        8.0925   -4.7867   13.3587 H         2 RES2    0.0000
     38 H14        8.6586   -3.5500   14.1381 H         2 RES2    0.0000
     39 N7         5.2850   -0.6701   14.4388 N.pl3     1 RES1    0.0000
     40 C13        5.4730   -0.4196   16.8139 C.ar      1 RES1    0.0000
     41 H15        5.5802   -1.3427   16.8487 H         1 RES1    0.0000
     42 C14        8.4803   -6.3674   26.2652 C.ar      2 RES2    0.0000
     43 C15        5.3804    0.3069   17.9861 C.ar      1 RES1    0.0000
     44 O7         6.1717   -1.5001   14.2674 O.2       1 RES1    0.0000
     45 C16        7.8184   -4.9398   15.3758 C.ar      2 RES2    0.0000
     46 O8         7.8436   -2.5573   28.7815 O.2       2 RES2    0.0000
     47 O9         6.1174   -1.5073   19.3269 O.2       1 RES1    0.0000
     48 C17        7.7359   -3.6444   23.7183 C.2       2 RES2    0.0000
     49 O10        7.1432   -2.5552   23.7788 O.2       2 RES2    0.0000
     50 C18        8.4555   -4.2659   27.3617 C.ar      2 RES2    0.0000
     51 C19        5.4830   -0.4502   19.2852 C.2       1 RES1    0.0000
     52 N8         7.9503   -4.2726   22.5674 N.am      2 RES2    0.0000
     53 C20        7.7692   -7.0391   16.5950 C.ar      2 RES2    0.0000
     54 O11        4.3412    1.4790   22.6987 O.2       1 RES1    0.0000
     55 N9         4.8765    0.0837   20.3543 N.am      1 RES1    0.0000
     56 H16        4.4889    0.8477   20.2774 H         1 RES1    0.0000
     57 C21        7.5905   -4.9485   17.7734 C.ar      2 RES2    0.0000
     58 C22       10.2809   -6.4703   32.0281 C.3       2 RES2    0.0000
     59 H17       11.1212   -6.8856   32.2367 H         2 RES2    0.0000
     60 H18        9.8821   -6.1314   32.8320 H         2 RES2    0.0000
     61 H19       10.4264   -5.7464   31.4143 H         2 RES2    0.0000
     62 C23        7.7984   -8.5469   16.6196 C.3       2 RES2    0.0000
     63 H20        8.6793   -8.8462   16.8548 H         2 RES2    0.0000
     64 H21        7.5662   -8.8853   15.7522 H         2 RES2    0.0000
     65 H22        7.1671   -8.8679   17.2681 H         2 RES2    0.0000
     66 C24        8.0001   -6.9451   30.9847 C.3       2 RES2    0.0000
     67 H23        7.5272   -6.6374   31.7744 H         2 RES2    0.0000
     68 H24        7.4879   -7.6714   30.5981 H         2 RES2    0.0000
     69 O12        8.6236   -5.5551   20.3498 O.2       2 RES2    0.0000
     70 C25        7.8704   -4.6062   20.1812 C.2       2 RES2    0.0000
     71 N10        5.8469    0.1260   23.7488 N.am      1 RES1    0.0000
     72 C26        8.1294   -4.3481   24.9805 C.ar      2 RES2    0.0000
     73 C27        6.0538    0.1733   26.1588 C.ar      1 RES1    0.0000
     74 H25        6.1022   -0.7555   26.1507 H         1 RES1    0.0000
     75 C28        5.3452    1.6387   15.4351 C.ar      1 RES1    0.0000
     76 C29        8.0750   -5.7985   29.9762 C.3       2 RES2    0.0000
     77 H26        7.1915   -5.4232   29.8391 H         2 RES2    0.0000
     78 H27        8.6539   -5.0986   30.3158 H         2 RES2    0.0000
     79 C30        5.9743    1.7396   12.9925 C.3       1 RES1    0.0000
     80 H28        5.4166    1.0213   12.6549 H         1 RES1    0.0000
     81 H29        6.8575    1.3784   13.1643 H         1 RES1    0.0000
     82 C31        5.8988    4.4619   26.1834 C.3       1 RES1    0.0000
     83 H30        6.5601    4.8092   25.5799 H         1 RES1    0.0000
     84 H31        6.0787    4.7786   27.0712 H         1 RES1    0.0000
     85 H32        5.0282    4.7591   25.9093 H         1 RES1    0.0000
     86 C32        5.7756   -4.1309   21.4250 C.3       2 RES2    0.0000
     87 H33        5.4294   -3.7915   22.2535 H         2 RES2    0.0000
     88 H34        5.6292   -5.0780   21.3800 H         2 RES2    0.0000
     89 H35        5.3269   -3.7027   20.6926 H         2 RES2    0.0000
     90 C33        4.8581   -0.5979   21.6460 C.3       1 RES1    0.0000
     91 H36        5.6046   -1.2303   21.6950 H         1 RES1    0.0000
     92 C34        7.2738   -3.8420   21.3424 C.3       2 RES2    0.0000
     93 H37        7.4152   -2.8818   21.2102 H         2 RES2    0.0000
     94 C35        4.7307    3.3945   11.4664 C.3       1 RES1    0.0000
     95 H38        4.2821    3.8138   12.2171 H         1 RES1    0.0000
     96 H39        4.8960    4.0824   10.8035 H         1 RES1    0.0000
     97 C36        5.2442    1.6751   17.9125 C.ar      1 RES1    0.0000
     98 H40        5.1482    2.1695   18.6940 H         1 RES1    0.0000
     99 C37        9.3699   -7.4754   31.4062 C.3       2 RES2    0.0000
    100 H41        9.2379   -8.2005   32.0363 H         2 RES2    0.0000
    101 H42        9.8093   -7.8444   30.6247 H         2 RES2    0.0000
    102 C38        6.1772    0.0852   28.6649 C.3       1 RES1    0.0000
    103 H43        7.0699   -0.2484   28.7856 H         1 RES1    0.0000
    104 H44        5.5611   -0.6508   28.6403 H         1 RES1    0.0000
    105 H45        5.9525    0.6657   29.3952 H         1 RES1    0.0000
    106 C39        6.0464    2.2444   27.3638 C.ar      1 RES1    0.0000
    107 C40        3.5387   -1.3456   21.8505 C.3       1 RES1    0.0000
    108 H46        3.4298   -1.9985   21.1550 H         1 RES1    0.0000
    109 H47        2.8091   -0.7225   21.8219 H         1 RES1    0.0000
    110 H48        3.5491   -1.7864   22.7036 H         1 RES1    0.0000
    111 C41        6.0711    2.8467   11.9451 C.3       1 RES1    0.0000
    112 H49        6.5889    3.5781   12.3153 H         1 RES1    0.0000
    113 H50        6.5564    2.5042   11.1779 H         1 RES1    0.0000
    114 C42        3.8057    2.3578   10.8670 C.3       1 RES1    0.0000
    115 H51        2.9816    2.7768   10.6092 H         1 RES1    0.0000
    116 H52        3.6279    1.6747   11.5175 H         1 RES1    0.0000
    117 H53        4.2212    1.9658   10.0957 H         1 RES1    0.0000
    118 C43        5.8920    2.2593   24.9723 C.ar      1 RES1    0.0000
    119 H54        5.8256    2.7270   24.1704 H         1 RES1    0.0000
    120 C44        4.9982    0.4347   22.7363 C.2       1 RES1    0.0000
@<TRIPOS>BOND
     1    1  106 1
     2    2    9 1
     3    3   52 1
     4    4   71 1
     5    5   30 1
     6    6   30 2
     7    7   31 1
     8    8   11 2
     9    9   45 ar
    10   10   30 2
    11   12   39 1
    12   13   14 1
    13   15   71 1
    14   16   17 1
    15   18    8 2
    16   19   20 1
    17   21   73 ar
    18   22   23 1
    19   24   82 1
    20   25   26 1
    21   27   34 2
    22   28   29 1
    23   31   32 1
    24   33   39 2
    25   35   36 1
    26   37   35 1
    27   38   35 1
    28   39   44 2
    29   40   12 ar
    30   41   40 1
    31   42    7 ar
    32   43   40 ar
    33   45   16 ar
    34   46   27 2
    35   47   51 2
    36   48   49 2
    37   50    7 ar
    38   51   43 1
    39   52   48 1
    40   53   16 ar
    41   54  120 2
    42   55   51 1
    43   56   55 1
    44   57    9 ar
    45   58   59 1
    46   60   58 1
    47   61   58 1
    48   62   53 1
    49   63   62 1
    50   64   62 1
    51   65   62 1
    52   66   67 1
    53   68   66 1
    54   69   70 2
    55   70   22 1
    56   71  120 1
    57   72   19 ar
    58   73   15 ar
    59   74   73 1
    60   75    5 ar
    61   76   31 1
    62   77   76 1
    63   78   76 1
    64   79   13 1
    65   80   79 1
    66   81   79 1
    67   82   83 1
    68   84   82 1
    69   85   82 1
    70   86   87 1
    71   88   86 1
    72   89   86 1
    73   90   55 1
    74   91   90 1
    75   92   52 1
    76   93   92 1
    77   94   95 1
    78   96   94 1
    79   97    5 ar
    80   98   97 1
    81   99   58 1
    82  100   99 1
    83  101   99 1
    84  102   21 1
    85  103  102 1
    86  104  102 1
    87  105  102 1
    88  106   21 ar
    89  107   90 1
    90  108  107 1
    91  109  107 1
    92  110  107 1
    93  111   79 1
    94  112  111 1
    95  113  111 1
    96  114   94 1
    97  115  114 1
    98  116  114 1
    99  117  114 1
   100  118   15 ar
   101  119  118 1
   102  120   90 1
   103    8   42 1
   104   12   75 ar
   105   13   75 1
   106   19   50 ar
   107   22   57 1
   108   24  106 ar
   109   24  118 ar
   110   25   42 ar
   111   25   72 ar
   112   27   50 1
   113   28   53 ar
   114   28   57 ar
   115   35   45 1
   116   43   97 ar
   117   48   72 1
   118   66   76 1
   119   66   99 1
   120   70   92 1
   121   86   92 1
   122   94  111 1
@<TRIPOS>SUBSTRUCTURE
     1 RES1 1
     2 RES2 2

@<TRIPOS>CRYSIN
   6.8906    7.8604   20.7680  82.5440  82.5550  82.3770   1 1

