# MOL2 file generated by ConQuest
# Please check atom types

@<TRIPOS>MOLECULE
RUZYER
    60    61     1
SMALL
NO_CHARGES
****
Generated from CSD

@<TRIPOS>ATOM
      1 H1        11.5929    5.7676    3.8126 H         1 RES1    0.0000
      2 H2         7.0540    0.8406    9.4656 H         1 RES1    0.0000
      3 H3         5.2566    1.9079   13.0326 H         1 RES1    0.0000
      4 H4         5.7589    4.7326   10.0638 H         1 RES1    0.0000
      5 H5        10.1703   11.4044    3.6489 H         1 RES1    0.0000
      6 H6        11.5556   12.0006    4.1083 H         1 RES1    0.0000
      7 H7         8.1263    3.5102    6.1624 H         1 RES1    0.0000
      8 H8         7.3091    2.5195    7.9112 H         1 RES1    0.0000
      9 H9         7.9266    6.2210    5.9820 H         1 RES1    0.0000
     10 H10        9.2768    7.9974    6.3567 H         1 RES1    0.0000
     11 H11       12.3559    9.9905    2.5954 H         1 RES1    0.0000
     12 H12       10.7149   11.6314    1.2769 H         1 RES1    0.0000
     13 H13       12.2126   12.0048    1.5961 H         1 RES1    0.0000
     14 H14        6.5695    4.2272    4.4969 H         1 RES1    0.0000
     15 H15        5.8465    3.3988    5.6627 H         1 RES1    0.0000
     16 H16        5.7163    5.0592    5.6072 H         1 RES1    0.0000
     17 H17       11.4547   14.3013    2.3595 H         1 RES1    0.0000
     18 H18        6.2481   -0.2733   12.7411 H         1 RES1    0.0000
     19 H19        5.8683   -0.8215   11.3671 H         1 RES1    0.0000
     20 H20        7.3002   -0.5875   11.6031 H         1 RES1    0.0000
     21 H21        9.9208   13.6409    2.2901 H         1 RES1    0.0000
     22 O1        11.2673   11.0052    6.0536 O.2       1 RES1    0.0000
     23 N1         6.9861    3.1517    8.3393 N.am      1 RES1    0.0000
     24 O2         6.7512    5.4037    8.2475 O.2       1 RES1    0.0000
     25 C1         9.9006    7.9119    5.5889 C.ar      1 RES1    0.0000
     26 C2         7.0742    4.3370    7.7378 C.2       1 RES1    0.0000
     27 O3        10.1510    4.3093    5.2965 O.2       1 RES1    0.0000
     28 N2        10.3058   10.2536    5.9008 N.pl3     1 RES1    0.0000
     29 O4         9.2244   10.4373    6.4346 O.2       1 RES1    0.0000
     30 N3         8.3308    5.4587    5.9757 N.am      1 RES1    0.0000
     31 C3         9.5609    5.3747    5.4630 C.2       1 RES1    0.0000
     32 N4        11.7264   10.1577    3.2955 N.3       1 RES1    0.0000
     33 C4        11.3563    9.0578    3.9668 C.ar      1 RES1    0.0000
     34 C5         6.4651    2.8452    9.6161 C.ar      1 RES1    0.0000
     35 C6        10.2081    6.6649    5.0579 C.ar      1 RES1    0.0000
     36 N5        12.7413    7.5396    2.5042 N.pl3     1 RES1    0.0000
     37 C7        11.2079    6.6078    4.1012 C.ar      1 RES1    0.0000
     38 C8        10.5020    9.0533    5.1037 C.ar      1 RES1    0.0000
     39 C9         6.6130    1.5342   10.0638 C.ar      1 RES1    0.0000
     40 C10       11.7546    7.7485    3.5675 C.ar      1 RES1    0.0000
     41 O5        12.9492    8.4405    1.6906 O.2       1 RES1    0.0000
     42 C11        6.1751    1.1740   11.3366 C.ar      1 RES1    0.0000
     43 C12        5.8393    3.7899   10.4275 C.ar      1 RES1    0.0000
     44 O6        13.3157    6.4697    2.4511 O.2       1 RES1    0.0000
     45 C13        7.5371    4.2811    6.2892 C.3       1 RES1    0.0000
     46 C14        5.3837    3.4309   11.6876 C.ar      1 RES1    0.0000
     47 C15        5.5653    2.1300   12.1305 C.ar      1 RES1    0.0000
     48 C16       11.2619   12.1096    1.9306 C.3       1 RES1    0.0000
     49 C17       11.1558   11.4933    3.3199 C.3       1 RES1    0.0000
     50 C18        4.7120    4.4611   12.5566 C.3       1 RES1    0.0000
     51 H22        4.4562    4.0595   13.3907 H         1 RES1    0.0000
     52 H23        3.9318    4.7971   12.1110 H         1 RES1    0.0000
     53 H24        5.3211    5.1847   12.7245 H         1 RES1    0.0000
     54 C19        6.3165    4.2096    5.3810 C.3       1 RES1    0.0000
     55 C20       10.8531   14.1723    0.5607 C.3       1 RES1    0.0000
     56 H25       10.5749   15.0884    0.6246 H         1 RES1    0.0000
     57 H26       10.2516   13.6945   -0.0139 H         1 RES1    0.0000
     58 H27       11.7418   14.1329    0.1985 H         1 RES1    0.0000
     59 C21       10.8423   13.5536    1.9167 C.3       1 RES1    0.0000
     60 C22        6.3740   -0.2374   11.8307 C.3       1 RES1    0.0000
@<TRIPOS>BOND
     1    1   37 1
     2    2   39 1
     3    3   47 1
     4    4   43 1
     5    5   49 1
     6    6   49 1
     7    7   45 1
     8    8   23 1
     9    9   30 1
    10   10   25 1
    11   11   32 1
    12   12   48 1
    13   13   48 1
    14   14   54 1
    15   15   54 1
    16   16   54 1
    17   17   59 1
    18   18   60 1
    19   19   60 1
    20   20   60 1
    21   21   59 1
    22   22   28 2
    23   23   26 1
    24   24   26 2
    25   25   35 ar
    26   26   45 1
    27   27   31 2
    28   28   29 2
    29   30   31 1
    30   31   35 1
    31   32   33 1
    32   33   38 ar
    33   34   23 1
    34   35   37 ar
    35   36   40 1
    36   37   40 ar
    37   38   25 ar
    38   39   34 ar
    39   40   33 ar
    40   41   36 2
    41   42   39 ar
    42   43   34 ar
    43   44   36 2
    44   45   30 1
    45   46   43 ar
    46   47   42 ar
    47   48   49 1
    48   49   32 1
    49   50   46 1
    50   51   50 1
    51   52   50 1
    52   53   50 1
    53   54   45 1
    54   55   56 1
    55   57   55 1
    56   58   55 1
    57   59   48 1
    58   60   42 1
    59   28   38 1
    60   46   47 ar
    61   55   59 1
@<TRIPOS>SUBSTRUCTURE
     1 RES1 1

@<TRIPOS>CRYSIN
   8.0181   10.5113   14.4050  75.4410  80.8070  73.4720   2 1

