# MOL2 file generated by ConQuest
# Please check atom types

@<TRIPOS>MOLECULE
RUZYIV
   120   122     2
SMALL
NO_CHARGES
****
Generated from CSD

@<TRIPOS>ATOM
      1 O1         7.1973    0.8901   16.6705 O.2       1 RES1    0.0000
      2 N1         7.2160   -0.0058   24.9990 N.pl3     1 RES1    0.0000
      3 O2         4.8090    5.2264   10.7091 O.2       2 RES2    0.0000
      4 C1         4.6501   10.0332    8.7070 C.3       2 RES2    0.0000
      5 H1         3.7952   10.4907    8.7466 H         2 RES2    0.0000
      6 H2         5.3077   10.6128    9.1220 H         2 RES2    0.0000
      7 O3         3.0673    6.3187   10.1335 O.2       2 RES2    0.0000
      8 C2         6.8162    2.6501   10.4755 C.3       1 RES1    0.0000
      9 H3         6.9265    2.0730    9.7164 H         1 RES1    0.0000
     10 H4         7.6048    3.1856   10.5881 H         1 RES1    0.0000
     11 H5         6.0588    3.2230   10.3337 H         1 RES1    0.0000
     12 C3         7.0090    0.4411   26.3421 C.3       1 RES1    0.0000
     13 H6         6.2327    1.0190   26.4005 H         1 RES1    0.0000
     14 H7         7.7847    0.9206   26.6716 H         1 RES1    0.0000
     15 C4         6.4364   -1.8526   12.7237 C.3       1 RES1    0.0000
     16 H8         6.3125   -2.2050   13.6080 H         1 RES1    0.0000
     17 H9         7.2743   -2.1604   12.3713 H         1 RES1    0.0000
     18 H10        5.7210   -2.1515   12.1585 H         1 RES1    0.0000
     19 C5         6.2683   -2.1359   29.0804 C.3       1 RES1    0.0000
     20 H11        6.5796   -2.1708   29.9897 H         1 RES1    0.0000
     21 H12        6.7126   -2.8166   28.5673 H         1 RES1    0.0000
     22 H13        5.3228   -2.2823   29.0595 H         1 RES1    0.0000
     23 C6         5.1163   11.1711    6.6257 C.3       2 RES2    0.0000
     24 H14        5.3486   11.0119    5.7080 H         2 RES2    0.0000
     25 H15        5.8032   11.7028    7.0407 H         2 RES2    0.0000
     26 H16        4.2813   11.6374    6.6716 H         2 RES2    0.0000
     27 C7         6.5877   -0.7854   28.4964 C.3       1 RES1    0.0000
     28 H17        5.8502   -0.1776   28.6758 H         1 RES1    0.0000
     29 H18        7.3811   -0.4271   28.9198 H         1 RES1    0.0000
     30 C8         5.0039    9.8734    7.3389 C.3       2 RES2    0.0000
     31 H19        4.3299    9.3295    6.8989 H         2 RES2    0.0000
     32 H20        5.8489    9.4030    7.2826 H         2 RES2    0.0000
     33 C9         6.7850   -0.8767   27.1429 C.3       1 RES1    0.0000
     34 H21        6.0177   -1.3294   26.7592 H         1 RES1    0.0000
     35 H22        7.5560   -1.4471   26.9969 H         1 RES1    0.0000
     36 O4         2.9473    7.9286   19.1047 O.2       2 RES2    0.0000
     37 C10        3.4239    5.8403   18.0313 C.3       2 RES2    0.0000
     38 H23        4.1642    5.2003   18.0814 H         2 RES2    0.0000
     39 C11        2.0963    5.0963   18.1711 C.3       2 RES2    0.0000
     40 H24        2.0179    4.4461   17.4703 H         2 RES2    0.0000
     41 H25        1.3714    5.7220   18.1106 H         2 RES2    0.0000
     42 H26        2.0672    4.6531   19.0220 H         2 RES2    0.0000
     43 H27        6.7298    0.0123   10.8030 H         1 RES1    0.0000
     44 H28        6.7233    0.1524   20.6049 H         1 RES1    0.0000
     45 H29        4.6413    8.8932   24.7759 H         2 RES2    0.0000
     46 H30        3.9239    8.7017   15.2451 H         2 RES2    0.0000
     47 H31        4.5019    9.1055   20.7300 H         2 RES2    0.0000
     48 H32        6.1450   -0.1619   14.7654 H         1 RES1    0.0000
     49 H33        6.0162    3.4959   17.5829 H         1 RES1    0.0000
     50 H34        6.7507    3.5463   22.4818 H         1 RES1    0.0000
     51 H35        7.1914   -0.8513   24.7759 H         1 RES1    0.0000
     52 H36        6.5097    3.3639   13.0344 H         1 RES1    0.0000
     53 H37        4.2327    9.9565   11.0532 H         2 RES2    0.0000
     54 H38        4.0423    5.4237   13.2221 H         2 RES2    0.0000
     55 C12        4.1875    6.2522   13.2355 C.ar      2 RES2    0.0000
     56 C13        3.9470    8.2773   14.4589 C.ar      2 RES2    0.0000
     57 C14        4.0995    8.3830   11.9896 C.ar      2 RES2    0.0000
     58 C15        6.4210    2.4352   12.9358 C.ar      1 RES1    0.0000
     59 C16        3.9777    8.9924   13.2743 C.ar      2 RES2    0.0000
     60 C17        6.2635    1.6719   14.0922 C.ar      1 RES1    0.0000
     61 C18        6.5935    1.8188   11.7101 C.ar      1 RES1    0.0000
     62 C19        4.0844    6.9000   14.4584 C.ar      2 RES2    0.0000
     63 C20        4.1494    6.9627   12.0611 C.ar      2 RES2    0.0000
     64 N2         6.0686    2.3394   15.3218 N.am      1 RES1    0.0000
     65 H39        5.6702    3.1016   15.3035 H         1 RES1    0.0000
     66 O5         3.9734   11.1711   12.4422 O.2       2 RES2    0.0000
     67 N3         3.8964   10.4465   13.4432 N.pl3     2 RES2    0.0000
     68 N4         4.1831    9.1098   10.8613 N.3       2 RES2    0.0000
     69 C21        6.9762   -0.0147   22.5923 C.ar      1 RES1    0.0000
     70 C22        6.4371   -0.3458   12.7800 C.ar      1 RES1    0.0000
     71 O6         3.7606   10.9012   14.5548 O.2       2 RES2    0.0000
     72 C23        4.6820    8.5899   23.7769 C.ar      2 RES2    0.0000
     73 C24        4.5187    8.6348   21.4015 C.ar      2 RES2    0.0000
     74 C25        4.6038    9.3156   22.6195 C.ar      2 RES2    0.0000
     75 O7         6.8975   -1.9921   21.4099 O.2       1 RES1    0.0000
     76 O8         7.1354   -2.1465   23.5225 O.2       1 RES1    0.0000
     77 N5         6.9942   -1.4742   22.4881 N.pl3     1 RES1    0.0000
     78 N6         7.3455    2.9440   24.8616 N.pl3     1 RES1    0.0000
     79 C26        7.0664    2.0716   23.6995 C.ar      1 RES1    0.0000
     80 C27        4.1274    6.0767   15.7068 C.2       2 RES2    0.0000
     81 O9         5.6887    3.8346   20.1627 O.2       1 RES1    0.0000
     82 C28        6.6754    2.0209   21.3333 C.ar      1 RES1    0.0000
     83 N7         6.5147    2.1360   18.9281 N.am      1 RES1    0.0000
     84 H40        7.0694    1.4791   18.8947 H         1 RES1    0.0000
     85 N8         4.3820    6.5286   20.1569 N.am      2 RES2    0.0000
     86 H41        4.8692    5.8261   20.0605 H         2 RES2    0.0000
     87 C29        6.2776    2.7438   20.0927 C.2       1 RES1    0.0000
     88 C30        6.2733    0.2850   14.0230 C.ar      1 RES1    0.0000
     89 N9         4.0287    6.1283   10.8561 N.pl3     2 RES2    0.0000
     90 C31        4.5463    8.7536    9.5433 C.3       2 RES2    0.0000
     91 H42        3.8776    8.1619    9.1637 H         2 RES2    0.0000
     92 H43        5.3980    8.2896    9.5475 H         2 RES2    0.0000
     93 O10        4.7706    5.0192   15.7175 O.2       2 RES2    0.0000
     94 C32        6.8131    2.7255   22.5227 C.ar      1 RES1    0.0000
     95 C33        4.6116   10.8272   22.6257 C.3       2 RES2    0.0000
     96 H44        4.5473   11.1511   21.7248 H         2 RES2    0.0000
     97 H45        5.4278   11.1411   23.0199 H         2 RES2    0.0000
     98 H46        3.8646   11.1489   23.1346 H         2 RES2    0.0000
     99 C34        4.5940    6.5406   22.5590 C.ar      2 RES2    0.0000
    100 H47        4.6058    5.6105   22.5319 H         2 RES2    0.0000
    101 C35        4.3623    2.2436   17.7623 C.3       1 RES1    0.0000
    102 H48        3.9598    2.6941   18.5068 H         1 RES1    0.0000
    103 H49        4.2501    1.2956   17.8624 H         1 RES1    0.0000
    104 H50        3.9407    2.5310   16.9490 H         1 RES1    0.0000
    105 O11        8.4026    2.8079   25.4224 O.2       1 RES1    0.0000
    106 C36        6.6019    0.4282   11.6559 C.ar      1 RES1    0.0000
    107 C37        4.5000    7.2518   21.3807 C.ar      2 RES2    0.0000
    108 C38        7.1023    0.6476   23.8374 C.ar      1 RES1    0.0000
    109 C39        6.7696    0.6434   21.3786 C.ar      1 RES1    0.0000
    110 C40        6.4651    1.8641   16.5277 C.2       1 RES1    0.0000
    111 N10        3.4773    6.5424   16.7583 N.am      2 RES2    0.0000
    112 H51        3.0674    7.2953   16.6883 H         2 RES2    0.0000
    113 C41        4.6725    7.1979   23.7894 C.ar      2 RES2    0.0000
    114 C42        3.5634    6.8659   19.1450 C.2       2 RES2    0.0000
    115 O12        6.5467    3.7869   25.1242 O.2       1 RES1    0.0000
    116 C43        5.8424    2.5750   17.7083 C.3       1 RES1    0.0000
    117 C44        4.6804    6.4127   25.0699 C.3       2 RES2    0.0000
    118 H52        4.6744    5.4741   24.8697 H         2 RES2    0.0000
    119 H53        3.9028    6.6349   25.5871 H         2 RES2    0.0000
    120 H54        5.4703    6.6268   25.5705 H         2 RES2    0.0000
@<TRIPOS>BOND
     1    1  110 2
     2    2   12 1
     3    3   89 2
     4    4    5 1
     5    6    4 1
     6    7   89 2
     7    8    9 1
     8   10    8 1
     9   11    8 1
    10   12   13 1
    11   14   12 1
    12   15   16 1
    13   17   15 1
    14   18   15 1
    15   19   20 1
    16   21   19 1
    17   22   19 1
    18   23   24 1
    19   25   23 1
    20   26   23 1
    21   27   19 1
    22   28   27 1
    23   29   27 1
    24   30    4 1
    25   31   30 1
    26   32   30 1
    27   33   12 1
    28   34   33 1
    29   35   33 1
    30   36  114 2
    31   37   38 1
    32   39   37 1
    33   40   39 1
    34   41   39 1
    35   42   39 1
    36   43  106 1
    37   44  109 1
    38   45   72 1
    39   46   56 1
    40   47   73 1
    41   48   88 1
    42   49  116 1
    43   50   94 1
    44   51    2 1
    45   52   58 1
    46   53   68 1
    47   54   55 1
    48   55   62 ar
    49   56   59 ar
    50   57   59 ar
    51   58   60 ar
    52   59   67 1
    53   60   64 1
    54   61    8 1
    55   62   56 ar
    56   63   55 ar
    57   64   65 1
    58   66   67 2
    59   67   71 2
    60   68   57 1
    61   69   77 1
    62   70   15 1
    63   72   74 ar
    64   73   74 ar
    65   74   95 1
    66   75   77 2
    67   76   77 2
    68   78   79 1
    69   79   94 ar
    70   80   62 1
    71   81   87 2
    72   82   87 1
    73   83   84 1
    74   85   86 1
    75   87   83 1
    76   88   60 ar
    77   89   63 1
    78   90    4 1
    79   91   90 1
    80   92   90 1
    81   93   80 2
    82   94   82 ar
    83   95   96 1
    84   97   95 1
    85   98   95 1
    86   99  100 1
    87  101  102 1
    88  103  101 1
    89  104  101 1
    90  105   78 2
    91  106   61 ar
    92  107   73 ar
    93  108    2 1
    94  109   69 ar
    95  110   64 1
    96  111   37 1
    97  112  111 1
    98  113   72 ar
    99  114   37 1
   100  115   78 2
   101  116   83 1
   102  117  113 1
   103  118  117 1
   104  119  117 1
   105  120  117 1
   106   23   30 1
   107   27   33 1
   108   57   63 ar
   109   58   61 ar
   110   68   90 1
   111   69  108 ar
   112   70   88 ar
   113   70  106 ar
   114   79  108 ar
   115   80  111 1
   116   82  109 ar
   117   85  107 1
   118   85  114 1
   119   99  107 ar
   120   99  113 ar
   121  101  116 1
   122  110  116 1
@<TRIPOS>SUBSTRUCTURE
     1 RES1 1
     2 RES2 3

@<TRIPOS>CRYSIN
   7.0890    7.9496   20.8571  89.2110  89.8380  81.0180   1 1

