# MOL2 file generated by ConQuest
# Please check atom types

@<TRIPOS>MOLECULE
SABCOP
    28    33     2
SMALL
NO_CHARGES
****
Generated from CSD

@<TRIPOS>ATOM
      1 C1         6.5865   -1.8907    1.6390 C.2       1 RES1    0.0000
      2 H1         7.0468   -2.6981    1.6390 H         1 RES1    0.0000
      3 C2         7.2856   -0.7109    1.6390 C.2       1 RES1    0.0000
      4 H2         8.2152   -0.7177    1.6390 H         1 RES1    0.0000
      5 C3         6.5884    0.5037    1.6390 C.2       1 RES1    0.0000
      6 C4         6.5877    2.8660    1.6390 C.2       1 RES1    0.0000
      7 C5         7.3857    4.1345    1.6390 C.3       1 RES1    0.0000
      8 H3         7.9537    4.1072    0.8588 H         1 RES1    0.0000
      9 C6         6.5172    5.3415    2.0540 C.3       1 RES1    0.0000
     10 H4         6.9844    6.1602    1.9734 Du        2 SUP2    0.0000
     11 H5         6.2659    5.2683    3.0158 Du        2 SUP2    0.0000
     12 N1         7.2834    1.7120    1.6390 N.2       1 RES1    0.0000
     13 O1         8.5790    1.7070    1.6390 O.2       1 RES1    0.0000
     14 C1B        5.1915   -1.8907    1.6390 C.2       1 RES1    0.0000
     15 H1B        4.7312   -2.6981    1.6390 H         1 RES1    0.0000
     16 C2B        4.4924   -0.7109    1.6390 C.2       1 RES1    0.0000
     17 H2B        3.5628   -0.7177    1.6390 H         1 RES1    0.0000
     18 C3B        5.1896    0.5037    1.6390 C.2       1 RES1    0.0000
     19 C4B        5.1903    2.8660    1.6390 C.2       1 RES1    0.0000
     20 C5B        4.3923    4.1345    1.6390 C.3       1 RES1    0.0000
     21 H3B        3.8243    4.1072    2.4192 H         1 RES1    0.0000
     22 H3K        3.8243    4.1072    0.8588 H         1 RES1    0.0000
     23 H3I        7.9537    4.1072    2.4192 H         1 RES1    0.0000
     24 C6B        5.2608    5.3415    1.2240 C.3       1 RES1    0.0000
     25 C6I        6.5172    5.3415    1.2240 C.3       1 RES1    0.0000
     26 C6K        5.2608    5.3415    2.0540 C.3       1 RES1    0.0000
     27 N1B        4.4946    1.7120    1.6390 N.2       1 RES1    0.0000
     28 O1B        3.1990    1.7070    1.6390 O.2       1 RES1    0.0000
@<TRIPOS>BOND
     1    1    2 1
     2    3    1 1
     3    4    3 1
     4    5    3 1
     5    6    7 1
     6    7    8 1
     7    9    7 1
     8   12    5 1
     9   13   12 1
    10   14    1 1
    11   15   14 1
    12   16   14 1
    13   17   16 1
    14   18    5 1
    15   19    6 1
    16   20   19 1
    17   21   20 1
    18   22   20 1
    19   23    7 1
    20   24    9 1
    21   25    7 1
    22   26    9 1
    23   27   18 1
    24   28   27 1
    25    6   12 1
    26    9   25 1
    27   16   18 1
    28   19   27 1
    29   20   24 1
    30   20   26 1
    31   24   25 1
    32   24   26 1
    33   25   26 1
@<TRIPOS>SUBSTRUCTURE
     1 RES1 1
     2 SUP2 10

@<TRIPOS>CRYSIN
  11.7780   13.1938    6.5561  90.0000  90.0000  90.0000  63 1

