# MOL2 file generated by ConQuest
# Please check atom types

@<TRIPOS>MOLECULE
SABCIK
    56    56     2
SMALL
NO_CHARGES
****
Generated from CSD

@<TRIPOS>ATOM
      1 C1         1.8382    3.5295    9.0376 C.ar      1 RES1    0.0000
      2 C2         2.9799    4.2995    8.8387 C.ar      1 RES1    0.0000
      3 C3         4.1220    3.9509    9.5697 C.ar      1 RES1    0.0000
      4 H1         4.9223    4.4480    9.4492 H         1 RES1    0.0000
      5 C4         4.1066    2.8836   10.4743 C.ar      1 RES1    0.0000
      6 C5         2.9350    2.1448   10.6210 C.ar      1 RES1    0.0000
      7 H2         2.9266    1.4161   11.2323 H         1 RES1    0.0000
      8 C6         1.7753    2.4339    9.9067 C.ar      1 RES1    0.0000
      9 C7         3.0290    5.4722    7.9120 C.ar      1 RES1    0.0000
     10 C8         2.1018    6.5079    7.9850 C.ar      1 RES1    0.0000
     11 H3         1.4066    6.4768    8.6308 H         1 RES1    0.0000
     12 C9         2.1888    7.5913    7.1117 C.ar      1 RES1    0.0000
     13 H4         1.5507    8.2922    7.1718 H         1 RES1    0.0000
     14 C10        3.1975    7.6640    6.1490 C.ar      1 RES1    0.0000
     15 C11        4.1244    6.6283    6.0907 C.ar      1 RES1    0.0000
     16 H5         4.8190    6.6589    5.4436 H         1 RES1    0.0000
     17 C12        4.0513    5.5495    6.9627 C.ar      1 RES1    0.0000
     18 H6         4.7017    4.8586    6.9130 H         1 RES1    0.0000
     19 C13        3.2667    8.8119    5.1759 C.3       1 RES1    0.0000
     20 H7         2.4025    9.2727    5.1534 H         1 RES1    0.0000
     21 H8         3.4788    8.4705    4.2827 H         1 RES1    0.0000
     22 H9         3.9634    9.4397    5.4593 H         1 RES1    0.0000
     23 C14        5.3016    2.5217   11.2747 C.ar      1 RES1    0.0000
     24 C15        6.5713    2.4344   10.7018 C.ar      1 RES1    0.0000
     25 H10        6.6936    2.6678    9.7891 H         1 RES1    0.0000
     26 C16        7.6566    2.0087   11.4567 C.ar      1 RES1    0.0000
     27 H11        8.5108    1.9422   11.0467 H         1 RES1    0.0000
     28 C17        7.5186    1.6765   12.8037 C.ar      1 RES1    0.0000
     29 C18        6.2600    1.7947   13.3831 C.ar      1 RES1    0.0000
     30 H12        6.1452    1.5894   14.3045 H         1 RES1    0.0000
     31 C19        5.1674    2.2093   12.6306 C.ar      1 RES1    0.0000
     32 H13        4.3153    2.2811   13.0442 H         1 RES1    0.0000
     33 C20        8.6946    1.1731   13.6004 C.3       1 RES1    0.0000
     34 H14        8.4712    1.1839   14.5555 H         1 RES1    0.0000
     35 H15        9.4697    1.7513   13.4390 H         1 RES1    0.0000
     36 H16        8.9073    0.2574   13.3240 H         1 RES1    0.0000
     37 C21        0.5847    1.5556   10.0518 C.ar      1 RES1    0.0000
     38 C22       -0.0045    0.9378    8.9485 C.ar      1 RES1    0.0000
     39 H17        0.3290    1.1161    8.0765 H         1 RES1    0.0000
     40 C23       -1.0741    0.0652    9.1108 C.ar      1 RES1    0.0000
     41 H18       -1.4499   -0.3591    8.3484 H         1 RES1    0.0000
     42 C24       -1.6054   -0.1977   10.3721 C.ar      1 RES1    0.0000
     43 C25       -0.9975    0.4078   11.4742 C.ar      1 RES1    0.0000
     44 H19       -1.3339    0.2310   12.3461 H         1 RES1    0.0000
     45 C26        0.0853    1.2616   11.3267 C.ar      1 RES1    0.0000
     46 H20        0.4897    1.6484   12.0951 H         1 RES1    0.0000
     47 C27       -2.8125   -1.0826   10.5381 C.3       1 RES1    0.0000
     48 H21       -2.6435   -1.7363   11.2480 H         1 RES1    0.0000
     49 H22       -2.9904   -1.5530    9.6976 H         1 RES1    0.0000
     50 H23       -3.5897   -0.5348   10.7748 H         1 RES1    0.0000
     51 N1         0.6013    3.8910    8.3071 N.pl3     1 RES1    0.0000
     52 O1         0.5741    3.7240    7.0926 O.2       1 RES1    0.0000
     53 O2        -0.3293    4.3423    8.9691 O.2       1 RES1    0.0000
     54 H24        4.1610    8.8483    4.7769 Du        2 SUP2    0.0000
     55 H25        3.0847    9.6518    5.6475 Du        2 SUP2    0.0000
     56 H26        2.5989    8.6826    4.4710 Du        2 SUP2    0.0000
@<TRIPOS>BOND
     1    1    2 ar
     2    2    3 ar
     3    3    4 1
     4    5    3 ar
     5    6    5 ar
     6    7    6 1
     7    8    1 ar
     8    9    2 1
     9   10    9 ar
    10   11   10 1
    11   12   10 ar
    12   13   12 1
    13   14   12 ar
    14   15   14 ar
    15   16   15 1
    16   17    9 ar
    17   18   17 1
    18   19   14 1
    19   20   19 1
    20   21   19 1
    21   22   19 1
    22   23    5 1
    23   24   23 ar
    24   25   24 1
    25   26   24 ar
    26   27   26 1
    27   28   26 ar
    28   29   28 ar
    29   30   29 1
    30   31   23 ar
    31   32   31 1
    32   33   28 1
    33   34   33 1
    34   35   33 1
    35   36   33 1
    36   37    8 1
    37   38   37 ar
    38   39   38 1
    39   40   38 ar
    40   41   40 1
    41   42   40 ar
    42   43   42 ar
    43   44   43 1
    44   45   37 ar
    45   46   45 1
    46   47   42 1
    47   48   47 1
    48   49   47 1
    49   50   47 1
    50   51    1 1
    51   52   51 2
    52   53   51 2
    53    6    8 ar
    54   15   17 ar
    55   29   31 ar
    56   43   45 ar
@<TRIPOS>SUBSTRUCTURE
     1 RES1 1
     2 SUP2 54

@<TRIPOS>CRYSIN
  12.7521   12.5544   26.1460  90.0000  90.0000  90.0000  61 1

