# MOL2 file generated by ConQuest
# Please check atom types

@<TRIPOS>MOLECULE
SABDUX
   110   112     3
SMALL
NO_CHARGES
****
Generated from CSD

@<TRIPOS>ATOM
      1 C1        11.3628    9.9820   -1.6125 C.ar      1 RES1    0.0000
      2 O1         9.0752    9.5672   -1.8615 O.2       1 RES1    0.0000
      3 N1        10.1478    9.0566   -1.7593 N.pl3     1 RES1    0.0000
      4 C2        11.8373   10.3446   -0.4342 C.ar      1 RES1    0.0000
      5 O2        10.3931    7.8295   -1.6955 O.2       1 RES1    0.0000
      6 C3        12.9745   11.2932   -0.4502 C.ar      1 RES1    0.0000
      7 H1        13.3242   11.6442    0.3608 H         1 RES1    0.0000
      8 O3         9.4572    9.5817    5.3674 O.2       1 RES1    0.0000
      9 C4        13.5078   11.6500   -1.6508 C.ar      1 RES1    0.0000
     10 O4         9.7672    7.4785    4.8278 O.3       1 RES1    0.0000
     11 H2         9.6159    7.3741    5.6484 H         1 RES1    0.0000
     12 C5        12.8878   11.1685   -2.8035 C.ar      1 RES1    0.0000
     13 H3        13.2801   11.3976   -3.6400 H         1 RES1    0.0000
     14 O5         9.7349    7.4205   -8.3146 O.2       1 RES1    0.0000
     15 C6        11.8271   10.4345   -2.8322 C.ar      1 RES1    0.0000
     16 O6         9.4352    9.5643   -8.9244 O.3       1 RES1    0.0000
     17 H4         9.5131    9.2510   -9.7003 H         1 RES1    0.0000
     18 C7        11.2717    9.8892    0.7759 C.ar      1 RES1    0.0000
     19 O7        18.7940   15.0093   -2.7683 O.3       1 RES1    0.0000
     20 H5        19.4860   15.4792   -2.6981 H         1 RES1    0.0000
     21 C8        11.2027    8.5577    1.0888 C.ar      1 RES1    0.0000
     22 H6        11.4730    7.9021    0.4566 H         1 RES1    0.0000
     23 O8        18.8454   15.1166   -0.5013 O.2       1 RES1    0.0000
     24 C9        10.7325    8.1689    2.3500 C.ar      1 RES1    0.0000
     25 H7        10.7002    7.2493    2.5863 H         1 RES1    0.0000
     26 C10       10.3006    9.1668    3.2792 C.ar      1 RES1    0.0000
     27 C11       10.3505   10.4664    2.9823 C.ar      1 RES1    0.0000
     28 H8        10.0317   11.1046    3.6081 H         1 RES1    0.0000
     29 C12       10.8780   10.9016    1.7402 C.ar      1 RES1    0.0000
     30 H9        10.9720   11.8270    1.5454 H         1 RES1    0.0000
     31 C13        9.8172    8.6853    4.5692 C.2       1 RES1    0.0000
     32 C14       11.2438    9.9327   -4.2658 C.ar      1 RES1    0.0000
     33 C15       11.1615    8.6766   -4.5820 C.ar      1 RES1    0.0000
     34 H10       11.4833    8.0268   -3.9689 H         1 RES1    0.0000
     35 C16       10.6076    8.2415   -5.8081 C.ar      1 RES1    0.0000
     36 H11       10.4813    7.3103   -5.9613 H         1 RES1    0.0000
     37 C17       10.2726    9.0856   -6.7181 C.ar      1 RES1    0.0000
     38 C18       10.3799   10.4751   -6.3605 C.ar      1 RES1    0.0000
     39 H12       10.1169   11.1482   -6.9735 H         1 RES1    0.0000
     40 C19       10.8618   10.8175   -5.1248 C.ar      1 RES1    0.0000
     41 H13       10.9176   11.7370   -4.8949 H         1 RES1    0.0000
     42 C20        9.7334    8.6563   -8.0591 C.2       1 RES1    0.0000
     43 C21       14.7302   12.4826   -1.6189 C.ar      1 RES1    0.0000
     44 C22       15.2856   12.8742   -2.8322 C.ar      1 RES1    0.0000
     45 H14       14.8698   12.6218   -3.6496 H         1 RES1    0.0000
     46 C23       16.4477   13.6371   -2.8513 C.ar      1 RES1    0.0000
     47 H15       16.8267   13.9040   -3.6783 H         1 RES1    0.0000
     48 C24       17.0545   14.0084   -1.6572 C.ar      1 RES1    0.0000
     49 C25       16.5006   13.6168   -0.4438 C.ar      1 RES1    0.0000
     50 H16       16.9149   13.8692    0.3736 H         1 RES1    0.0000
     51 C26       15.3384   12.8539   -0.4247 C.ar      1 RES1    0.0000
     52 H17       14.9594   12.5841    0.4055 H         1 RES1    0.0000
     53 C27       18.2871   14.8091   -1.5933 C.2       1 RES1    0.0000
     54 N2         4.4958    4.6095   11.8173 N.pl3     2 RES2    0.0000
     55 O9         3.8111    5.4160   11.2010 O.2       2 RES2    0.0000
     56 O10        4.6074    3.5188   11.2457 O.2       2 RES2    0.0000
     57 C28        5.2259    5.0447   13.0242 C.ar      2 RES2    0.0000
     58 C29        6.4307    5.7757   13.0466 C.ar      2 RES2    0.0000
     59 C30        7.0169    6.1789   14.2727 C.ar      2 RES2    0.0000
     60 H18        7.8176    6.6924   14.2631 H         2 RES2    0.0000
     61 O11        8.7594    8.7694    7.8548 O.3       2 RES2    0.0000
     62 H19        8.9371    8.9261    7.0501 H         2 RES2    0.0000
     63 C31        6.4615    5.8511   15.4318 C.ar      2 RES2    0.0000
     64 O12        8.8901    6.6634    7.1491 O.2       2 RES2    0.0000
     65 C32        5.2597    5.0853   15.4222 C.ar      2 RES2    0.0000
     66 H20        4.8645    4.8126   16.2428 H         2 RES2    0.0000
     67 O13       -0.8286    1.5375   13.2126 O.2       2 RES2    0.0000
     68 C33        4.6383    4.7227   14.1673 C.ar      2 RES2    0.0000
     69 O14       -1.0358    1.9871   15.3807 O.3       2 RES2    0.0000
     70 H21       -1.8424    1.7724   15.2817 H         2 RES2    0.0000
     71 O15        8.8431    6.6750   21.3484 O.3       2 RES2    0.0000
     72 H22        9.3852    6.9448   21.9327 H         2 RES2    0.0000
     73 O16        8.6418    8.8129   20.7194 O.2       2 RES2    0.0000
     74 C34        7.0389    6.2195   11.7490 C.ar      2 RES2    0.0000
     75 C35        7.2593    5.3115   10.7221 C.ar      2 RES2    0.0000
     76 H23        7.0566    4.3920   10.8498 H         2 RES2    0.0000
     77 C36        7.7765    5.7467    9.5056 C.ar      2 RES2    0.0000
     78 H24        7.9278    5.1230    8.8063 H         2 RES2    0.0000
     79 C37        8.0733    7.0898    9.3204 C.ar      2 RES2    0.0000
     80 C38        7.8529    8.0007   10.3485 C.ar      2 RES2    0.0000
     81 H25        8.0542    8.9203   10.2176 H         2 RES2    0.0000
     82 C39        7.3357    7.5655   11.5619 C.ar      2 RES2    0.0000
     83 H26        7.1844    8.1863   12.2643 H         2 RES2    0.0000
     84 C40        8.6051    7.4698    8.0304 C.2       2 RES2    0.0000
     85 C41        3.3263    4.0177   14.1929 C.ar      2 RES2    0.0000
     86 C42        3.0339    3.0750   13.3084 C.ar      2 RES2    0.0000
     87 H27        3.6877    2.8458   12.6571 H         2 RES2    0.0000
     88 C43        1.8262    2.4048   13.2861 C.ar      2 RES2    0.0000
     89 H28        1.6264    1.7637   12.6124 H         2 RES2    0.0000
     90 C44        0.9227    2.7065   14.2887 C.ar      2 RES2    0.0000
     91 C45        1.1357    3.6870   15.1093 C.ar      2 RES2    0.0000
     92 H29        0.4584    3.9162   15.7319 H         2 RES2    0.0000
     93 C46        2.3272    4.4152   15.1061 C.ar      2 RES2    0.0000
     94 H30        2.4594    5.1491   15.6936 H         2 RES2    0.0000
     95 C47       -0.4128    2.0074   14.1514 C.2       2 RES2    0.0000
     96 C48        7.0433    6.2572   16.7441 C.ar      2 RES2    0.0000
     97 C49        7.4106    7.5626   16.9580 C.ar      2 RES2    0.0000
     98 H31        7.3416    8.1834   16.2428 H         2 RES2    0.0000
     99 C50        7.8793    7.9978   18.1841 C.ar      2 RES2    0.0000
    100 H32        8.0527    8.9232   18.3246 H         2 RES2    0.0000
    101 C51        8.0953    7.1014   19.1963 C.ar      2 RES2    0.0000
    102 C52        7.8029    5.7989   18.9600 C.ar      2 RES2    0.0000
    103 H33        7.9689    5.1549   19.6369 H         2 RES2    0.0000
    104 C53        7.2505    5.3783   17.7084 C.ar      2 RES2    0.0000
    105 H34        7.0301    4.4645   17.5711 H         2 RES2    0.0000
    106 C54        8.5552    7.6729   20.5086 C.2       2 RES2    0.0000
    107 H35        4.8381    4.7836   12.1973 Du        3 SUP3    0.0000
    108 N3         4.6368    4.8213   16.7409 Du        3 SUP3    0.0000
    109 O17        4.0491    5.7206   17.3412 Du        3 SUP3    0.0000
    110 O18        4.7176    3.5565   17.1432 Du        3 SUP3    0.0000
@<TRIPOS>BOND
     1    1    3 1
     2    2    3 2
     3    3    5 2
     4    4    1 ar
     5    6    4 ar
     6    7    6 1
     7    8   31 2
     8    9    6 ar
     9   10   11 1
    10   12    9 ar
    11   13   12 1
    12   14   42 2
    13   15    1 ar
    14   16   17 1
    15   18    4 1
    16   19   20 1
    17   21   18 ar
    18   22   21 1
    19   23   53 2
    20   24   21 ar
    21   25   24 1
    22   26   24 ar
    23   27   26 ar
    24   28   27 1
    25   29   18 ar
    26   30   29 1
    27   31   10 1
    28   32   15 1
    29   33   32 ar
    30   34   33 1
    31   35   33 ar
    32   36   35 1
    33   37   35 ar
    34   38   37 ar
    35   39   38 1
    36   40   32 ar
    37   41   40 1
    38   42   16 1
    39   43    9 1
    40   44   43 ar
    41   45   44 1
    42   46   44 ar
    43   47   46 1
    44   48   46 ar
    45   49   48 ar
    46   50   49 1
    47   51   43 ar
    48   52   51 1
    49   53   19 1
    50   54   55 2
    51   56   54 2
    52   57   54 1
    53   58   57 ar
    54   59   58 ar
    55   60   59 1
    56   61   62 1
    57   63   59 ar
    58   64   84 2
    59   65   63 ar
    60   66   65 1
    61   67   95 2
    62   68   57 ar
    63   69   70 1
    64   71   72 1
    65   73  106 2
    66   74   58 1
    67   75   74 ar
    68   76   75 1
    69   77   75 ar
    70   78   77 1
    71   79   77 ar
    72   80   79 ar
    73   81   80 1
    74   82   74 ar
    75   83   82 1
    76   84   61 1
    77   85   68 1
    78   86   85 ar
    79   87   86 1
    80   88   86 ar
    81   89   88 1
    82   90   88 ar
    83   91   90 ar
    84   92   91 1
    85   93   85 ar
    86   94   93 1
    87   95   69 1
    88   96   63 1
    89   97   96 ar
    90   98   97 1
    91   99   97 ar
    92  100   99 1
    93  101   99 ar
    94  102  101 ar
    95  103  102 1
    96  104   96 ar
    97  105  104 1
    98  106   71 1
    99   12   15 ar
   100   26   31 1
   101   27   29 ar
   102   37   42 1
   103   38   40 ar
   104   48   53 1
   105   49   51 ar
   106   65   68 ar
   107   79   84 1
   108   80   82 ar
   109   90   95 1
   110   91   93 ar
   111  101  106 1
   112  102  104 ar
@<TRIPOS>SUBSTRUCTURE
     1 RES1 1
     2 RES2 54
     3 SUP3 107

@<TRIPOS>CRYSIN
  14.6920   29.0090   31.9300  90.0000  90.0000  90.0000  45 1

