# MOL2 file generated by ConQuest
# Please check atom types

@<TRIPOS>MOLECULE
SABDEG
    29    31     1
SMALL
NO_CHARGES
****
Generated from CSD

@<TRIPOS>ATOM
      1 O1         7.5316    2.6843    5.3146 O.3       1 RES1    0.0000
      2 O2         2.4282    4.5839    7.5511 O.2       1 RES1    0.0000
      3 O3         3.3090    5.2377    5.6889 O.2       1 RES1    0.0000
      4 N1         6.5690    1.0284    4.0140 N.ar      1 RES1    0.0000
      5 N2         8.9105    1.1310    2.4118 N.ar      1 RES1    0.0000
      6 N3         3.2868    4.5190    6.6738 N.pl3     1 RES1    0.0000
      7 C1         7.5606    1.8309    4.2474 C.ar      1 RES1    0.0000
      8 C2         8.7415    1.9087    3.4399 C.ar      1 RES1    0.0000
      9 H1         9.4151    2.5416    3.6599 H         1 RES1    0.0000
     10 C3         7.9062    0.2292    2.1425 C.ar      1 RES1    0.0000
     11 C4         8.0437   -0.6769    1.0717 C.ar      1 RES1    0.0000
     12 H2         8.8229   -0.6527    0.5288 H         1 RES1    0.0000
     13 C5         7.0568   -1.5942    0.8087 C.ar      1 RES1    0.0000
     14 H3         7.1633   -2.2077    0.0912 H         1 RES1    0.0000
     15 C6         5.8844   -1.6328    1.5940 C.ar      1 RES1    0.0000
     16 H4         5.2115   -2.2775    1.4114 H         1 RES1    0.0000
     17 C7         5.7178   -0.7391    2.6230 C.ar      1 RES1    0.0000
     18 H5         4.9137   -0.7477    3.1292 H         1 RES1    0.0000
     19 C8         6.7299    0.1905    2.9343 C.ar      1 RES1    0.0000
     20 C9         6.3993    2.6065    6.1386 C.ar      1 RES1    0.0000
     21 C10        6.2946    1.6092    7.0872 C.ar      1 RES1    0.0000
     22 H6         6.9732    0.9495    7.1666 H         1 RES1    0.0000
     23 C11        5.1824    1.5808    7.9272 C.ar      1 RES1    0.0000
     24 H7         5.1102    0.9071    8.5926 H         1 RES1    0.0000
     25 C12        4.1816    2.5308    7.7959 C.ar      1 RES1    0.0000
     26 H8         3.4100    2.5072    8.3500 H         1 RES1    0.0000
     27 C13        4.3383    3.5142    6.8341 C.ar      1 RES1    0.0000
     28 C14        5.4426    3.5925    5.9938 C.ar      1 RES1    0.0000
     29 H9         5.5353    4.2882    5.3539 H         1 RES1    0.0000
@<TRIPOS>BOND
     1    1    7 1
     2    2    6 2
     3    3    6 2
     4    4    7 ar
     5    5    8 ar
     6    6   27 1
     7    7    8 ar
     8    8    9 1
     9   10    5 ar
    10   11   10 ar
    11   12   11 1
    12   13   11 ar
    13   14   13 1
    14   15   13 ar
    15   16   15 1
    16   17   15 ar
    17   18   17 1
    18   19    4 ar
    19   20    1 1
    20   21   20 ar
    21   22   21 1
    22   23   21 ar
    23   24   23 1
    24   25   23 ar
    25   26   25 1
    26   27   25 ar
    27   28   20 ar
    28   29   28 1
    29   10   19 ar
    30   17   19 ar
    31   27   28 ar
@<TRIPOS>SUBSTRUCTURE
     1 RES1 1

@<TRIPOS>CRYSIN
   6.0643    5.3676   18.2443  90.0000  91.7800  90.0000   4 1

