# MOL2 file generated by ConQuest
# Please check atom types

@<TRIPOS>MOLECULE
SABDAC
    28    29     1
SMALL
NO_CHARGES
****
Generated from CSD

@<TRIPOS>ATOM
      1 O1         4.6225    7.8517   11.5907 O.2       1 RES1    0.0000
      2 O2         3.0926    9.3565   11.6118 O.2       1 RES1    0.0000
      3 O3         4.2539    6.0337    9.7233 O.3       1 RES1    0.0000
      4 O4         6.0014    2.0722    6.2718 O.3       1 RES1    0.0000
      5 N1         2.0612    5.3830    9.4145 N.ar      1 RES1    0.0000
      6 N2         3.4865    8.2338   11.3481 N.pl3     1 RES1    0.0000
      7 C1         2.9237    6.2146    9.9566 C.ar      1 RES1    0.0000
      8 C2         2.5246    7.3061   10.7464 C.ar      1 RES1    0.0000
      9 C3         1.1756    7.5120   10.9733 C.ar      1 RES1    0.0000
     10 H1         0.8826    8.2309   11.4845 H         1 RES1    0.0000
     11 C4         0.2705    6.6191   10.4177 C.ar      1 RES1    0.0000
     12 H2        -0.6435    6.7203   10.5548 H         1 RES1    0.0000
     13 C5         0.7548    5.5851    9.6600 C.ar      1 RES1    0.0000
     14 H3         0.1435    4.9867    9.2940 H         1 RES1    0.0000
     15 C6         4.6307    5.0117    8.8111 C.ar      1 RES1    0.0000
     16 C7         5.0335    3.7957    9.3083 C.ar      1 RES1    0.0000
     17 H4         4.9954    3.6209   10.2212 H         1 RES1    0.0000
     18 C8         5.4991    2.8328    8.4242 C.ar      1 RES1    0.0000
     19 H5         5.7839    2.0078    8.7470 H         1 RES1    0.0000
     20 C9         5.5425    3.0940    7.0639 C.ar      1 RES1    0.0000
     21 C10        5.1539    4.3370    6.5855 C.ar      1 RES1    0.0000
     22 H6         5.2017    4.5242    5.6760 H         1 RES1    0.0000
     23 C11        4.6942    5.2957    7.4708 C.ar      1 RES1    0.0000
     24 H7         4.4289    6.1296    7.1576 H         1 RES1    0.0000
     25 C12        5.7921    2.1743    4.8621 C.3       1 RES1    0.0000
     26 H8         6.1083    1.3761    4.4324 H         1 RES1    0.0000
     27 H9         6.2727    2.9328    4.5207 H         1 RES1    0.0000
     28 H10        4.8549    2.2845    4.6850 H         1 RES1    0.0000
@<TRIPOS>BOND
     1    1    6 2
     2    2    6 2
     3    3    7 1
     4    4   20 1
     5    5    7 ar
     6    6    8 1
     7    7    8 ar
     8    8    9 ar
     9    9   10 1
    10   11    9 ar
    11   12   11 1
    12   13    5 ar
    13   14   13 1
    14   15    3 1
    15   16   15 ar
    16   17   16 1
    17   18   16 ar
    18   19   18 1
    19   20   18 ar
    20   21   20 ar
    21   22   21 1
    22   23   15 ar
    23   24   23 1
    24   25    4 1
    25   26   25 1
    26   27   25 1
    27   28   25 1
    28   11   13 ar
    29   21   23 ar
@<TRIPOS>SUBSTRUCTURE
     1 RES1 1

@<TRIPOS>CRYSIN
   7.4737   12.8128   24.5290  90.0000  90.0000  90.0000  61 1

