# MOL2 file generated by ConQuest
# Please check atom types

@<TRIPOS>MOLECULE
SABFIM
    29    30     1
SMALL
NO_CHARGES
****
Generated from CSD

@<TRIPOS>ATOM
      1 O1         5.2898    8.6521    1.4403 O.2       1 RES1    0.0000
      2 O2         6.8718    7.5664    0.4964 O.2       1 RES1    0.0000
      3 O3         1.5038    7.3841    3.1629 O.2       1 RES1    0.0000
      4 O4        -0.1290    3.6077    3.1640 O.3       1 RES1    0.0000
      5 N1         1.9739    5.1946    2.9282 N.am      1 RES1    0.0000
      6 N2         5.8122    7.6041    1.0870 N.pl3     1 RES1    0.0000
      7 C1         3.2122    5.2468    2.2716 C.ar      1 RES1    0.0000
      8 C2         3.9103    6.4225    2.0367 C.ar      1 RES1    0.0000
      9 C3         5.1145    6.3422    1.3661 C.ar      1 RES1    0.0000
     10 C4         5.6697    5.1604    0.9292 C.ar      1 RES1    0.0000
     11 C5         4.9675    3.9964    1.1878 C.ar      1 RES1    0.0000
     12 C6         3.7565    4.0348    1.8434 C.ar      1 RES1    0.0000
     13 C7         1.1763    6.2056    3.3167 C.2       1 RES1    0.0000
     14 C8        -0.1049    5.8417    3.9863 C.ar      1 RES1    0.0000
     15 C9        -0.7072    4.5743    3.9154 C.ar      1 RES1    0.0000
     16 C10       -1.8915    4.3344    4.5973 C.ar      1 RES1    0.0000
     17 C11       -2.4759    5.3259    5.3466 C.ar      1 RES1    0.0000
     18 C12       -1.9024    6.5832    5.4276 C.ar      1 RES1    0.0000
     19 C13       -0.7301    6.8283    4.7547 C.ar      1 RES1    0.0000
     20 H1         1.6838    4.4052    3.1077 H         1 RES1    0.0000
     21 H2         3.5764    7.2419    2.3232 H         1 RES1    0.0000
     22 H3         6.4832    5.1450    0.4788 H         1 RES1    0.0000
     23 H4        -0.5963    2.9340    3.1787 H         1 RES1    0.0000
     24 H5         5.3171    3.1787    0.9158 H         1 RES1    0.0000
     25 H6         3.2956    3.2429    2.0028 H         1 RES1    0.0000
     26 H7        -2.2923    3.4968    4.5466 H         1 RES1    0.0000
     27 H8        -3.2659    5.1507    5.8048 H         1 RES1    0.0000
     28 H9        -2.3055    7.2533    5.9310 H         1 RES1    0.0000
     29 H10       -0.3426    7.6717    4.8119 H         1 RES1    0.0000
@<TRIPOS>BOND
     1    1    6 2
     2    2    6 2
     3    3   13 2
     4    4   15 1
     5    5    7 1
     6    6    9 1
     7    7    8 ar
     8    8    9 ar
     9    9   10 ar
    10   10   11 ar
    11   11   12 ar
    12   12    7 ar
    13   13    5 1
    14   14   13 1
    15   15   14 ar
    16   16   15 ar
    17   17   16 ar
    18   18   17 ar
    19   19   14 ar
    20   20    5 1
    21   21    8 1
    22   22   10 1
    23   23    4 1
    24   24   11 1
    25   25   12 1
    26   26   16 1
    27   27   17 1
    28   28   18 1
    29   29   19 1
    30   18   19 ar
@<TRIPOS>SUBSTRUCTURE
     1 RES1 1

@<TRIPOS>CRYSIN
   7.8385   11.9531   12.3550  90.0000  90.8600  90.0000  14 1

