# MOL2 file generated by ConQuest
# Please check atom types

@<TRIPOS>MOLECULE
SABGAG
    46    49     1
SMALL
NO_CHARGES
****
Generated from CSD

@<TRIPOS>ATOM
      1 C1         5.9665    7.5605    7.1250 C.ar      1 RES1    0.0000
      2 C2         7.6166    8.7937    8.4438 C.ar      1 RES1    0.0000
      3 C3         5.1956    7.4428    5.9139 C.2       1 RES1    0.0000
      4 H1         5.3491    8.0413    5.2190 H         1 RES1    0.0000
      5 C4         5.8073    6.6727    8.2074 C.ar      1 RES1    0.0000
      6 C5         0.8038    3.5827    3.7924 C.ar      1 RES1    0.0000
      7 C6         2.3742    4.5472    5.3089 C.ar      1 RES1    0.0000
      8 H2         2.8211    4.5364    6.1243 H         1 RES1    0.0000
      9 C7         2.6547    5.5535    4.3677 C.ar      1 RES1    0.0000
     10 C8         1.0518    4.5790    2.8533 C.ar      1 RES1    0.0000
     11 H3         0.6049    4.5783    2.0373 H         1 RES1    0.0000
     12 C9         6.8840    8.6077    7.2920 C.ar      1 RES1    0.0000
     13 H4         7.0040    9.2068    6.5900 H         1 RES1    0.0000
     14 C10        1.4420    3.5811    5.0265 C.ar      1 RES1    0.0000
     15 H5         1.2385    2.9284    5.6574 H         1 RES1    0.0000
     16 C11        6.5159    6.8207    9.3892 C.ar      1 RES1    0.0000
     17 C12        1.9619    5.5616    3.1431 C.ar      1 RES1    0.0000
     18 H6         2.1227    6.2393    2.5265 H         1 RES1    0.0000
     19 C13        7.4344    7.8869    9.5157 C.ar      1 RES1    0.0000
     20 C14        6.2204    5.8703   10.5218 C.3       1 RES1    0.0000
     21 H7         6.5015    4.9775   10.2645 H         1 RES1    0.0000
     22 H8         5.2623    5.8471   10.6707 H         1 RES1    0.0000
     23 C15        8.5941    9.9405    8.5646 C.3       1 RES1    0.0000
     24 H9         8.2087   10.7339    8.1616 H         1 RES1    0.0000
     25 H10        9.4062    9.7219    8.0811 H         1 RES1    0.0000
     26 C16        8.2712    6.8519   11.5439 C.3       1 RES1    0.0000
     27 H11        8.7034    7.0866   12.3799 H         1 RES1    0.0000
     28 H12        8.8289    6.2030   11.0869 H         1 RES1    0.0000
     29 C17        6.9138    6.2510   11.8228 C.3       1 RES1    0.0000
     30 H13        6.3689    6.8912   12.3055 H         1 RES1    0.0000
     31 H14        7.0159    5.4632   12.3786 H         1 RES1    0.0000
     32 C18        8.9376   10.2309   10.0212 C.3       1 RES1    0.0000
     33 H15        9.6972   10.8330   10.0627 H         1 RES1    0.0000
     34 H16        8.1853   10.6641   10.4528 H         1 RES1    0.0000
     35 C19        9.2672    8.9440   10.7443 C.3       1 RES1    0.0000
     36 H17       10.0279    8.5173   10.3203 H         1 RES1    0.0000
     37 H18        9.5047    9.1398   11.6640 H         1 RES1    0.0000
     38 N1         8.1226    8.0424   10.7151 N.3       1 RES1    0.0000
     39 N2         4.2981    6.5287    5.7701 N.2       1 RES1    0.0000
     40 N3         3.5865    6.5239    4.5995 N.pl3     1 RES1    0.0000
     41 H19        3.7272    7.1340    4.0090 H         1 RES1    0.0000
     42 N4        -0.1164    2.5288    3.4734 N.pl3     1 RES1    0.0000
     43 O1         4.9246    5.6370    8.1558 O.3       1 RES1    0.0000
     44 H20        4.5273    5.6517    7.4383 H         1 RES1    0.0000
     45 O2        -0.3630    1.6617    4.3202 O.2       1 RES1    0.0000
     46 O3        -0.6350    2.5027    2.3483 O.2       1 RES1    0.0000
@<TRIPOS>BOND
     1    1    3 1
     2    2   12 ar
     3    3    4 1
     4    5    1 ar
     5    6   10 ar
     6    7    8 1
     7    9    7 ar
     8   10   11 1
     9   12    1 ar
    10   13   12 1
    11   14    6 ar
    12   15   14 1
    13   16    5 ar
    14   17    9 ar
    15   18   17 1
    16   19    2 ar
    17   20   16 1
    18   21   20 1
    19   22   20 1
    20   23    2 1
    21   24   23 1
    22   25   23 1
    23   26   27 1
    24   28   26 1
    25   29   20 1
    26   30   29 1
    27   31   29 1
    28   32   23 1
    29   33   32 1
    30   34   32 1
    31   35   32 1
    32   36   35 1
    33   37   35 1
    34   38   19 1
    35   39    3 2
    36   40    9 1
    37   41   40 1
    38   42    6 1
    39   43    5 1
    40   44   43 1
    41   45   42 2
    42   46   42 2
    43    7   14 ar
    44   10   17 ar
    45   16   19 ar
    46   26   29 1
    47   26   38 1
    48   35   38 1
    49   39   40 1
@<TRIPOS>SUBSTRUCTURE
     1 RES1 1

@<TRIPOS>CRYSIN
   9.4989   13.9582   13.1205  90.0000 109.2780  90.0000 231 1

