# MOL2 file generated by ConQuest
# Please check atom types

@<TRIPOS>MOLECULE
SABPOA
    34    37     1
SMALL
NO_CHARGES
****
Generated from CSD

@<TRIPOS>ATOM
      1 O1         9.5354    2.0935   -0.2720 O.3       1 RES1    0.0000
      2 O2        11.5977    1.4248    0.3365 O.2       1 RES1    0.0000
      3 O3        11.0481    1.6500   -1.7471 O.2       1 RES1    0.0000
      4 O4         6.8091    2.0974   -1.1385 O.2       1 RES1    0.0000
      5 O5         6.9690    4.1393   -0.5468 O.2       1 RES1    0.0000
      6 N1        10.8487    1.6778   -0.5602 N.pl3     1 RES1    0.0000
      7 N2         7.1041    2.9489   -0.3238 N.pl3     1 RES1    0.0000
      8 C1         7.5841    2.4882    1.1036 C.3       1 RES1    0.0000
      9 C2         6.8275    1.1497    1.3387 C.3       1 RES1    0.0000
     10 C3         6.8898    0.6579    2.7788 C.3       1 RES1    0.0000
     11 C4         8.3830    0.3053    2.9568 C.3       1 RES1    0.0000
     12 C5         8.9860    0.5529    1.5597 C.3       1 RES1    0.0000
     13 C6         9.1108    2.0361    1.1419 C.3       1 RES1    0.0000
     14 C7         9.8099    3.1890    1.8976 C.3       1 RES1    0.0000
     15 C8         9.5280    3.2188    3.3908 C.3       1 RES1    0.0000
     16 C9         8.0205    3.5601    3.4492 C.3       1 RES1    0.0000
     17 C10        7.6346    3.7678    1.9681 C.3       1 RES1    0.0000
     18 C11        7.7933    0.1285    0.6959 C.3       1 RES1    0.0000
     19 C12        8.9543    4.3867    1.4502 C.3       1 RES1    0.0000
     20 H1         5.9186    1.1576    1.0076 H         1 RES1    0.0000
     21 H2         6.3026   -0.1257    2.8279 H         1 RES1    0.0000
     22 H3         6.5417    1.2879    3.3921 H         1 RES1    0.0000
     23 H4         8.7251    0.7881    3.6809 H         1 RES1    0.0000
     24 H5         8.4177   -0.6592    3.1234 H         1 RES1    0.0000
     25 H6         9.7931    0.1150    1.4106 H         1 RES1    0.0000
     26 H7        10.7603    3.2687    1.6390 H         1 RES1    0.0000
     27 H8        10.0119    3.9617    3.7145 H         1 RES1    0.0000
     28 H9         9.7369    2.3366    3.8824 H         1 RES1    0.0000
     29 H10        7.9059    4.4554    3.9093 H         1 RES1    0.0000
     30 H11        7.5420    2.8793    3.8690 H         1 RES1    0.0000
     31 H12        6.9138    4.2714    1.8606 H         1 RES1    0.0000
     32 H13        7.9417    0.2729   -0.2284 H         1 RES1    0.0000
     33 H14        7.5235   -0.7926    0.8463 H         1 RES1    0.0000
     34 H15        9.1906    5.1346    1.9345 H         1 RES1    0.0000
@<TRIPOS>BOND
     1    1    6 1
     2    2    6 2
     3    3    6 2
     4    4    7 2
     5    5    7 2
     6    7    8 1
     7    8    9 1
     8    9   10 1
     9   10   11 1
    10   11   12 1
    11   12   13 1
    12   13    1 1
    13   14   13 1
    14   15   14 1
    15   16   15 1
    16   17    8 1
    17   18    9 1
    18   19   14 1
    19   20    9 1
    20   21   10 1
    21   22   10 1
    22   23   11 1
    23   24   11 1
    24   25   12 1
    25   26   14 1
    26   27   15 1
    27   28   15 1
    28   29   16 1
    29   30   16 1
    30   31   17 1
    31   32   18 1
    32   33   18 1
    33   34   19 1
    34    8   13 1
    35   12   18 1
    36   16   17 1
    37   17   19 1
@<TRIPOS>SUBSTRUCTURE
     1 RES1 1

@<TRIPOS>CRYSIN
  11.6390    7.6780    7.3840 114.4700  90.4000  93.2200   2 1

