# MOL2 file generated by ConQuest
# Please check atom types

@<TRIPOS>MOLECULE
SABPOB
   154   154     7
SMALL
NO_CHARGES
****
Generated from CSD

@<TRIPOS>ATOM
      1 O1         3.3494   13.8778   53.4441 O.3       1 RES1    0.0000
      2 O2         3.1103   15.3069   48.8505 O.2       1 RES1    0.0000
      3 O3         3.0935   19.6071   50.1396 O.3       1 RES1    0.0000
      4 H1         3.2492   20.1729   50.7431 H         1 RES1    0.0000
      5 N1         3.6483   15.3747   51.0484 N.am      1 RES1    0.0000
      6 N2         3.3260   18.3397   50.6302 N.2       1 RES1    0.0000
      7 N3         2.2426   18.1318   47.3849 N.1       1 RES1    0.0000
      8 C1         3.8815   13.9254   51.0835 C.3       1 RES1    0.0000
      9 H2         4.8391   13.7450   51.2583 H         1 RES1    0.0000
     10 H3         3.6483   13.5285   50.2060 H         1 RES1    0.0000
     11 C2         3.0263   13.2946   52.1802 C.3       1 RES1    0.0000
     12 H4         2.0672   13.4404   51.9818 H         1 RES1    0.0000
     13 H5         3.1907   12.3188   52.2120 H         1 RES1    0.0000
     14 C3         3.0548   15.2896   53.4151 C.3       1 RES1    0.0000
     15 H6         3.2499   15.6836   54.3003 H         1 RES1    0.0000
     16 H7         2.0913   15.4195   53.2260 H         1 RES1    0.0000
     17 C4         3.8676   15.9969   52.3649 C.3       1 RES1    0.0000
     18 H8         3.6074   16.9510   52.3271 H         1 RES1    0.0000
     19 H9         4.8289   15.9478   52.6012 H         1 RES1    0.0000
     20 C5         3.3070   15.9435   49.8897 C.2       1 RES1    0.0000
     21 C6         3.1001   17.4447   49.7434 C.2       1 RES1    0.0000
     22 C7         2.6498   17.8186   48.4098 C.1       1 RES1    0.0000
     23 O4         3.5840    6.8220   44.3484 O.3       2 RES2    0.0000
     24 O5         3.2412    8.1399   48.9420 O.2       2 RES2    0.0000
     25 O6         2.9334   12.4459   47.7105 O.3       2 RES2    0.0000
     26 H10        3.0957   13.0362   47.1366 H         2 RES2    0.0000
     27 N4         3.8018    8.2972   46.7540 N.am      2 RES2    0.0000
     28 N5         3.3230   11.2131   47.2276 N.2       2 RES2    0.0000
     29 N6         1.9649   10.8551   50.3666 N.1       2 RES2    0.0000
     30 C8         4.1395    6.8407   46.6970 C.3       2 RES2    0.0000
     31 H11        3.9407    6.4164   47.5696 H         2 RES2    0.0000
     32 H12        5.1044    6.7267   46.5118 H         2 RES2    0.0000
     33 C9         3.3318    6.1854   45.6162 C.3       2 RES2    0.0000
     34 H13        3.5701    5.2255   45.5581 H         2 RES2    0.0000
     35 H14        2.3684    6.2504   45.8376 H         2 RES2    0.0000
     36 C10        3.1564    8.2034   44.4027 C.3       2 RES2    0.0000
     37 H15        2.1893    8.2438   44.6099 H         2 RES2    0.0000
     38 H16        3.2996    8.6292   43.5191 H         2 RES2    0.0000
     39 C11        3.9276    8.9526   45.4550 C.3       2 RES2    0.0000
     40 H17        4.8829    8.9959   45.1963 H         2 RES2    0.0000
     41 H18        3.5847    9.8793   45.5197 H         2 RES2    0.0000
     42 C12        3.4078    8.8183   47.9242 C.2       2 RES2    0.0000
     43 C13        3.0855   10.2806   48.0892 C.2       2 RES2    0.0000
     44 C14        2.4693   10.5837   49.3641 C.1       2 RES2    0.0000
     45 O7         3.2931   -0.4172   45.6058 O.3       3 RES3    0.0000
     46 O8         3.7134    1.1173   41.0543 O.2       3 RES3    0.0000
     47 O9         2.9137    5.3294   42.3002 O.3       3 RES3    0.0000
     48 H19        3.0760    5.9111   42.8833 H         3 RES3    0.0000
     49 N7         3.5928    1.1981   43.3163 N.am      3 RES3    0.0000
     50 N8         3.2770    4.0894   42.7748 N.2       3 RES3    0.0000
     51 N9         2.1286    3.7185   39.5498 N.1       3 RES3    0.0000
     52 C15        4.2455   -0.1169   43.4254 C.3       3 RES3    0.0000
     53 H20        5.1622   -0.0014   43.7822 H         3 RES3    0.0000
     54 H21        4.3150   -0.5254   42.5271 H         3 RES3    0.0000
     55 C16        3.4685   -1.0278   44.3314 C.3       3 RES3    0.0000
     56 H22        2.5840   -1.2198   43.9302 H         3 RES3    0.0000
     57 H23        3.9524   -1.8852   44.4345 H         3 RES3    0.0000
     58 C17        2.5109    0.7983   45.4682 C.3       3 RES3    0.0000
     59 H24        2.3355    1.1851   46.3638 H         3 RES3    0.0000
     60 H25        1.6396    0.5889   45.0483 H         3 RES3    0.0000
     61 C18        3.2646    1.8044   44.6126 C.3       3 RES3    0.0000
     62 H26        2.7068    2.6098   44.4728 H         3 RES3    0.0000
     63 H27        4.0964    2.0786   45.0757 H         3 RES3    0.0000
     64 C19        3.4839    1.7293   42.0990 C.2       3 RES3    0.0000
     65 C20        3.0431    3.1598   41.9127 C.2       3 RES3    0.0000
     66 C21        2.5314    3.4658   40.5830 C.1       3 RES3    0.0000
     67 O10        0.1806    0.5760   41.7422 O.3       4 RES4    0.0000
     68 O11        0.0965   -0.8603   37.1431 O.2       4 RES4    0.0000
     69 O12        0.3765   -5.0927   38.4119 O.3       4 RES4    0.0000
     70 H28        0.1528   -5.6484   39.0028 H         4 RES4    0.0000
     71 N10        0.6023   -0.8329   39.3377 N.am      4 RES4    0.0000
     72 N11        0.2186   -3.8209   38.9019 N.2       4 RES4    0.0000
     73 N12        1.4108   -3.6232   35.6643 N.1       4 RES4    0.0000
     74 C22        0.6104    0.6351   39.3673 C.3       4 RES4    0.0000
     75 H29        0.2727    0.9874   38.5040 H         4 RES4    0.0000
     76 H30        1.5365    0.9614   39.4906 H         4 RES4    0.0000
     77 C23       -0.2595    1.1331   40.4958 C.3       4 RES4    0.0000
     78 H31       -0.2149    2.1205   40.5375 H         4 RES4    0.0000
     79 H32       -1.2010    0.8748   40.3292 H         4 RES4    0.0000
     80 C24        0.1243   -0.8574   41.7219 C.3       4 RES4    0.0000
     81 H33       -0.8070   -1.1519   41.5624 H         4 RES4    0.0000
     82 H34        0.4137   -1.2140   42.5983 H         4 RES4    0.0000
     83 C25        1.0256   -1.4002   40.6290 C.3       4 RES4    0.0000
     84 H35        1.9663   -1.1534   40.8115 H         4 RES4    0.0000
     85 H36        0.9634   -2.3875   40.5978 H         4 RES4    0.0000
     86 C26        0.3845   -1.4478   38.1741 C.2       4 RES4    0.0000
     87 C27        0.5541   -2.9404   38.0244 C.2       4 RES4    0.0000
     88 C28        1.0066   -3.3330   36.6953 C.1       4 RES4    0.0000
     89 O13        3.2551    6.7282   52.2389 O.3       5 RES5    0.0000
     90 O14        3.2792    8.1774   56.8500 O.2       5 RES5    0.0000
     91 O15        2.6425   12.3737   55.4825 O.3       5 RES5    0.0000
     92 H37        2.8084   12.9237   54.8703 H         5 RES5    0.0000
     93 N13        2.7492    8.0995   54.6538 N.am      5 RES5    0.0000
     94 N14        2.9064   11.0933   55.0369 N.2       5 RES5    0.0000
     95 N15        1.8896   10.8970   58.3288 N.1       5 RES5    0.0000
     96 C29        2.9137    6.6213   54.6302 C.3       5 RES5    0.0000
     97 H38        2.0299    6.1883   54.5305 H         5 RES5    0.0000
     98 H39        3.3121    6.3153   55.4842 H         5 RES5    0.0000
     99 C30        3.7974    6.2388   53.4946 C.3       5 RES5    0.0000
    100 H40        4.7009    6.6170   53.6371 H         5 RES5    0.0000
    101 H41        3.8800    5.2529   53.4562 H         5 RES5    0.0000
    102 C31        3.1542    8.1644   52.2756 C.3       5 RES5    0.0000
    103 H42        2.8062    8.4907   51.4063 H         5 RES5    0.0000
    104 H43        4.0547    8.5527   52.4093 H         5 RES5    0.0000
    105 C32        2.2463    8.6249   53.3795 C.3       5 RES5    0.0000
    106 H44        2.2229    9.6137   53.4069 H         5 RES5    0.0000
    107 H45        1.3267    8.2958   53.2205 H         5 RES5    0.0000
    108 C33        2.9451    8.7462   55.8141 C.2       5 RES5    0.0000
    109 C34        2.6630   10.2330   55.9544 C.2       5 RES5    0.0000
    110 C35        2.2456   10.6025   57.2830 C.1       5 RES5    0.0000
    111 O16        6.9852    7.5885   48.2640 O.3       6 RES6    0.0000
    112 O17        7.0342    6.2157   52.8719 O.2       6 RES6    0.0000
    113 O18        7.4940    1.9227   51.6612 O.3       6 RES6    0.0000
    114 H46        7.2506    1.3309   51.1158 H         6 RES6    0.0000
    115 N16        6.7250    6.0497   50.6340 N.am      6 RES6    0.0000
    116 N17        7.0985    3.1598   51.2041 N.2       6 RES6    0.0000
    117 N18        8.6643    3.5755   54.2411 N.1       6 RES6    0.0000
    118 C36        6.2016    7.4225   50.5491 C.3       6 RES6    0.0000
    119 H47        6.2550    7.8526   51.4392 H         6 RES6    0.0000
    120 H48        5.2499    7.3965   50.2772 H         6 RES6    0.0000
    121 C37        6.9838    8.2265   49.5587 C.3       6 RES6    0.0000
    122 H49        6.5869    9.1301   49.4825 H         6 RES6    0.0000
    123 H50        7.9158    8.3276   49.8771 H         6 RES6    0.0000
    124 C38        7.5971    6.2879   48.3649 C.3       6 RES6    0.0000
    125 H51        8.5247    6.3832   48.6987 H         6 RES6    0.0000
    126 H52        7.6336    5.8678   47.4709 H         6 RES6    0.0000
    127 C39        6.8047    5.3944   49.3147 C.3       6 RES6    0.0000
    128 H53        5.8939    5.2471   48.9563 H         6 RES6    0.0000
    129 H54        7.2513    4.5153   49.4003 H         6 RES6    0.0000
    130 C40        7.0466    5.5531   51.8333 C.2       6 RES6    0.0000
    131 C41        7.4472    4.1039   52.0119 C.2       6 RES6    0.0000
    132 C42        8.1248    3.8209   53.2583 C.1       6 RES6    0.0000
    133 O19        6.8091    0.3695   49.6453 O.3       7 RES7    0.0000
    134 O20        7.0328   -0.9859   45.0204 O.2       7 RES7    0.0000
    135 O21        7.5357   -5.2500   46.2470 O.3       7 RES7    0.0000
    136 H55        7.3325   -5.8462   46.8023 H         7 RES7    0.0000
    137 N19        6.6117   -1.1404   47.2473 N.am      7 RES7    0.0000
    138 N20        7.1059   -4.0288   46.7085 N.2       7 RES7    0.0000
    139 N21        8.6285   -3.6030   43.6814 N.1       7 RES7    0.0000
    140 C43        6.1293    0.2569   47.3093 C.3       7 RES7    0.0000
    141 H56        5.1629    0.2642   47.5203 H         7 RES7    0.0000
    142 H57        6.2528    0.6885   46.4296 H         7 RES7    0.0000
    143 C44        6.8844    1.0350   48.3622 C.3       7 RES7    0.0000
    144 H58        7.8317    1.1245   48.0903 H         7 RES7    0.0000
    145 H59        6.5006    1.9444   48.4411 H         7 RES7    0.0000
    146 C45        7.3931   -0.9556   49.5460 C.3       7 RES7    0.0000
    147 H60        7.3800   -1.3915   50.4362 H         7 RES7    0.0000
    148 H61        8.3368   -0.8805   49.2523 H         7 RES7    0.0000
    149 C46        6.6190   -1.8087   48.5491 C.3       7 RES7    0.0000
    150 H62        7.0437   -2.6993   48.4685 H         7 RES7    0.0000
    151 H63        5.6899   -1.9357   48.8686 H         7 RES7    0.0000
    152 C47        6.9918   -1.6297   46.0623 C.2       7 RES7    0.0000
    153 C48        7.3953   -3.0876   45.8941 C.2       7 RES7    0.0000
    154 C49        8.0627   -3.3662   44.6296 C.1       7 RES7    0.0000
@<TRIPOS>BOND
     1    1   11 1
     2    2   20 2
     3    3    4 1
     4    5    8 1
     5    6    3 1
     6    7   22 3
     7    8    9 1
     8   10    8 1
     9   11    8 1
    10   12   11 1
    11   13   11 1
    12   14    1 1
    13   15   14 1
    14   16   14 1
    15   17    5 1
    16   18   17 1
    17   19   17 1
    18   20    5 1
    19   21    6 2
    20   22   21 1
    21   23   33 1
    22   24   42 2
    23   25   26 1
    24   27   30 1
    25   28   25 1
    26   29   44 3
    27   30   31 1
    28   32   30 1
    29   33   30 1
    30   34   33 1
    31   35   33 1
    32   36   23 1
    33   37   36 1
    34   38   36 1
    35   39   27 1
    36   40   39 1
    37   41   39 1
    38   42   27 1
    39   43   28 2
    40   44   43 1
    41   45   55 1
    42   46   64 2
    43   47   48 1
    44   49   52 1
    45   50   47 1
    46   51   66 3
    47   52   53 1
    48   54   52 1
    49   55   52 1
    50   56   55 1
    51   57   55 1
    52   58   45 1
    53   59   58 1
    54   60   58 1
    55   61   49 1
    56   62   61 1
    57   63   61 1
    58   64   49 1
    59   65   50 2
    60   66   65 1
    61   67   77 1
    62   68   86 2
    63   69   70 1
    64   71   74 1
    65   72   69 1
    66   73   88 3
    67   74   75 1
    68   76   74 1
    69   77   74 1
    70   78   77 1
    71   79   77 1
    72   80   67 1
    73   81   80 1
    74   82   80 1
    75   83   71 1
    76   84   83 1
    77   85   83 1
    78   86   71 1
    79   87   72 2
    80   88   87 1
    81   89   99 1
    82   90  108 2
    83   91   92 1
    84   93   96 1
    85   94   91 1
    86   95  110 3
    87   96   97 1
    88   98   96 1
    89   99   96 1
    90  100   99 1
    91  101   99 1
    92  102   89 1
    93  103  102 1
    94  104  102 1
    95  105   93 1
    96  106  105 1
    97  107  105 1
    98  108   93 1
    99  109   94 2
   100  110  109 1
   101  111  121 1
   102  112  130 2
   103  113  114 1
   104  115  118 1
   105  116  113 1
   106  117  132 3
   107  118  119 1
   108  120  118 1
   109  121  118 1
   110  122  121 1
   111  123  121 1
   112  124  111 1
   113  125  124 1
   114  126  124 1
   115  127  115 1
   116  128  127 1
   117  129  127 1
   118  130  115 1
   119  131  116 2
   120  132  131 1
   121  133  143 1
   122  134  152 2
   123  135  136 1
   124  137  140 1
   125  138  135 1
   126  139  154 3
   127  140  141 1
   128  142  140 1
   129  143  140 1
   130  144  143 1
   131  145  143 1
   132  146  133 1
   133  147  146 1
   134  148  146 1
   135  149  137 1
   136  150  149 1
   137  151  149 1
   138  152  137 1
   139  153  138 2
   140  154  153 1
   141   14   17 1
   142   20   21 1
   143   36   39 1
   144   42   43 1
   145   58   61 1
   146   64   65 1
   147   80   83 1
   148   86   87 1
   149  102  105 1
   150  108  109 1
   151  124  127 1
   152  130  131 1
   153  146  149 1
   154  152  153 1
@<TRIPOS>SUBSTRUCTURE
     1 RES1 1
     2 RES2 23
     3 RES3 45
     4 RES4 67
     5 RES5 89
     6 RES6 111
     7 RES7 133

@<TRIPOS>CRYSIN
   7.3098   14.4350   54.8100  90.0000  90.0000  90.0000  19 1

