# MOL2 file generated by ConQuest
# Please check atom types

@<TRIPOS>MOLECULE
SABPUH
    24    24     1
SMALL
NO_CHARGES
****
Generated from CSD

@<TRIPOS>ATOM
      1 O1         4.7519    4.5492    7.8488 O.2       1 RES1    0.0000
      2 O2         0.4516    4.1504    6.8789 O.3       1 RES1    0.0000
      3 N1         3.8022    3.1542    9.3811 N.am      1 RES1    0.0000
      4 N2         1.3982    3.9693    7.8609 N.2       1 RES1    0.0000
      5 N3         3.0207    4.2039    4.8244 N.1       1 RES1    0.0000
      6 C1         2.7710    2.2037    9.8395 C.3       1 RES1    0.0000
      7 H1         3.1795    1.3129    9.9786 H         1 RES1    0.0000
      8 H2         2.0689    2.1158    9.1475 H         1 RES1    0.0000
      9 C2         2.1470    2.6898   11.1428 C.3       1 RES1    0.0000
     10 H3         1.4943    2.0206   11.4688 H         1 RES1    0.0000
     11 H4         1.6638    3.5394   10.9831 H         1 RES1    0.0000
     12 C3         3.2295    2.9052   12.1956 C.3       1 RES1    0.0000
     13 H5         2.8251    3.3035   13.0066 H         1 RES1    0.0000
     14 H6         3.6220    2.0320   12.4468 H         1 RES1    0.0000
     15 C4         4.3274    3.8223   11.6735 C.3       1 RES1    0.0000
     16 H7         5.0522    3.8788   12.3462 H         1 RES1    0.0000
     17 H8         3.9590    4.7324   11.5455 H         1 RES1    0.0000
     18 C5         4.9061    3.3222   10.3509 C.3       1 RES1    0.0000
     19 H9         5.5648    3.9729   10.0024 H         1 RES1    0.0000
     20 H10        5.3666    2.4572   10.4908 H         1 RES1    0.0000
     21 C6         3.8015    3.8482    8.2510 C.2       1 RES1    0.0000
     22 C7         2.5822    3.8876    7.3627 C.2       1 RES1    0.0000
     23 C8         2.8378    4.0635    5.9428 C.1       1 RES1    0.0000
     24 H11       -0.3270    4.2626    7.3979 H         1 RES1    0.0000
@<TRIPOS>BOND
     1    1   21 2
     2    2    4 1
     3    3    6 1
     4    4   22 2
     5    5   23 3
     6    6    7 1
     7    8    6 1
     8    9    6 1
     9   10    9 1
    10   11    9 1
    11   12    9 1
    12   13   12 1
    13   14   12 1
    14   15   12 1
    15   16   15 1
    16   17   15 1
    17   18    3 1
    18   19   18 1
    19   20   18 1
    20   21    3 1
    21   22   21 1
    22   23   22 1
    23   24    2 1
    24   15   18 1
@<TRIPOS>SUBSTRUCTURE
     1 RES1 1

@<TRIPOS>CRYSIN
   6.6740   10.3462   13.2342  90.0000  90.0000  90.0000  19 1

