# MOL2 file generated by ConQuest
# Please check atom types

@<TRIPOS>MOLECULE
SABYOL
    42    43     1
SMALL
NO_CHARGES
****
Generated from CSD

@<TRIPOS>ATOM
      1 O1         3.3062    0.9383    0.1467 O.3       1 RES1    0.0000
      2 N1         3.3349    2.9456   -2.5945 N.pl3     1 RES1    0.0000
      3 N2         1.8847    5.3697    1.3466 N.pl3     1 RES1    0.0000
      4 O2         4.7893   -0.0424   -1.1917 O.2       1 RES1    0.0000
      5 C1         3.7085    0.4388   -1.0309 C.2       1 RES1    0.0000
      6 C2         3.1267    1.5954   -3.1591 C.3       1 RES1    0.0000
      7 H1         4.0182    1.2831   -3.4894 H         1 RES1    0.0000
      8 O3         1.7504    0.5765   -6.4545 O.2       1 RES1    0.0000
      9 C3         2.5549    4.1121   -0.6401 C.ar      1 RES1    0.0000
     10 H2         3.3863    3.9312   -0.2161 H         1 RES1    0.0000
     11 O4         2.9637    5.1012    1.8489 O.2       1 RES1    0.0000
     12 C4         2.6714    0.5801   -2.1021 C.3       1 RES1    0.0000
     13 H3         1.8185    0.8811   -1.6992 H         1 RES1    0.0000
     14 H4         2.5167   -0.2982   -2.5317 H         1 RES1    0.0000
     15 C5         2.3038    3.6097   -1.9014 C.ar      1 RES1    0.0000
     16 C6         4.3239    0.9545    1.1983 C.3       1 RES1    0.0000
     17 H5         5.1106    1.4767    0.9053 H         1 RES1    0.0000
     18 H6         4.6179    0.0318    1.4035 H         1 RES1    0.0000
     19 O5         1.0217    6.0303    1.9269 O.2       1 RES1    0.0000
     20 C7         1.6030    4.8765    0.0080 C.ar      1 RES1    0.0000
     21 C8         1.0542    3.8725   -2.4947 C.ar      1 RES1    0.0000
     22 O6         3.3127   -0.2805   -5.1256 O.3       1 RES1    0.0000
     23 N3         0.6880    3.4451   -3.7601 N.pl3     1 RES1    0.0000
     24 C9         2.2109    1.6137   -4.3510 C.2       1 RES1    0.0000
     25 C10        2.3788    0.6182   -5.4104 C.2       1 RES1    0.0000
     26 C11        1.1783    2.4524   -4.5298 C.2       1 RES1    0.0000
     27 H7         0.7090    2.3231   -5.3455 H         1 RES1    0.0000
     28 C12        0.1281    4.6547   -1.8166 C.ar      1 RES1    0.0000
     29 H8        -0.7068    4.8384   -2.2292 H         1 RES1    0.0000
     30 C13        0.3798    5.1712   -0.5675 C.ar      1 RES1    0.0000
     31 H9        -0.2613    5.7088   -0.1183 H         1 RES1    0.0000
     32 C14        3.7130    1.5777    2.3994 C.3       1 RES1    0.0000
     33 H10        4.3738    1.6116    3.1209 H         1 RES1    0.0000
     34 H11        2.9430    1.0457    2.6864 H         1 RES1    0.0000
     35 H12        3.4206    2.4870    2.1814 H         1 RES1    0.0000
     36 C15        3.4763   -1.3445   -6.1280 C.3       1 RES1    0.0000
     37 H13        2.6003   -1.7656   -6.3123 H         1 RES1    0.0000
     38 H14        3.8126   -0.9538   -6.9742 H         1 RES1    0.0000
     39 C16        4.3331   -2.2680   -5.6958 C.3       1 RES1    0.0000
     40 H15        4.4402   -2.9611   -6.3805 H         1 RES1    0.0000
     41 H16        3.9861   -2.6728   -4.8724 H         1 RES1    0.0000
     42 H17        5.2005   -1.8504   -5.5139 H         1 RES1    0.0000
@<TRIPOS>BOND
     1    1    5 1
     2    2    6 1
     3    3   11 2
     4    4    5 2
     5    5   12 1
     6    6    7 1
     7    8   25 2
     8    9   10 1
     9   12    6 1
    10   13   12 1
    11   14   12 1
    12   15    2 1
    13   16    1 1
    14   17   16 1
    15   18   16 1
    16   19    3 2
    17   20    3 1
    18   21   15 ar
    19   22   25 1
    20   23   21 1
    21   24    6 1
    22   25   24 1
    23   26   23 1
    24   27   26 1
    25   28   21 ar
    26   29   28 1
    27   30   20 ar
    28   31   30 1
    29   32   16 1
    30   33   32 1
    31   34   32 1
    32   35   32 1
    33   36   22 1
    34   37   36 1
    35   38   36 1
    36   39   36 1
    37   40   39 1
    38   41   39 1
    39   42   39 1
    40    9   15 ar
    41    9   20 ar
    42   24   26 2
    43   28   30 ar
@<TRIPOS>SUBSTRUCTURE
     1 RES1 1

@<TRIPOS>CRYSIN
  21.4190    7.0654   22.7470  90.0000  90.0000  90.0000  61 1

