# MOL2 file generated by ConQuest
# Please check atom types

@<TRIPOS>MOLECULE
SADHOU
    76    76     2
SMALL
NO_CHARGES
****
Generated from CSD

@<TRIPOS>ATOM
      1 C1         4.3978    2.6260    5.2992 C.2       1 RES1    0.0000
      2 C2         5.3420    2.5516    6.4982 C.3       1 RES1    0.0000
      3 C3         6.4367    2.6779    5.5233 C.2       1 RES1    0.0000
      4 C4         5.5391    2.8200    4.3000 C.3       1 RES1    0.0000
      5 C5         5.3390    1.2016    7.2058 C.3       1 RES1    0.0000
      6 C6         5.2516    3.7212    7.5217 C.3       1 RES1    0.0000
      7 C7         5.6544    4.2106    3.6966 C.3       1 RES1    0.0000
      8 C8         5.7822    1.7083    3.2844 C.3       1 RES1    0.0000
      9 C9         2.0939    2.4613    4.2710 C.3       1 RES1    0.0000
     10 C10        1.6780    1.0614    4.1190 C.3       1 RES1    0.0000
     11 C11        2.6058    2.8894    2.9952 C.3       1 RES1    0.0000
     12 C12        0.9724    3.3214    4.6542 C.3       1 RES1    0.0000
     13 N1         3.1081    2.4935    5.4081 N.pl3     1 RES1    0.0000
     14 N2         7.6963    2.6379    5.7968 N.2       1 RES1    0.0000
     15 O1         2.5732    2.2941    6.5820 O.2       1 RES1    0.0000
     16 O2         8.4658    2.7552    4.6370 O.3       1 RES1    0.0000
     17 C13        2.3907    6.7056    7.4198 C.2       2 RES2    0.0000
     18 C14        2.2681    7.3709    8.7685 C.3       2 RES2    0.0000
     19 C15        2.3718    8.6718    7.9973 C.2       2 RES2    0.0000
     20 C16        2.6144    7.9800    6.6486 C.3       2 RES2    0.0000
     21 C17        3.4349    7.0600    9.7285 C.3       2 RES2    0.0000
     22 C18        0.9327    7.1436    9.4565 C.3       2 RES2    0.0000
     23 C19        1.6041    8.1711    5.5014 C.3       2 RES2    0.0000
     24 C20        4.0536    8.0574    6.0977 C.3       2 RES2    0.0000
     25 C21        2.0552   11.1520    7.7129 C.3       2 RES2    0.0000
     26 C22        0.6005   11.2008    7.2184 C.3       2 RES2    0.0000
     27 C23        3.0752   11.2182    6.6142 C.3       2 RES2    0.0000
     28 C24        2.2724   12.3072    8.7269 C.3       2 RES2    0.0000
     29 N3         2.1684    9.8361    8.5161 N.pl3     2 RES2    0.0000
     30 N4         2.3391    5.5344    6.9135 N.2       2 RES2    0.0000
     31 O3         1.9680    9.9519    9.7998 O.2       2 RES2    0.0000
     32 O4         2.0659    4.5747    7.9080 O.3       2 RES2    0.0000
     33 H1         4.5134    1.1734    7.9017 H         1 RES1    0.0000
     34 H2         6.2677    1.0848    7.7442 H         1 RES1    0.0000
     35 H3         5.2352    0.3982    6.4903 H         1 RES1    0.0000
     36 H4         5.2535    4.6669    7.0013 H         1 RES1    0.0000
     37 H5         6.0925    3.6815    8.1980 H         1 RES1    0.0000
     38 H6         4.3333    3.6199    8.0828 H         1 RES1    0.0000
     39 H7         5.0025    4.2769    2.8392 H         1 RES1    0.0000
     40 H8         6.6746    4.3885    3.3870 H         1 RES1    0.0000
     41 H9         5.3661    4.9530    4.4277 H         1 RES1    0.0000
     42 H10        5.1153    1.8496    2.4466 H         1 RES1    0.0000
     43 H11        5.5922    0.7466    3.7357 H         1 RES1    0.0000
     44 H12        6.8049    1.7507    2.9419 H         1 RES1    0.0000
     45 H13        1.3094    0.7478    5.0844 H         1 RES1    0.0000
     46 H14        2.5015    0.4283    3.8235 H         1 RES1    0.0000
     47 H15        0.8861    0.9844    3.3894 H         1 RES1    0.0000
     48 H16        3.4376    2.2750    2.6833 H         1 RES1    0.0000
     49 H17        2.9351    3.9123    3.1041 H         1 RES1    0.0000
     50 H18        1.8248    2.8390    2.2523 H         1 RES1    0.0000
     51 H19        0.5766    2.9804    5.5993 H         1 RES1    0.0000
     52 H20        0.1996    3.2699    3.9011 H         1 RES1    0.0000
     53 H21        1.3112    4.3418    4.7530 H         1 RES1    0.0000
     54 H22        4.3679    7.2332    9.2136 H         2 RES2    0.0000
     55 H23        3.3841    6.0291   10.0458 H         2 RES2    0.0000
     56 H24        3.3744    7.7066   10.5921 H         2 RES2    0.0000
     57 H25        0.1354    7.3644    8.7638 H         2 RES2    0.0000
     58 H26        0.8498    7.7902   10.3178 H         2 RES2    0.0000
     59 H27        0.8608    6.1139    9.7723 H         2 RES2    0.0000
     60 H28        0.5962    8.1069    5.8885 H         2 RES2    0.0000
     61 H29        1.7579    7.3930    4.7678 H         2 RES2    0.0000
     62 H30        1.7522    9.1370    5.0406 H         2 RES2    0.0000
     63 H31        4.7514    7.9323    6.9112 H         2 RES2    0.0000
     64 H32        4.2056    9.0219    5.6377 H         2 RES2    0.0000
     65 H33        4.2114    7.2793    5.3650 H         2 RES2    0.0000
     66 H34        0.4380   12.0908    6.6283 H         2 RES2    0.0000
     67 H35       -0.0563   11.2110    8.0757 H         2 RES2    0.0000
     68 H36        0.3952   10.3282    6.6165 H         2 RES2    0.0000
     69 H37        2.9013   10.4186    5.9081 H         2 RES2    0.0000
     70 H38        4.0635   11.1152    7.0358 H         2 RES2    0.0000
     71 H39        2.9975   12.1689    6.1087 H         2 RES2    0.0000
     72 H40        2.2013   13.2593    8.2207 H         2 RES2    0.0000
     73 H41        3.2566   12.2014    9.1564 H         2 RES2    0.0000
     74 H42        1.5305   12.2606    9.5106 H         2 RES2    0.0000
     75 H43        9.3590    2.8495    5.1048 H         1 RES1    0.0000
     76 H44        2.2563    3.7163    7.4119 H         2 RES2    0.0000
@<TRIPOS>BOND
     1    1    2 1
     2    2    3 1
     3    3    4 1
     4    4    1 1
     5    5    2 1
     6    6    2 1
     7    7    4 1
     8    8    4 1
     9    9   10 1
    10   10   45 1
    11   11    9 1
    12   12    9 1
    13   13    1 2
    14   14    3 2
    15   15   13 1
    16   16   14 1
    17   17   18 1
    18   18   19 1
    19   19   20 1
    20   20   17 1
    21   21   18 1
    22   22   18 1
    23   23   20 1
    24   24   20 1
    25   25   26 1
    26   26   66 1
    27   27   25 1
    28   28   25 1
    29   29   19 2
    30   30   17 2
    31   31   29 1
    32   32   30 1
    33   33    5 1
    34   34    5 1
    35   35    5 1
    36   36    6 1
    37   37    6 1
    38   38    6 1
    39   39    7 1
    40   40    7 1
    41   41    7 1
    42   42    8 1
    43   43    8 1
    44   44    8 1
    45   46   10 1
    46   47   10 1
    47   48   11 1
    48   49   11 1
    49   50   11 1
    50   51   12 1
    51   52   12 1
    52   53   12 1
    53   54   21 1
    54   55   21 1
    55   56   21 1
    56   57   22 1
    57   58   22 1
    58   59   22 1
    59   60   23 1
    60   61   23 1
    61   62   23 1
    62   63   24 1
    63   64   24 1
    64   65   24 1
    65   67   26 1
    66   68   26 1
    67   69   27 1
    68   70   27 1
    69   71   27 1
    70   72   28 1
    71   73   28 1
    72   74   28 1
    73   75   16 1
    74   76   32 1
    75    9   13 1
    76   25   29 1
@<TRIPOS>SUBSTRUCTURE
     1 RES1 1
     2 RES2 17

@<TRIPOS>CRYSIN
  13.1900   13.2040    7.8400  90.9000  91.4000  90.1000   2 1

