# MOL2 file generated by ConQuest
# Please check atom types

@<TRIPOS>MOLECULE
SADNET
    49    53     1
SMALL
NO_CHARGES
****
Generated from CSD

@<TRIPOS>ATOM
      1 O1         4.1507    8.5869    1.0333 O.3       1 RES1    0.0000
      2 N1         4.0642    8.5926   -0.4226 N.3       1 RES1    0.0000
      3 C1         5.2808    8.0317   -0.9116 C.ar      1 RES1    0.0000
      4 C2         2.1069    9.6605   -2.6828 C.ar      1 RES1    0.0000
      5 C3         1.9241   10.2755   -3.9343 C.ar      1 RES1    0.0000
      6 C4         3.2497   10.2609   -2.0789 C.2       1 RES1    0.0000
      7 C5         7.5711    6.8402   -1.9432 C.ar      1 RES1    0.0000
      8 H1         8.3375    6.4403   -2.2848 H         1 RES1    0.0000
      9 C6         1.1862    8.6811   -2.2869 C.ar      1 RES1    0.0000
     10 H2         1.2850    8.2446   -1.4718 H         1 RES1    0.0000
     11 C7         3.7911   10.0343   -0.7096 C.3       1 RES1    0.0000
     12 H3         4.6164   10.5501   -0.5972 H         1 RES1    0.0000
     13 C8         1.7655    8.3135    1.4736 C.ar      1 RES1    0.0000
     14 N2         2.9300   11.2027   -4.0779 N.3       1 RES1    0.0000
     15 C9         2.8067   10.3987    0.4125 C.3       1 RES1    0.0000
     16 H4         1.8985   10.4394    0.0730 H         1 RES1    0.0000
     17 H5         3.0329   11.2580    0.8016 H         1 RES1    0.0000
     18 C10        5.6073    8.1736   -2.2546 C.ar      1 RES1    0.0000
     19 H6         5.0526    8.6633   -2.8170 H         1 RES1    0.0000
     20 C11        6.1054    7.2788   -0.1032 C.ar      1 RES1    0.0000
     21 H7         5.8963    7.1650    0.7951 H         1 RES1    0.0000
     22 C12        2.9503    9.2741    1.4518 C.3       1 RES1    0.0000
     23 C13        6.7539    7.5878   -2.7557 C.ar      1 RES1    0.0000
     24 H8         6.9745    7.7017   -3.6527 H         1 RES1    0.0000
     25 C14        0.4827    8.8022    1.6706 C.ar      1 RES1    0.0000
     26 H9         0.3484    9.7200    1.7412 H         1 RES1    0.0000
     27 C15        3.7087   11.1975   -2.9598 C.2       1 RES1    0.0000
     28 H10        4.4431   11.7498   -2.8186 H         1 RES1    0.0000
     29 C16        3.2517    9.7764    2.8556 C.3       1 RES1    0.0000
     30 H11        3.4240    9.0277    3.4320 H         1 RES1    0.0000
     31 H12        2.4978   10.2692    3.1886 H         1 RES1    0.0000
     32 H13        4.0229   10.3465    2.8333 H         1 RES1    0.0000
     33 C17        0.8804    9.9581   -4.7808 C.ar      1 RES1    0.0000
     34 H14        0.7872   10.3726   -5.6081 H         1 RES1    0.0000
     35 C18       -0.0095    9.0131   -4.3583 C.ar      1 RES1    0.0000
     36 H15       -0.7267    8.7876   -4.9055 H         1 RES1    0.0000
     37 C19        1.9395    6.9540    1.3754 C.ar      1 RES1    0.0000
     38 H16        2.7922    6.6074    1.2446 H         1 RES1    0.0000
     39 C20        0.1354    8.3741   -3.1180 C.ar      1 RES1    0.0000
     40 H17       -0.4873    7.7351   -2.8543 H         1 RES1    0.0000
     41 C21        0.8586    6.0989    1.4686 C.ar      1 RES1    0.0000
     42 H18        0.9899    5.1811    1.3939 H         1 RES1    0.0000
     43 C22       -0.5990    7.9481    1.7640 C.ar      1 RES1    0.0000
     44 H19       -1.4528    8.2937    1.8905 H         1 RES1    0.0000
     45 C23        7.2411    6.6920   -0.6260 C.ar      1 RES1    0.0000
     46 H20        7.7911    6.1876   -0.0714 H         1 RES1    0.0000
     47 C24       -0.4142    6.5959    1.6707 C.ar      1 RES1    0.0000
     48 H21       -1.1390    6.0174    1.7428 H         1 RES1    0.0000
     49 H22        2.9554   11.6736   -4.7351 H         1 RES1    0.0000
@<TRIPOS>BOND
     1    1    2 1
     2    2    3 1
     3    3   18 ar
     4    4    5 ar
     5    5   14 1
     6    6    4 1
     7    7    8 1
     8    9    4 ar
     9   10    9 1
    10   11    2 1
    11   12   11 1
    12   13   22 1
    13   14   27 1
    14   15   11 1
    15   16   15 1
    16   17   15 1
    17   18   19 1
    18   20    3 ar
    19   21   20 1
    20   22    1 1
    21   23    7 ar
    22   24   23 1
    23   25   13 ar
    24   26   25 1
    25   27    6 2
    26   28   27 1
    27   29   22 1
    28   30   29 1
    29   31   29 1
    30   32   29 1
    31   33    5 ar
    32   34   33 1
    33   35   33 ar
    34   36   35 1
    35   37   13 ar
    36   38   37 1
    37   39    9 ar
    38   40   39 1
    39   41   37 ar
    40   42   41 1
    41   43   25 ar
    42   44   43 1
    43   45    7 ar
    44   46   45 1
    45   47   41 ar
    46   48   47 1
    47   49   14 1
    48    6   11 1
    49   15   22 1
    50   18   23 ar
    51   20   45 ar
    52   35   39 ar
    53   43   47 ar
@<TRIPOS>SUBSTRUCTURE
     1 RES1 1

@<TRIPOS>CRYSIN
  11.3715   10.4415   16.2275  90.0000  90.3980  90.0000 231 1

