# MOL2 file generated by ConQuest
# Please check atom types

@<TRIPOS>MOLECULE
SADNAP
    60    64     2
SMALL
USER_CHARGES
****
Generated from CSD

@<TRIPOS>ATOM
      1 N1        11.1110    5.1512    1.0582 N.pl3     1 RES1    1.0000
      2 C1        10.8265    6.3074   -1.0546 C.2       1 RES1    0.0000
      3 C2        10.9452    5.1485   -0.2467 C.2       1 RES1    0.0000
      4 H1        10.9033    4.3226   -0.6723 H         1 RES1    0.0000
      5 C3        11.3118    3.9370    1.8300 C.ar      1 RES1    0.0000
      6 N2        10.7596    8.4239   -1.7919 N.pl3     1 RES1    0.0000
      7 C4        10.8167    6.2896   -2.5050 C.ar      1 RES1    0.0000
      8 C5        10.7902    7.6284   -2.9247 C.ar      1 RES1    0.0000
      9 C6        10.8006    7.6429   -0.6933 C.2       1 RES1    0.0000
     10 H2        10.8100    7.9564    0.1822 H         1 RES1    0.0000
     11 C7        10.8718    5.2901   -3.4670 C.ar      1 RES1    0.0000
     12 H3        10.8787    4.3930   -3.2198 H         1 RES1    0.0000
     13 C8        10.8240    7.9985   -4.2565 C.ar      1 RES1    0.0000
     14 H4        10.8029    8.8917   -4.5129 H         1 RES1    0.0000
     15 C9        10.9156    5.6542   -4.7966 C.ar      1 RES1    0.0000
     16 H5        10.9597    4.9919   -5.4480 H         1 RES1    0.0000
     17 C10       10.8945    6.9841   -5.1836 C.ar      1 RES1    0.0000
     18 H6        10.9262    7.1955   -6.0897 H         1 RES1    0.0000
     19 C11       11.7224    1.7086    3.3923 C.ar      1 RES1    0.0000
     20 H7        11.8563    0.9529    3.9195 H         1 RES1    0.0000
     21 C12       11.7906    2.7906    1.2560 C.ar      1 RES1    0.0000
     22 H8        11.9743    2.7602    0.3450 H         1 RES1    0.0000
     23 C13       11.9989    1.6787    2.0476 C.ar      1 RES1    0.0000
     24 H9        12.3301    0.8983    1.6655 H         1 RES1    0.0000
     25 C14       11.0530    3.9861    3.1698 C.ar      1 RES1    0.0000
     26 H10       10.7465    4.7717    3.5616 H         1 RES1    0.0000
     27 C15       11.2521    2.8588    3.9389 C.ar      1 RES1    0.0000
     28 H11       11.0601    2.8888    4.8482 H         1 RES1    0.0000
     29 O1        11.0904    6.2838    1.7503 O.2       1 RES1   -1.0000
     30 H12       10.8804    9.4061   -1.8058 H         1 RES1    0.0000
     31 C16       11.3808    1.9073   -5.0370 C.2       2 RES2    0.0000
     32 N3        12.5818    2.2464   -2.9562 N.pl3     2 RES2    1.0000
     33 N4         9.2655    1.9027   -5.7539 N.3       2 RES2    0.0000
     34 C17       12.5612    2.0693   -4.2484 C.2       2 RES2    0.0000
     35 H13       13.3781    2.0468   -4.6918 H         2 RES2    0.0000
     36 C18       11.3826    1.6262   -6.4481 C.ar      2 RES2    0.0000
     37 C19       13.8153    2.4584   -2.2193 C.ar      2 RES2    0.0000
     38 C20       10.0582    2.0582   -4.6789 C.2       2 RES2    0.0000
     39 H14        9.7584    2.2406   -3.8180 H         2 RES2    0.0000
     40 C21       10.0465    1.6378   -6.8636 C.ar      2 RES2    0.0000
     41 C22       12.3674    1.3454   -7.3957 C.ar      2 RES2    0.0000
     42 H15       13.2654    1.3475   -7.1522 H         2 RES2    0.0000
     43 C23        9.6601    1.3764   -8.1664 C.ar      2 RES2    0.0000
     44 H16        8.7667    1.3986   -8.4227 H         2 RES2    0.0000
     45 C24       12.0025    1.0657   -8.6855 C.ar      2 RES2    0.0000
     46 H17       12.6577    0.8649   -9.3143 H         2 RES2    0.0000
     47 C25       10.6620    1.0799   -9.0676 C.ar      2 RES2    0.0000
     48 H18       10.4383    0.8842   -9.9496 H         2 RES2    0.0000
     49 C26       16.0837    2.8641   -0.7401 C.ar      2 RES2    0.0000
     50 H19       16.8605    3.0050   -0.2483 H         2 RES2    0.0000
     51 C27       15.1537    3.8611   -0.8400 C.ar      2 RES2    0.0000
     52 H20       15.2911    4.6713   -0.4047 H         2 RES2    0.0000
     53 C28       14.0052    3.6643   -1.5897 C.ar      2 RES2    0.0000
     54 H21       13.3711    4.3402   -1.6655 H         2 RES2    0.0000
     55 C29       14.7447    1.4629   -2.1202 C.ar      2 RES2    0.0000
     56 H22       14.6147    0.6553   -2.5620 H         2 RES2    0.0000
     57 C30       15.8829    1.6681   -1.3560 C.ar      2 RES2    0.0000
     58 H23       16.5082    0.9864   -1.2641 H         2 RES2    0.0000
     59 O2        11.4751    2.2749   -2.2214 O.2       2 RES2   -1.0000
     60 H24        8.3739    2.0274   -5.7688 H         2 RES2    0.0000
@<TRIPOS>BOND
     1    1    3 2
     2    2    3 1
     3    3    4 1
     4    5    1 1
     5    6    8 1
     6    7    2 1
     7    8    7 ar
     8    9    2 2
     9   10    9 1
    10   11    7 ar
    11   12   11 1
    12   13    8 ar
    13   14   13 1
    14   15   11 ar
    15   16   15 1
    16   17   13 ar
    17   18   17 1
    18   19   20 1
    19   21    5 ar
    20   22   21 1
    21   23   19 ar
    22   24   23 1
    23   25    5 ar
    24   26   25 1
    25   27   19 ar
    26   28   27 1
    27   29    1 1
    28   30    6 1
    29   31   34 1
    30   32   34 2
    31   33   38 1
    32   34   35 1
    33   36   31 1
    34   37   32 1
    35   38   31 2
    36   39   38 1
    37   40   33 1
    38   41   36 ar
    39   42   41 1
    40   43   40 ar
    41   44   43 1
    42   45   41 ar
    43   46   45 1
    44   47   43 ar
    45   48   47 1
    46   49   50 1
    47   51   49 ar
    48   52   51 1
    49   53   37 ar
    50   54   53 1
    51   55   37 ar
    52   56   55 1
    53   57   49 ar
    54   58   57 1
    55   59   32 1
    56   60   33 1
    57    6    9 1
    58   15   17 ar
    59   21   23 ar
    60   25   27 ar
    61   36   40 ar
    62   45   47 ar
    63   51   53 ar
    64   55   57 ar
@<TRIPOS>SUBSTRUCTURE
     1 RES1 1
     2 RES2 31

@<TRIPOS>CRYSIN
  17.6144   17.6144   16.1231  90.0000  90.0000  90.0000  82 1

