# MOL2 file generated by ConQuest
# Please check atom types

@<TRIPOS>MOLECULE
SADVAW
    63    52     3
SMALL
NO_CHARGES
****
Generated from CSD

@<TRIPOS>ATOM
      1 O1         6.4272    2.9627    4.7265 O.2       1 RES1    0.0000
      2 N1         6.9358    4.5120    6.1050 N.3       1 RES1    0.0000
      3 N2         6.6451    4.1822    4.8801 N.2       1 RES1    0.0000
      4 C1         6.9393    3.5798    7.2264 C.3       1 RES1    0.0000
      5 C2         7.2629    5.8811    6.5441 C.3       1 RES1    0.0000
      6 C3         6.7769    7.0562    5.7240 C.3       1 RES1    0.0000
      7 C4         7.1875    8.3094    6.5071 C.3       1 RES1    0.0000
      8 H1         6.1202    3.0792    7.2290 H         1 RES1    0.0000
      9 H2         8.2092    6.0293    6.4820 H         1 RES1    0.0000
     10 H3         5.8197    7.0226    5.6527 H         1 RES1    0.0000
     11 H4         7.2157    7.0541    4.8703 H         1 RES1    0.0000
     12 H5         6.8595    9.0906    6.0557 H         1 RES1    0.0000
     13 H6         8.1435    8.3931    6.4983 H         1 RES1    0.0000
     14 O2         6.3381    2.9717    1.1485 O.2       2 RES2    0.0000
     15 N3         5.1888    4.5240    2.0837 N.3       2 RES2    0.0000
     16 N4         6.2861    4.1944    1.4694 N.2       2 RES2    0.0000
     17 C5         4.1152    3.5863    2.4088 C.3       2 RES2    0.0000
     18 C6         4.8622    5.8870    2.5100 C.3       2 RES2    0.0000
     19 C7         5.5213    7.0638    1.8432 C.3       2 RES2    0.0000
     20 C8         4.8824    8.3222    2.4281 C.3       2 RES2    0.0000
     21 H7         3.9010    3.0636    1.6327 H         2 RES2    0.0000
     22 H8         5.1976    6.0242    3.3986 H         2 RES2    0.0000
     23 H9         5.3560    7.0301    0.8981 H         2 RES2    0.0000
     24 H10        6.4606    7.0591    2.0424 H         2 RES2    0.0000
     25 H11        5.1780    8.4402    3.3339 H         2 RES2    0.0000
     26 H12        5.2261    9.0960    1.9752 H         2 RES2    0.0000
     27 C9         4.1152    3.5234    2.4088 Du        3 SUP3    0.0000
     28 C10        4.4722    5.8238    1.7449 Du        3 SUP3    0.0000
     29 C11        5.3985    7.0005    1.6023 Du        3 SUP3    0.0000
     30 C12        4.5503    8.2599    1.7767 Du        3 SUP3    0.0000
     31 H13        4.6177    3.0006    3.0379 Du        3 SUP3    0.0000
     32 H14        3.9496    5.9612    0.9515 Du        3 SUP3    0.0000
     33 H15        6.0666    6.9671    2.2914 Du        3 SUP3    0.0000
     34 H16        5.7889    6.9962    0.7254 Du        3 SUP3    0.0000
     35 H17        3.9904    8.3772    1.0053 Du        3 SUP3    0.0000
     36 H18        5.1185    9.0330    1.7642 Du        3 SUP3    0.0000
     37 N5         5.0088    4.4608    1.7306 Du        3 SUP3    0.0000
     38 N6         6.1497    4.1312    1.2034 Du        3 SUP3    0.0000
     39 O3         6.4410    2.9090    1.3499 Du        3 SUP3    0.0000
     40 O1A        7.4514    2.9627    9.7264 O.2       1 RES1    0.0000
     41 N1A        6.9429    4.5120    8.3479 N.3       1 RES1    0.0000
     42 N2A        7.2335    4.1822    9.5727 N.2       1 RES1    0.0000
     43 C2A        6.6158    5.8811    7.9087 C.3       1 RES1    0.0000
     44 C3A        7.1018    7.0562    8.7288 C.3       1 RES1    0.0000
     45 C4A        6.6911    8.3094    7.9457 C.3       1 RES1    0.0000
     46 H1A        7.7585    3.0792    7.2238 H         1 RES1    0.0000
     47 H2A        5.6695    6.0293    7.9708 H         1 RES1    0.0000
     48 H3A        8.0589    7.0226    8.8001 H         1 RES1    0.0000
     49 H4A        6.6630    7.0541    9.5825 H         1 RES1    0.0000
     50 H5A        7.0192    9.0906    8.3971 H         1 RES1    0.0000
     51 H6A        5.7351    8.3931    7.9545 H         1 RES1    0.0000
     52 O2A        1.8924    2.9717    3.6691 O.2       2 RES2    0.0000
     53 N3A        3.0417    4.5240    2.7339 N.3       2 RES2    0.0000
     54 N4A        1.9444    4.1944    3.3482 N.2       2 RES2    0.0000
     55 C6A        3.3682    5.8870    2.3076 C.3       2 RES2    0.0000
     56 C7A        2.7092    7.0638    2.9744 C.3       2 RES2    0.0000
     57 C8A        3.3481    8.3222    2.3895 C.3       2 RES2    0.0000
     58 H7A        4.3295    3.0636    3.1850 H         2 RES2    0.0000
     59 H8A        3.0329    6.0242    1.4190 H         2 RES2    0.0000
     60 H9A        2.8745    7.0301    3.9195 H         2 RES2    0.0000
     61 H10A       1.7699    7.0591    2.7752 H         2 RES2    0.0000
     62 H11A       3.0525    8.4402    1.4837 H         2 RES2    0.0000
     63 H12A       3.0044    9.0960    2.8424 H         2 RES2    0.0000
@<TRIPOS>BOND
     1    1    3 2
     2    2    3 1
     3    4    2 1
     4    5    2 1
     5    6    5 1
     6    7    6 1
     7    8    4 1
     8    9    5 1
     9   10    6 1
    10   11    6 1
    11   12    7 1
    12   13    7 1
    13   14   16 2
    14   15   16 1
    15   17   15 1
    16   18   15 1
    17   19   18 1
    18   20   19 1
    19   21   17 1
    20   22   18 1
    21   23   19 1
    22   24   19 1
    23   25   20 1
    24   26   20 1
    25   40   42 2
    26   41    4 1
    27   42   41 1
    28   43    5 1
    29   44   43 1
    30   45    7 1
    31   46    4 1
    32   47   43 1
    33   48   44 1
    34   49   44 1
    35   50   45 1
    36   51   45 1
    37   52   54 2
    38   53   17 1
    39   54   53 1
    40   55   18 1
    41   56   55 1
    42   57   20 1
    43   58   17 1
    44   59   55 1
    45   60   56 1
    46   61   56 1
    47   62   57 1
    48   63   57 1
    49   41   43 1
    50   44   45 1
    51   53   55 1
    52   56   57 1
@<TRIPOS>SUBSTRUCTURE
     1 RES1 1
     2 RES2 14
     3 SUP3 27

@<TRIPOS>CRYSIN
  10.8128    8.4293   10.9321  90.0000 118.1920  90.0000  13 1

