# MOL2 file generated by ConQuest
# Please check atom types

@<TRIPOS>MOLECULE
SAFFIR
    41    42     1
SMALL
NO_CHARGES
****
Generated from CSD

@<TRIPOS>ATOM
      1 O1         6.2088    1.5025    6.3116 O.3       1 RES1    0.0000
      2 N1         7.4510    2.0017    5.7293 N.3       1 RES1    0.0000
      3 N2         0.8030    5.4604    5.8919 N.1       1 RES1    0.0000
      4 C1         2.8905    3.9570    6.0857 C.ar      1 RES1    0.0000
      5 C2         2.8127    2.6546    6.5580 C.ar      1 RES1    0.0000
      6 H1         1.9925    2.3065    6.8265 H         1 RES1    0.0000
      7 C3         3.9421    1.8781    6.6312 C.ar      1 RES1    0.0000
      8 H2         3.8872    1.0103    6.9615 H         1 RES1    0.0000
      9 C4         5.1631    2.3822    6.2147 C.ar      1 RES1    0.0000
     10 C5         5.2543    3.6805    5.7531 C.ar      1 RES1    0.0000
     11 H3         6.0749    4.0253    5.4823 H         1 RES1    0.0000
     12 C6         4.1220    4.4591    5.6982 C.ar      1 RES1    0.0000
     13 H4         4.1842    5.3357    5.3961 H         1 RES1    0.0000
     14 C7         8.4433    2.0460    6.8372 C.3       1 RES1    0.0000
     15 C8         9.7645    2.4750    6.2086 C.3       1 RES1    0.0000
     16 H5         9.6817    3.3914    5.8996 H         1 RES1    0.0000
     17 H6        10.4569    2.4539    6.8875 H         1 RES1    0.0000
     18 C9        10.1899    1.6073    5.0527 C.3       1 RES1    0.0000
     19 H7        10.3500    0.7014    5.3610 H         1 RES1    0.0000
     20 H8        11.0134    1.9479    4.6690 H         1 RES1    0.0000
     21 C10        9.0990    1.6089    4.0106 C.3       1 RES1    0.0000
     22 H9         9.3656    1.0299    3.2797 H         1 RES1    0.0000
     23 H10        9.0086    2.5072    3.6559 H         1 RES1    0.0000
     24 C11        7.7296    1.1451    4.5347 C.3       1 RES1    0.0000
     25 C12        7.7056   -0.3672    4.7834 C.3       1 RES1    0.0000
     26 H11        6.8357   -0.6268    5.0985 H         1 RES1    0.0000
     27 H12        8.3652   -0.5931    5.4426 H         1 RES1    0.0000
     28 H13        7.8997   -0.8292    3.9641 H         1 RES1    0.0000
     29 C13        6.6618    1.4924    3.4995 C.3       1 RES1    0.0000
     30 H14        5.8026    1.2056    3.8176 H         1 RES1    0.0000
     31 H15        6.8619    1.0476    2.6725 H         1 RES1    0.0000
     32 H16        6.6505    2.4415    3.3583 H         1 RES1    0.0000
     33 C14        7.9847    3.1373    7.7977 C.3       1 RES1    0.0000
     34 H17        7.8701    3.9596    7.3163 H         1 RES1    0.0000
     35 H18        8.6448    3.2565    8.4843 H         1 RES1    0.0000
     36 H19        7.1506    2.8818    8.1975 H         1 RES1    0.0000
     37 C15        8.6142    0.7546    7.6428 C.3       1 RES1    0.0000
     38 H20        8.9048    0.0497    7.0592 H         1 RES1    0.0000
     39 H21        7.7754    0.5132    8.0426 H         1 RES1    0.0000
     40 H22        9.2695    0.8914    8.3310 H         1 RES1    0.0000
     41 C16        1.7151    4.7933    5.9896 C.1       1 RES1    0.0000
@<TRIPOS>BOND
     1    1    2 1
     2    2   14 1
     3    3   41 3
     4    4    5 ar
     5    5    6 1
     6    7    5 ar
     7    8    7 1
     8    9    1 1
     9   10    9 ar
    10   11   10 1
    11   12    4 ar
    12   13   12 1
    13   14   15 1
    14   15   16 1
    15   17   15 1
    16   18   15 1
    17   19   18 1
    18   20   18 1
    19   21   18 1
    20   22   21 1
    21   23   21 1
    22   24    2 1
    23   25   24 1
    24   26   25 1
    25   27   25 1
    26   28   25 1
    27   29   24 1
    28   30   29 1
    29   31   29 1
    30   32   29 1
    31   33   14 1
    32   34   33 1
    33   35   33 1
    34   36   33 1
    35   37   14 1
    36   38   37 1
    37   39   37 1
    38   40   37 1
    39   41    4 1
    40    7    9 ar
    41   10   12 ar
    42   21   24 1
@<TRIPOS>SUBSTRUCTURE
     1 RES1 1

@<TRIPOS>CRYSIN
  10.9860   17.7562    7.6511  90.0000  94.3470  90.0000  14 1

