# MOL2 file generated by ConQuest
# Please check atom types

@<TRIPOS>MOLECULE
SAFJIT
    36    37     1
SMALL
USER_CHARGES
****
Generated from CSD

@<TRIPOS>ATOM
      1 O1         6.2115    0.1720    8.0952 O.2       1 RES1    0.0000
      2 O2         3.6785    3.0837    5.5799 O.2       1 RES1   -1.0000
      3 N1         5.4146    0.6357    7.2062 N.pl3     1 RES1    0.0000
      4 N2         4.2205    2.0095    6.0317 N.pl3     1 RES1    1.0000
      5 N3         4.2265    6.3133    8.8718 N.2       1 RES1    0.0000
      6 N4         4.4893    7.2178    9.6555 N.1       1 RES1    1.0000
      7 N5         4.6067    8.1189   10.3473 N.2       1 RES1   -1.0000
      8 C1         4.5641   -0.2825    6.3690 C.3       1 RES1    0.0000
      9 C2         4.0057    0.7177    5.3167 C.3       1 RES1    0.0000
     10 C3         5.0885    1.9286    7.0416 C.2       1 RES1    0.0000
     11 C4         5.5593    3.0541    7.8514 C.ar      1 RES1    0.0000
     12 C5         4.7381    4.1637    8.0134 C.ar      1 RES1    0.0000
     13 C6         5.1633    5.2356    8.7738 C.ar      1 RES1    0.0000
     14 C7         6.4244    5.2447    9.3387 C.ar      1 RES1    0.0000
     15 C8         7.2444    4.1432    9.1736 C.ar      1 RES1    0.0000
     16 C9         6.8222    3.0530    8.4365 C.ar      1 RES1    0.0000
     17 C10        3.5136   -0.8624    7.2768 C.3       1 RES1    0.0000
     18 C11        5.4243   -1.4046    5.8021 C.3       1 RES1    0.0000
     19 C12        2.5306    0.5867    4.9998 C.3       1 RES1    0.0000
     20 C13        4.8050    0.8020    4.0226 C.3       1 RES1    0.0000
     21 H1         3.8561    4.2047    7.6382 H         1 RES1    0.0000
     22 H2         6.7504    5.9909    9.8300 H         1 RES1    0.0000
     23 H3         8.0838    4.1580    9.6234 H         1 RES1    0.0000
     24 H4         7.4323    2.3125    8.3300 H         1 RES1    0.0000
     25 H5         2.9655   -0.1583    7.6201 H         1 RES1    0.0000
     26 H6         3.9546   -1.3089    8.0132 H         1 RES1    0.0000
     27 H7         2.9868   -1.4889    6.7920 H         1 RES1    0.0000
     28 H8         6.0788   -1.0264    5.2218 H         1 RES1    0.0000
     29 H9         4.8768   -2.0277    5.3161 H         1 RES1    0.0000
     30 H10        5.8446   -1.8477    6.5373 H         1 RES1    0.0000
     31 H11        2.0683    0.5309    5.8274 H         1 RES1    0.0000
     32 H12        2.3925   -0.2290    4.4959 H         1 RES1    0.0000
     33 H13        2.2307    1.3306    4.4879 H         1 RES1    0.0000
     34 H14        5.7351    0.9113    4.2613 H         1 RES1    0.0000
     35 H15        4.5240    1.5709    3.5173 H         1 RES1    0.0000
     36 H16        4.6858    0.0114    3.5233 H         1 RES1    0.0000
@<TRIPOS>BOND
     1    1    3 1
     2    2    4 1
     3    3    8 1
     4    4    9 1
     5    5    6 2
     6    6    7 2
     7    8    9 1
     8    9   19 1
     9   10    3 1
    10   11   10 1
    11   12   11 ar
    12   13    5 1
    13   14   13 ar
    14   15   14 ar
    15   16   11 ar
    16   17    8 1
    17   18    8 1
    18   19   31 1
    19   20    9 1
    20   21   12 1
    21   22   14 1
    22   23   15 1
    23   24   16 1
    24   25   17 1
    25   26   17 1
    26   27   17 1
    27   28   18 1
    28   29   18 1
    29   30   18 1
    30   32   19 1
    31   33   19 1
    32   34   20 1
    33   35   20 1
    34   36   20 1
    35    4   10 2
    36   12   13 ar
    37   15   16 ar
@<TRIPOS>SUBSTRUCTURE
     1 RES1 1

@<TRIPOS>CRYSIN
   6.0831   11.3917   20.0530  90.0000  90.0000  90.0000  19 1

