# MOL2 file generated by ConQuest
# Please check atom types

@<TRIPOS>MOLECULE
SAFJAL
    36    37     1
SMALL
USER_CHARGES
****
Generated from CSD

@<TRIPOS>ATOM
      1 O1         3.2841    7.7277    4.1357 O.2       1 RES1    0.0000
      2 N1         2.0296    7.6421    4.3604 N.3       1 RES1    0.0000
      3 C1         1.2671    8.5142    5.0705 C.2       1 RES1    0.0000
      4 O2        -1.0324    8.6004    5.5976 O.2       1 RES1   -1.0000
      5 N2         0.0027    8.0252    5.0965 N.pl3     1 RES1    1.0000
      6 C2        -0.0590    6.6204    4.5941 C.3       1 RES1    0.0000
      7 C3        -1.3738    6.3754    3.8742 C.3       1 RES1    0.0000
      8 H1        -2.0964    6.4083    4.5069 H         1 RES1    0.0000
      9 H2        -1.3540    5.5109    3.4558 H         1 RES1    0.0000
     10 H3        -1.5031    7.0507    3.2050 H         1 RES1    0.0000
     11 C4         0.0608    5.7380    5.8284 C.3       1 RES1    0.0000
     12 H4        -0.7469    5.7957    6.3427 H         1 RES1    0.0000
     13 H5         0.8020    6.0348    6.3623 H         1 RES1    0.0000
     14 H6         0.2054    4.8286    5.5593 H         1 RES1    0.0000
     15 C5         1.1921    6.5915    3.6847 C.3       1 RES1    0.0000
     16 C6         0.9282    7.1134    2.2666 C.3       1 RES1    0.0000
     17 H7         1.7401    7.0756    1.7559 H         1 RES1    0.0000
     18 H8         0.6206    8.0208    2.3109 H         1 RES1    0.0000
     19 H9         0.2600    6.5686    1.8442 H         1 RES1    0.0000
     20 C7         1.9220    5.2708    3.6305 C.3       1 RES1    0.0000
     21 H10        2.6843    5.3505    3.0522 H         1 RES1    0.0000
     22 H11        1.3323    4.5936    3.2919 H         1 RES1    0.0000
     23 H12        2.2138    5.0298    4.5125 H         1 RES1    0.0000
     24 C8         1.7021    9.7770    5.6471 C.ar      1 RES1    0.0000
     25 C9         0.9761   10.3803    6.6774 C.ar      1 RES1    0.0000
     26 H13        0.2245    9.9540    7.0238 H         1 RES1    0.0000
     27 C10        1.3635   11.6024    7.1852 C.ar      1 RES1    0.0000
     28 H14        0.8867   11.9908    7.8829 H         1 RES1    0.0000
     29 C11        2.4673   12.2511    6.6521 C.ar      1 RES1    0.0000
     30 C12        3.1857   11.6751    5.6220 C.ar      1 RES1    0.0000
     31 H15        3.9176   12.1203    5.2580 H         1 RES1    0.0000
     32 C13        2.8166   10.4411    5.1347 C.ar      1 RES1    0.0000
     33 H16        3.3158   10.0467    4.4564 H         1 RES1    0.0000
     34 N3         2.9265   13.5300    7.0901 N.2       1 RES1    0.0000
     35 N4         2.2519   14.0810    7.9758 N.1       1 RES1    1.0000
     36 N5         1.7185   14.6960    8.7551 N.2       1 RES1   -1.0000
@<TRIPOS>BOND
     1    1    2 1
     2    2    3 1
     3    3    5 2
     4    4    5 1
     5    5    6 1
     6    6    7 1
     7    7    8 1
     8    9    7 1
     9   10    7 1
    10   11    6 1
    11   12   11 1
    12   13   11 1
    13   14   11 1
    14   15    2 1
    15   16   15 1
    16   17   16 1
    17   18   16 1
    18   19   16 1
    19   20   15 1
    20   21   20 1
    21   22   20 1
    22   23   20 1
    23   24    3 1
    24   25   24 ar
    25   26   25 1
    26   27   25 ar
    27   28   27 1
    28   29   27 ar
    29   30   29 ar
    30   31   30 1
    31   32   24 ar
    32   33   32 1
    33   34   29 1
    34   35   34 2
    35   36   35 2
    36    6   15 1
    37   30   32 ar
@<TRIPOS>SUBSTRUCTURE
     1 RES1 1

@<TRIPOS>CRYSIN
   9.7300    9.9600   14.2940  90.0000 101.3600  90.0000  14 1

