# MOL2 file generated by ConQuest
# Please check atom types

@<TRIPOS>MOLECULE
SAFMEU
    19    20     1
SMALL
NO_CHARGES
****
Generated from CSD

@<TRIPOS>ATOM
      1 O1         4.2137    5.6799   17.3804 O.2       1 RES1    0.0000
      2 O2         5.8473   -0.0229   13.6423 O.2       1 RES1    0.0000
      3 O3         5.7687    5.5655   15.8608 O.2       1 RES1    0.0000
      4 O4         2.6483    1.4541   19.2279 O.2       1 RES1    0.0000
      5 O5         3.0896   -0.4257   18.2333 O.2       1 RES1    0.0000
      6 N1         6.0987    3.2637   14.3471 N.3       1 RES1    0.0000
      7 N2         4.9060    5.0592   16.5846 N.pl3     1 RES1    0.0000
      8 N3         6.3956    2.1951   13.5872 N.2       1 RES1    0.0000
      9 N4         3.1334    0.8003   18.3105 N.pl3     1 RES1    0.0000
     10 N5         5.7786    1.1774   14.1381 N.pl3     1 RES1    0.0000
     11 C1         3.9772    2.9233   17.3825 C.ar      1 RES1    0.0000
     12 C2         5.0822    1.5499   15.2776 C.ar      1 RES1    0.0000
     13 C3         4.3665    0.7988   16.1994 C.ar      1 RES1    0.0000
     14 C4         3.8425    1.5267   17.2432 C.ar      1 RES1    0.0000
     15 C5         5.3059    2.9233   15.3909 C.ar      1 RES1    0.0000
     16 C6         4.7122    3.6200   16.4606 C.ar      1 RES1    0.0000
     17 H1         3.5830    3.3784   18.1136 H         1 RES1    0.0000
     18 H2         4.2563   -0.1593   16.1409 H         1 RES1    0.0000
     19 H3         6.5698    4.0464   14.1831 H         1 RES1    0.0000
@<TRIPOS>BOND
     1    1    7 2
     2    2   10 1
     3    3    7 2
     4    4    9 2
     5    5    9 2
     6    6    8 1
     7    7   16 1
     8    8   10 2
     9    9   14 1
    10   10   12 1
    11   11   14 ar
    12   12   13 ar
    13   13   14 ar
    14   15    6 1
    15   16   11 ar
    16   17   11 1
    17   18   13 1
    18   19    6 1
    19   12   15 ar
    20   15   16 ar
@<TRIPOS>SUBSTRUCTURE
     1 RES1 1

@<TRIPOS>CRYSIN
   9.0869   10.2129   18.6989  90.0000  90.0000  90.0000  61 1

