# MOL2 file generated by ConQuest
# Please check atom types

@<TRIPOS>MOLECULE
SAFMAQ01
    18    19     1
SMALL
NO_CHARGES
****
Generated from CSD

@<TRIPOS>ATOM
      1 O1         6.2465    0.3328   -1.1911 O.2       1 RES1    0.0000
      2 O2         5.2030   -1.4853   -0.5924 O.2       1 RES1    0.0000
      3 O3         3.9777   -2.0064    4.0450 O.2       1 RES1    0.0000
      4 O4         3.9775   -0.3170    5.3986 O.2       1 RES1    0.0000
      5 N1         6.7293    3.0905    2.6520 N.2       1 RES1    0.0000
      6 N2         7.2212    3.3269    1.4672 N.2       1 RES1    0.0000
      7 N3         6.8881    2.2955    0.6505 N.3       1 RES1    0.0000
      8 N4         5.6877   -0.3861   -0.3663 N.pl3     1 RES1    0.0000
      9 N5         4.2224   -0.8317    4.3121 N.pl3     1 RES1    0.0000
     10 C1         6.0729    1.8746    2.6216 C.ar      1 RES1    0.0000
     11 C2         6.1859    1.3674    1.3233 C.ar      1 RES1    0.0000
     12 C3         5.6067    0.1287    1.0088 C.ar      1 RES1    0.0000
     13 C4         4.9637   -0.5667    1.9908 C.ar      1 RES1    0.0000
     14 C5         4.8841   -0.0235    3.2837 C.ar      1 RES1    0.0000
     15 C6         5.4112    1.1880    3.6402 C.ar      1 RES1    0.0000
     16 H1         4.5612   -1.4517    1.7960 H         1 RES1    0.0000
     17 H2         5.3431    1.5468    4.5570 H         1 RES1    0.0000
     18 H3         7.1531    2.3583   -0.2413 H         1 RES1    0.0000
@<TRIPOS>BOND
     1    1    8 2
     2    2    8 2
     3    3    9 2
     4    4    9 2
     5    5    6 2
     6    6    7 1
     7    7   11 1
     8    8   12 1
     9    9   14 1
    10   10    5 1
    11   11   10 ar
    12   12   11 ar
    13   13   12 ar
    14   14   13 ar
    15   15   10 ar
    16   16   13 1
    17   17   15 1
    18   18    7 1
    19   14   15 ar
@<TRIPOS>SUBSTRUCTURE
     1 RES1 1

@<TRIPOS>CRYSIN
  14.4800    6.3394    8.9352  90.0000  90.0000  90.0000  33 1

