# MOL2 file generated by ConQuest
# Please check atom types

@<TRIPOS>MOLECULE
SAFMAQ
    18    19     1
SMALL
NO_CHARGES
****
Generated from CSD

@<TRIPOS>ATOM
      1 O1         6.4330    0.3274    6.5125 O.2       1 RES1    0.0000
      2 N1         6.8561    3.1194    2.6719 N.2       1 RES1    0.0000
      3 N2         5.8352   -0.3536    5.6925 N.pl3     1 RES1    0.0000
      4 O2         5.3307   -1.4540    5.9259 O.2       1 RES1    0.0000
      5 N3         7.0292    2.3126    4.6740 N.3       1 RES1    0.0000
      6 O3         4.0613   -0.2821   -0.0501 O.2       1 RES1    0.0000
      7 N4         7.3532    3.3524    3.8468 N.2       1 RES1    0.0000
      8 C1         5.5112    1.2243    1.6936 C.ar      1 RES1    0.0000
      9 H1         5.4343    1.5626    0.8307 H         1 RES1    0.0000
     10 C2         4.9771    0.0134    2.0656 C.ar      1 RES1    0.0000
     11 C3         6.1814    1.9060    2.7121 C.ar      1 RES1    0.0000
     12 C4         5.0733   -0.5221    3.3541 C.ar      1 RES1    0.0000
     13 H2         4.6856   -1.3449    3.5482 H         1 RES1    0.0000
     14 N5         4.2876   -0.7794    1.0408 N.pl3     1 RES1    0.0000
     15 C5         5.7376    0.1672    4.3252 C.ar      1 RES1    0.0000
     16 C6         6.3057    1.3992    4.0024 C.ar      1 RES1    0.0000
     17 O4         4.0036   -1.9385    1.3046 O.2       1 RES1    0.0000
     18 H3         7.2792    2.3426    5.4993 H         1 RES1    0.0000
@<TRIPOS>BOND
     1    1    3 2
     2    2    7 2
     3    3    4 2
     4    5    7 1
     5    6   14 2
     6    8    9 1
     7   10    8 ar
     8   11    2 1
     9   12   10 ar
    10   13   12 1
    11   14   10 1
    12   15    3 1
    13   16    5 1
    14   17   14 2
    15   18    5 1
    16    8   11 ar
    17   11   16 ar
    18   12   15 ar
    19   15   16 ar
@<TRIPOS>SUBSTRUCTURE
     1 RES1 1

@<TRIPOS>CRYSIN
  14.7952    6.3830    8.9420  90.0000  90.0000  90.0000  33 1

