# MOL2 file generated by ConQuest
# Please check atom types

@<TRIPOS>MOLECULE
SAFQOI
   164   176     2
SMALL
NO_CHARGES
****
Generated from CSD

@<TRIPOS>ATOM
      1 C1        -0.4513    4.5445    1.7290 C.3       1 RES1    0.0000
      2 H1        -0.5719    3.9374    2.5150 H         1 RES1    0.0000
      3 C2         0.9005    5.3053    1.8510 C.3       1 RES1    0.0000
      4 H2         0.8057    6.1029    2.4459 H         1 RES1    0.0000
      5 C3         2.0269    4.3757    2.3573 C.3       1 RES1    0.0000
      6 C4         1.7505    3.8266    3.7856 C.3       1 RES1    0.0000
      7 H3         2.5166    4.0826    4.3571 H         1 RES1    0.0000
      8 H4         0.9556    4.2995    4.1390 H         1 RES1    0.0000
      9 C5         1.5123    2.3063    3.9780 C.3       1 RES1    0.0000
     10 H5         0.5610    2.1698    4.2542 H         1 RES1    0.0000
     11 C6         1.7761    1.4633    2.7350 C.3       1 RES1    0.0000
     12 H6         1.9634    0.5127    2.9821 H         1 RES1    0.0000
     13 C7         0.5890    1.5535    1.7596 C.3       1 RES1    0.0000
     14 H7        -0.2454    1.7675    2.2477 H         1 RES1    0.0000
     15 H8         0.4652    0.6942    1.2844 H         1 RES1    0.0000
     16 C8         0.9381    2.6952    0.7444 C.3       1 RES1    0.0000
     17 H9         1.1580    2.2555   -0.1260 H         1 RES1    0.0000
     18 C9        -0.2010    3.7177    0.4651 C.3       1 RES1    0.0000
     19 C10       -1.3947    2.9464   -0.1486 C.3       1 RES1    0.0000
     20 H10       -1.0187    2.3202   -0.8312 H         1 RES1    0.0000
     21 C11       -2.4897    3.7526   -0.8382 C.3       1 RES1    0.0000
     22 H11       -3.0240    3.1503   -1.4135 H         1 RES1    0.0000
     23 H12       -3.0934    4.1337   -0.1521 H         1 RES1    0.0000
     24 C12       -1.9239    4.8800   -1.6860 C.3       1 RES1    0.0000
     25 H13       -2.6610    5.4561   -2.0111 H         1 RES1    0.0000
     26 H14       -1.4562    4.5030   -2.4736 H         1 RES1    0.0000
     27 C13       -0.9520    5.7082   -0.8588 C.3       1 RES1    0.0000
     28 H15       -0.6341    6.4653   -1.4288 H         1 RES1    0.0000
     29 C14       -1.5815    6.3081    0.4121 C.3       1 RES1    0.0000
     30 H16       -1.0555    7.1027    0.6821 H         1 RES1    0.0000
     31 H17       -2.4980    6.6140    0.1982 H         1 RES1    0.0000
     32 C15        1.2125    5.7371    0.4015 C.3       1 RES1    0.0000
     33 H18        2.1605    5.5619    0.1782 H         1 RES1    0.0000
     34 H19        1.0238    6.6996    0.2719 H         1 RES1    0.0000
     35 C16        0.2715    4.8695   -0.4681 C.3       1 RES1    0.0000
     36 H20        0.7435    4.5149   -1.2752 H         1 RES1    0.0000
     37 C17        2.2571    3.2798    1.3025 C.3       1 RES1    0.0000
     38 H21        2.8211    3.6337    0.5562 H         1 RES1    0.0000
     39 C18        2.9032    2.0389    1.9065 C.3       1 RES1    0.0000
     40 H22        3.1610    1.3979    1.1830 H         1 RES1    0.0000
     41 C19       -2.0325    6.0744    2.7778 C.3       1 RES1    0.0000
     42 H23       -1.4000    6.8195    2.9391 H         1 RES1    0.0000
     43 H24       -1.9639    5.4485    3.5413 H         1 RES1    0.0000
     44 C20       -3.4493    6.6281    2.7108 C.3       1 RES1    0.0000
     45 H25       -3.4798    7.3714    2.0726 H         1 RES1    0.0000
     46 H26       -3.7165    6.9485    3.5982 H         1 RES1    0.0000
     47 H27       -4.0628    5.9214    2.4198 H         1 RES1    0.0000
     48 C21        3.4136    6.2808    3.0429 C.3       1 RES1    0.0000
     49 H28        2.9176    6.2268    3.8978 H         1 RES1    0.0000
     50 H29        3.0296    7.0162    2.5027 H         1 RES1    0.0000
     51 C22        4.8760    6.5329    3.3033 C.3       1 RES1    0.0000
     52 H30        5.2269    5.8377    3.8978 H         1 RES1    0.0000
     53 H31        4.9857    7.4103    3.7272 H         1 RES1    0.0000
     54 H32        5.3660    6.5163    2.4551 H         1 RES1    0.0000
     55 C23        1.8907    2.1654    6.3022 C.3       1 RES1    0.0000
     56 H33        1.8399    3.1421    6.3667 H         1 RES1    0.0000
     57 H34        2.5092    1.8252    6.9813 H         1 RES1    0.0000
     58 H35        1.0009    1.7820    6.4497 H         1 RES1    0.0000
     59 C24       -2.6650    0.9999    0.3790 C.3       1 RES1    0.0000
     60 H36       -3.5066    1.2704   -0.0446 H         1 RES1    0.0000
     61 H37       -2.8543    0.3850    1.1185 H         1 RES1    0.0000
     62 H38       -2.0956    0.5527   -0.2812 H         1 RES1    0.0000
     63 C25        5.2180    2.5034    2.1873 C.2       1 RES1    0.0000
     64 C26        6.2935    2.6816    3.2107 C.ar      1 RES1    0.0000
     65 C27        7.5945    2.8788    2.7624 C.ar      1 RES1    0.0000
     66 H39        7.7696    2.9337    1.8298 H         1 RES1    0.0000
     67 C28        8.6358    2.9958    3.6653 C.ar      1 RES1    0.0000
     68 H40        9.5302    3.1116    3.3662 H         1 RES1    0.0000
     69 C29        8.3428    2.9397    5.0118 C.ar      1 RES1    0.0000
     70 C30        7.0594    2.7400    5.4887 C.ar      1 RES1    0.0000
     71 H41        6.8889    2.7005    6.4220 H         1 RES1    0.0000
     72 C31        6.0268    2.5993    4.5742 C.ar      1 RES1    0.0000
     73 H42        5.1397    2.4472    4.8780 H         1 RES1    0.0000
     74 N1        -1.6499    5.3787    1.5525 N.3       1 RES1    0.0000
     75 N2         9.4431    3.0988    5.9809 N.pl3     1 RES1    0.0000
     76 O1         3.3146    5.0510    2.3394 O.3       1 RES1    0.0000
     77 O2         2.3571    1.7998    5.0113 O.3       1 RES1    0.0000
     78 O3        -2.0021    2.1382    0.8751 O.3       1 RES1    0.0000
     79 O4         4.0356    2.2972    2.7688 O.3       1 RES1    0.0000
     80 O5         5.4076    2.4959    0.9986 O.2       1 RES1    0.0000
     81 O6        10.5808    3.2498    5.5432 O.2       1 RES1    0.0000
     82 O7         9.1710    3.0917    7.1753 O.2       1 RES1    0.0000
     83 C32       18.5942    8.6749   10.7673 C.3       2 RES2    0.0000
     84 H43       18.7608    7.9222   10.1308 H         2 RES2    0.0000
     85 C33       17.1997    9.3111   10.4905 C.3       2 RES2    0.0000
     86 H44       17.2493    9.9612    9.7329 H         2 RES2    0.0000
     87 C34       16.1166    8.2477   10.2276 C.3       2 RES2    0.0000
     88 C35       16.3666    7.4363    8.9285 C.3       2 RES2    0.0000
     89 H45       15.5319    7.4553    8.3963 H         2 RES2    0.0000
     90 H46       17.0577    7.9122    8.4039 H         2 RES2    0.0000
     91 C36       16.8087    5.9603    9.0620 C.3       2 RES2    0.0000
     92 H47       17.7855    5.9064    8.8587 H         2 RES2    0.0000
     93 C37       16.5722    5.3471   10.4447 C.3       2 RES2    0.0000
     94 H48       16.4429    4.3582   10.3782 H         2 RES2    0.0000
     95 C38       17.7349    5.6843   11.3942 C.3       2 RES2    0.0000
     96 H49       18.5702    5.8246   10.8821 H         2 RES2    0.0000
     97 H50       17.8787    4.9483   12.0405 H         2 RES2    0.0000
     98 C39       17.3204    6.9989   12.1407 C.3       2 RES2    0.0000
     99 H51       17.1253    6.7459   13.0883 H         2 RES2    0.0000
    100 C40       18.3862    8.1283   12.1868 C.3       2 RES2    0.0000
    101 C41       19.6197    7.5867   12.9585 C.3       2 RES2    0.0000
    102 H52       19.2764    7.1073   13.7659 H         2 RES2    0.0000
    103 C42       20.6587    8.5941   13.4395 C.3       2 RES2    0.0000
    104 H53       21.2315    8.1677   14.1254 H         2 RES2    0.0000
    105 H54       21.2373    8.8525   12.6781 H         2 RES2    0.0000
    106 C43       20.0210    9.8399   14.0270 C.3       2 RES2    0.0000
    107 H55       20.7183   10.5176   14.2114 H         2 RES2    0.0000
    108 H56       19.5721    9.6163   14.8813 H         2 RES2    0.0000
    109 C44       19.0017   10.4031   13.0399 C.3       2 RES2    0.0000
    110 H57       18.6306   11.2456   13.4309 H         2 RES2    0.0000
    111 C45       19.6139   10.7479   11.6719 C.3       2 RES2    0.0000
    112 H58       19.0573   11.4457   11.2431 H         2 RES2    0.0000
    113 H59       20.5152   11.1311   11.8162 H         2 RES2    0.0000
    114 C46       16.8655   10.0327   11.8107 C.3       2 RES2    0.0000
    115 H60       15.9253    9.8683   12.0728 H         2 RES2    0.0000
    116 H61       17.0083   11.0092   11.7240 H         2 RES2    0.0000
    117 C47       17.8391    9.4263   12.8462 C.3       2 RES2    0.0000
    118 H62       17.3770    9.2305   13.7121 H         2 RES2    0.0000
    119 C48       15.9682    7.3753   11.4888 C.3       2 RES2    0.0000
    120 H63       15.3824    7.8348   12.1557 H         2 RES2    0.0000
    121 C49       15.4044    5.9957   11.1596 C.3       2 RES2    0.0000
    122 H64       15.1959    5.4986   12.0021 H         2 RES2    0.0000
    123 C50       20.0904   10.0572    9.4143 C.3       2 RES2    0.0000
    124 H65       19.4294   10.7250    9.1045 H         2 RES2    0.0000
    125 H66       20.0600    9.2874    8.7926 H         2 RES2    0.0000
    126 C51       21.4839   10.6755    9.3811 C.3       2 RES2    0.0000
    127 H67       21.4827   11.5114    9.8911 H         2 RES2    0.0000
    128 H68       21.7375   10.8599    8.4531 H         2 RES2    0.0000
    129 H69       22.1270   10.0513    9.7774 H         2 RES2    0.0000
    130 C52       14.5925    9.9151    9.2228 C.3       2 RES2    0.0000
    131 H70       14.7501    9.5857    8.3025 H         2 RES2    0.0000
    132 H71       15.2093   10.6692    9.3995 H         2 RES2    0.0000
    133 C53       13.1625   10.3573    9.3852 C.3       2 RES2    0.0000
    134 H72       12.5627    9.6178    9.1506 H         2 RES2    0.0000
    135 H73       12.9880   11.1201    8.7957 H         2 RES2    0.0000
    136 H74       13.0050   10.6208   10.3152 H         2 RES2    0.0000
    137 C54       16.5622    5.3282    6.8112 C.3       2 RES2    0.0000
    138 H75       16.3016    6.2204    6.5019 H         2 RES2    0.0000
    139 H76       16.1623    4.6500    6.2269 H         2 RES2    0.0000
    140 H77       17.5383    5.2456    6.7846 H         2 RES2    0.0000
    141 C55       20.9438    5.6125   12.8775 C.3       2 RES2    0.0000
    142 H78       21.6347    6.0220   13.4386 H         2 RES2    0.0000
    143 H79       21.3597    4.9715   12.2633 H         2 RES2    0.0000
    144 H80       20.2960    5.1458   13.4463 H         2 RES2    0.0000
    145 C56       13.1089    6.4562   10.8157 C.2       2 RES2    0.0000
    146 C57       12.0079    6.4680    9.8111 C.ar      2 RES2    0.0000
    147 C58       12.2101    6.0778    8.4867 C.ar      2 RES2    0.0000
    148 H81       13.0791    5.8353    8.1904 H         2 RES2    0.0000
    149 C59       11.1456    6.0449    7.6087 C.ar      2 RES2    0.0000
    150 H82       11.2701    5.7838    6.7032 H         2 RES2    0.0000
    151 C60        9.8931    6.4019    8.0775 C.ar      2 RES2    0.0000
    152 C61        9.6681    6.8013    9.3789 C.ar      2 RES2    0.0000
    153 H83        8.7978    7.0446    9.6714 H         2 RES2    0.0000
    154 C62       10.7435    6.8377   10.2442 C.ar      2 RES2    0.0000
    155 H84       10.6165    7.1185   11.1433 H         2 RES2    0.0000
    156 N3        19.7297    9.6091   10.7532 N.3       2 RES2    0.0000
    157 N4         8.7494    6.3603    7.1516 N.pl3     2 RES2    0.0000
    158 O8        14.8024    8.8715   10.1658 O.3       2 RES2    0.0000
    159 O9        16.1123    5.1379    8.1246 O.3       2 RES2    0.0000
    160 O10       20.2834    6.6152   12.1362 O.3       2 RES2    0.0000
    161 O11       14.2517    6.0060   10.2861 O.3       2 RES2    0.0000
    162 O12       12.9723    6.7771   11.9706 O.2       2 RES2    0.0000
    163 O13        7.6515    6.7064    7.5729 O.2       2 RES2    0.0000
    164 O14        8.9445    5.9966    6.0034 O.2       2 RES2    0.0000
@<TRIPOS>BOND
     1    1    2 1
     2    3    1 1
     3    4    3 1
     4    5    3 1
     5    6    5 1
     6    7    6 1
     7    8    6 1
     8    9    6 1
     9   10    9 1
    10   11    9 1
    11   12   11 1
    12   13   11 1
    13   14   13 1
    14   15   13 1
    15   16   13 1
    16   17   16 1
    17   18    1 1
    18   19   18 1
    19   20   19 1
    20   21   19 1
    21   22   21 1
    22   23   21 1
    23   24   21 1
    24   25   24 1
    25   26   24 1
    26   27   24 1
    27   28   27 1
    28   29   27 1
    29   30   29 1
    30   31   29 1
    31   32    3 1
    32   33   32 1
    33   34   32 1
    34   35   18 1
    35   36   35 1
    36   37    5 1
    37   38   37 1
    38   39   11 1
    39   40   39 1
    40   41   42 1
    41   43   41 1
    42   44   41 1
    43   45   44 1
    44   46   44 1
    45   47   44 1
    46   48   49 1
    47   50   48 1
    48   51   48 1
    49   52   51 1
    50   53   51 1
    51   54   51 1
    52   55   56 1
    53   57   55 1
    54   58   55 1
    55   59   60 1
    56   61   59 1
    57   62   59 1
    58   63   64 1
    59   64   65 ar
    60   65   66 1
    61   67   65 ar
    62   68   67 1
    63   69   67 ar
    64   70   69 ar
    65   71   70 1
    66   72   64 ar
    67   73   72 1
    68   74    1 1
    69   75   69 1
    70   76    5 1
    71   77    9 1
    72   78   19 1
    73   79   39 1
    74   80   63 2
    75   81   75 2
    76   82   75 2
    77   83   84 1
    78   85   83 1
    79   86   85 1
    80   87   85 1
    81   88   87 1
    82   89   88 1
    83   90   88 1
    84   91   88 1
    85   92   91 1
    86   93   91 1
    87   94   93 1
    88   95   93 1
    89   96   95 1
    90   97   95 1
    91   98   95 1
    92   99   98 1
    93  100   83 1
    94  101  100 1
    95  102  101 1
    96  103  101 1
    97  104  103 1
    98  105  103 1
    99  106  103 1
   100  107  106 1
   101  108  106 1
   102  109  106 1
   103  110  109 1
   104  111  109 1
   105  112  111 1
   106  113  111 1
   107  114   85 1
   108  115  114 1
   109  116  114 1
   110  117  100 1
   111  118  117 1
   112  119   87 1
   113  120  119 1
   114  121   93 1
   115  122  121 1
   116  123  124 1
   117  125  123 1
   118  126  123 1
   119  127  126 1
   120  128  126 1
   121  129  126 1
   122  130  131 1
   123  132  130 1
   124  133  130 1
   125  134  133 1
   126  135  133 1
   127  136  133 1
   128  137  138 1
   129  139  137 1
   130  140  137 1
   131  141  142 1
   132  143  141 1
   133  144  141 1
   134  145  146 1
   135  146  147 ar
   136  147  148 1
   137  149  147 ar
   138  150  149 1
   139  151  149 ar
   140  152  151 ar
   141  153  152 1
   142  154  146 ar
   143  155  154 1
   144  156   83 1
   145  157  151 1
   146  158   87 1
   147  159   91 1
   148  160  101 1
   149  161  121 1
   150  162  145 2
   151  163  157 2
   152  164  157 2
   153   16   18 1
   154   16   37 1
   155   27   35 1
   156   29   74 1
   157   32   35 1
   158   37   39 1
   159   41   74 1
   160   48   76 1
   161   55   77 1
   162   59   78 1
   163   63   79 1
   164   70   72 ar
   165   98  100 1
   166   98  119 1
   167  109  117 1
   168  111  156 1
   169  114  117 1
   170  119  121 1
   171  123  156 1
   172  130  158 1
   173  137  159 1
   174  141  160 1
   175  145  161 1
   176  152  154 ar
@<TRIPOS>SUBSTRUCTURE
     1 RES1 1
     2 RES2 83

@<TRIPOS>CRYSIN
  12.1886   16.0833   16.2622  70.9550  82.1790  70.9300   2 1

