# MOL2 file generated by ConQuest
# Please check atom types

@<TRIPOS>MOLECULE
SAFQUO
   154   166     2
SMALL
NO_CHARGES
****
Generated from CSD

@<TRIPOS>ATOM
      1 C1        -0.4441    4.5880   16.9834 C.3       1 RES1    0.0000
      2 C2        -0.4103    6.1418   16.7382 C.3       1 RES1    0.0000
      3 H1        -0.1186    6.5447   17.6054 H         1 RES1    0.0000
      4 C3        -1.6369    6.9600   16.2864 C.3       1 RES1    0.0000
      5 H2        -2.0930    7.3608   17.0691 H         1 RES1    0.0000
      6 H3        -2.2816    6.3835   15.8053 H         1 RES1    0.0000
      7 C4        -1.0924    8.0704   15.3465 C.3       1 RES1    0.0000
      8 H4        -1.8030    8.7435   15.1446 H         1 RES1    0.0000
      9 C5         0.1135    8.7363   16.0247 C.3       1 RES1    0.0000
     10 H5        -0.1267    8.9931   16.9600 H         1 RES1    0.0000
     11 C6         1.3786    7.7725   16.0435 C.3       1 RES1    0.0000
     12 C7         0.7789    6.3476   15.7560 C.3       1 RES1    0.0000
     13 C8         1.5472    5.0190   15.9790 C.3       1 RES1    0.0000
     14 H6         2.2991    4.8656   15.3371 H         1 RES1    0.0000
     15 C9         1.9190    4.8069   17.4587 C.3       1 RES1    0.0000
     16 H7         2.2232    5.6558   17.8717 H         1 RES1    0.0000
     17 H8         2.6340    4.1275   17.5502 H         1 RES1    0.0000
     18 C10        0.5917    4.3104   18.1123 C.3       1 RES1    0.0000
     19 H9         0.3768    4.8344   18.9372 H         1 RES1    0.0000
     20 C11        0.6288    2.8102   18.4045 C.3       1 RES1    0.0000
     21 H10        1.2729    2.6615   19.1543 H         1 RES1    0.0000
     22 C12       -0.7406    2.3294   18.8610 C.3       1 RES1    0.0000
     23 H11       -1.0088    2.8227   19.6765 H         1 RES1    0.0000
     24 H12       -0.6934    1.3672   19.0874 H         1 RES1    0.0000
     25 C13       -1.7833    2.5446   17.7685 C.3       1 RES1    0.0000
     26 H13       -2.6755    2.2925   18.1170 H         1 RES1    0.0000
     27 H14       -1.5784    1.9546   17.0022 H         1 RES1    0.0000
     28 C14       -1.8211    3.9996   17.2874 C.3       1 RES1    0.0000
     29 H15       -2.2543    4.5589   17.9961 H         1 RES1    0.0000
     30 C15        0.3487    4.0344   15.8158 C.3       1 RES1    0.0000
     31 H16       -0.1307    4.2106   14.9569 H         1 RES1    0.0000
     32 C16        1.1535    2.0523   17.1747 C.3       1 RES1    0.0000
     33 H17        2.1433    2.0585   17.1911 H         1 RES1    0.0000
     34 H18        0.8556    1.1072   17.2252 H         1 RES1    0.0000
     35 C17       -0.6479    7.3691   14.0897 C.2       1 RES1    0.0000
     36 H19       -0.9922    7.5583   13.2260 H         1 RES1    0.0000
     37 C18        0.2877    6.4464   14.3303 C.2       1 RES1    0.0000
     38 H20        0.6245    5.8845   13.6426 H         1 RES1    0.0000
     39 C19        0.3181   11.1108   15.9144 C.2       1 RES1    0.0000
     40 C20        0.8388   12.2217   15.0578 C.ar      1 RES1    0.0000
     41 C21        0.4686   13.5229   15.4474 C.ar      1 RES1    0.0000
     42 H21       -0.0895   13.6559   16.2054 H         1 RES1    0.0000
     43 C22        0.9275   14.6109   14.7140 C.ar      1 RES1    0.0000
     44 H22        0.6792   15.4961   14.9498 H         1 RES1    0.0000
     45 C23        1.7486   14.3728   13.6414 C.ar      1 RES1    0.0000
     46 C24        2.1668   13.1101   13.2565 C.ar      1 RES1    0.0000
     47 H23        2.7633   12.9854   12.5278 H         1 RES1    0.0000
     48 C25        1.6706   12.0159   13.9923 C.ar      1 RES1    0.0000
     49 H24        1.9145   11.1296   13.7459 H         1 RES1    0.0000
     50 C26        3.4486    7.4627   14.8712 C.3       1 RES1    0.0000
     51 H25        3.8226    7.2152   15.7431 H         1 RES1    0.0000
     52 H26        4.1049    7.9950   14.3737 H         1 RES1    0.0000
     53 H27        3.2327    6.6538   14.3655 H         1 RES1    0.0000
     54 C27        2.5344    9.0315   17.7251 C.3       1 RES1    0.0000
     55 H28        3.2450    9.3102   17.1113 H         1 RES1    0.0000
     56 H29        2.9006    8.9411   18.6298 H         1 RES1    0.0000
     57 H30        1.8197    9.7000   17.7251 H         1 RES1    0.0000
     58 C28        0.9235    1.9665   14.7398 C.2       1 RES1    0.0000
     59 C29        1.5445   -0.1060   13.8315 C.3       1 RES1    0.0000
     60 H31        0.6990   -0.1767   13.3399 H         1 RES1    0.0000
     61 H32        1.8327   -0.9981   14.1120 H         1 RES1    0.0000
     62 H33        2.2284    0.2911   13.2518 H         1 RES1    0.0000
     63 C30       -3.9876    4.1462   16.3533 C.3       1 RES1    0.0000
     64 H34       -4.2503    3.3581   16.8767 H         1 RES1    0.0000
     65 H35       -4.4889    4.1586   15.5107 H         1 RES1    0.0000
     66 H36       -4.1840    4.9592   16.8637 H         1 RES1    0.0000
     67 N1         0.6995    2.6246   15.9144 N.am      1 RES1    0.0000
     68 N2         2.2084   15.5372   12.8517 N.pl3     1 RES1    0.0000
     69 O1         0.4470    9.9272   15.2631 O.3       1 RES1    0.0000
     70 O2        -0.1319   11.2606   17.0057 O.2       1 RES1    0.0000
     71 O3         1.6396   16.5956   13.0230 O.2       1 RES1    0.0000
     72 O4         3.1477   15.3709   12.0995 O.2       1 RES1    0.0000
     73 O5         2.2580    8.2351   15.0660 O.3       1 RES1    0.0000
     74 O6         2.0048    7.7673   17.2979 O.3       1 RES1    0.0000
     75 O7         0.7344    2.4094   13.6250 O.2       1 RES1    0.0000
     76 O8         1.3608    0.7179   14.9827 O.3       1 RES1    0.0000
     77 O9        -2.6219    4.0879   16.0799 O.3       1 RES1    0.0000
     78 C31        5.1912    4.6894   11.1138 C.3       2 RES2    0.0000
     79 C32        5.0722    6.2343   10.9049 C.3       2 RES2    0.0000
     80 H37        4.7452    6.6174   11.7698 H         2 RES2    0.0000
     81 C33        6.2620    7.1019   10.4661 C.3       2 RES2    0.0000
     82 H38        6.9343    6.5551    9.9896 H         2 RES2    0.0000
     83 H39        6.6935    7.5219   11.2523 H         2 RES2    0.0000
     84 C34        5.6842    8.1811    9.5296 C.3       2 RES2    0.0000
     85 H40        6.3637    8.8943    9.3478 H         2 RES2    0.0000
     86 C35        4.4180    8.7862   10.1657 C.3       2 RES2    0.0000
     87 H41        4.6296    9.0346   11.1103 H         2 RES2    0.0000
     88 C36        3.2121    7.7730   10.1821 C.3       2 RES2    0.0000
     89 C37        3.8801    6.3809    9.8641 C.3       2 RES2    0.0000
     90 C38        3.1831    5.0216   10.0694 C.3       2 RES2    0.0000
     91 H42        2.4515    4.8292    9.4158 H         2 RES2    0.0000
     92 C39        2.8044    4.7752   11.5198 C.3       2 RES2    0.0000
     93 H43        2.1249    4.0599   11.5914 H         2 RES2    0.0000
     94 H44        2.4482    5.5986   11.9376 H         2 RES2    0.0000
     95 C40        4.1453    4.3427   12.1922 C.3       2 RES2    0.0000
     96 H45        4.3098    4.8656   13.0289 H         2 RES2    0.0000
     97 C41        4.1871    2.8222   12.4750 C.3       2 RES2    0.0000
     98 H46        3.5317    2.6251   13.2049 H         2 RES2    0.0000
     99 C42        5.5824    2.4260   12.9749 C.3       2 RES2    0.0000
    100 H47        5.7895    2.9214   13.8057 H         2 RES2    0.0000
    101 H48        5.5972    1.4607   13.1826 H         2 RES2    0.0000
    102 C43        6.6396    2.7364   11.9211 C.3       2 RES2    0.0000
    103 H49        7.5358    2.5576   12.3013 H         2 RES2    0.0000
    104 H50        6.5122    2.1261   11.1502 H         2 RES2    0.0000
    105 C44        6.5957    4.1748   11.4271 C.3       2 RES2    0.0000
    106 H51        7.0078    4.7668   12.1206 H         2 RES2    0.0000
    107 C45        4.4503    4.1259    9.8946 C.3       2 RES2    0.0000
    108 H52        4.9327    4.3562    9.0497 H         2 RES2    0.0000
    109 C46        3.7537    2.0367   11.2288 C.3       2 RES2    0.0000
    110 H53        4.1307    1.1228   11.2757 H         2 RES2    0.0000
    111 H54        2.7674    1.9598   11.2229 H         2 RES2    0.0000
    112 C47        5.2947    7.4866    8.2623 C.2       2 RES2    0.0000
    113 H55        5.6504    7.7039    7.4092 H         2 RES2    0.0000
    114 C48        4.3866    6.5213    8.4665 C.2       2 RES2    0.0000
    115 H56        4.0824    5.9573    7.7636 H         2 RES2    0.0000
    116 C49        4.2094   11.1618   10.0647 C.2       2 RES2    0.0000
    117 C50        3.7335   12.2945    9.2222 C.ar      2 RES2    0.0000
    118 C51        2.9166   12.1068    8.1109 C.ar      2 RES2    0.0000
    119 H57        2.6533   11.2283    7.8645 H         2 RES2    0.0000
    120 C52        2.4791   13.1964    7.3564 C.ar      2 RES2    0.0000
    121 H58        1.9057   13.0841    6.6077 H         2 RES2    0.0000
    122 C53        2.9249   14.4658    7.7542 C.ar      2 RES2    0.0000
    123 C54        3.7469   14.6722    8.8279 C.ar      2 RES2    0.0000
    124 H59        4.0414   15.5481    9.0485 H         2 RES2    0.0000
    125 C55        4.1426   13.5837    9.5883 C.ar      2 RES2    0.0000
    126 H60        4.6895   13.7131   10.3546 H         2 RES2    0.0000
    127 C56        1.9742    8.9660   11.8449 C.3       2 RES2    0.0000
    128 H61        2.6722    9.6065   12.0960 H         2 RES2    0.0000
    129 H62        1.3996    8.7903   12.6182 H         2 RES2    0.0000
    130 H63        1.4357    9.3413   11.1162 H         2 RES2    0.0000
    131 C57        1.1873    7.4128    8.9300 C.3       2 RES2    0.0000
    132 H64        1.4531    6.6434    8.3867 H         2 RES2    0.0000
    133 H65        0.5082    7.9326    8.4512 H         2 RES2    0.0000
    134 H66        0.8171    7.1009    9.7819 H         2 RES2    0.0000
    135 C58        4.1288    2.0201    8.7892 C.2       2 RES2    0.0000
    136 C59        3.7994   -0.0665    7.7296 C.3       2 RES2    0.0000
    137 H67        3.1672    0.3223    7.0889 H         2 RES2    0.0000
    138 H68        3.5354   -0.9877    7.9290 H         2 RES2    0.0000
    139 H69        4.7003   -0.0624    7.3435 H         2 RES2    0.0000
    140 C60        8.7347    4.2735   10.4719 C.3       2 RES2    0.0000
    141 H70        8.9734    5.0527   11.0188 H         2 RES2    0.0000
    142 H71        9.2199    4.3094    9.6212 H         2 RES2    0.0000
    143 H72        8.9763    3.4517   10.9495 H         2 RES2    0.0000
    144 N3         4.1964    2.6792    9.9673 N.am      2 RES2    0.0000
    145 N4         2.5092   15.6313    6.9398 N.pl3     2 RES2    0.0000
    146 O10        4.0534    9.9953    9.4428 O.3       2 RES2    0.0000
    147 O11        4.6367   11.3146   11.1807 O.2       2 RES2    0.0000
    148 O12        1.5782   15.4941    6.1759 O.2       2 RES2    0.0000
    149 O13        3.0996   16.6751    7.1229 O.2       2 RES2    0.0000
    150 O14        2.5824    7.7413   11.4083 O.3       2 RES2    0.0000
    151 O15        2.3301    8.2383    9.1811 O.3       2 RES2    0.0000
    152 O16        4.3308    2.4993    7.6873 O.2       2 RES2    0.0000
    153 O17        3.7911    0.7168    8.9546 O.3       2 RES2    0.0000
    154 O18        7.3554    4.2813   10.2243 O.3       2 RES2    0.0000
@<TRIPOS>BOND
     1    1    2 1
     2    2    3 1
     3    4    2 1
     4    5    4 1
     5    6    4 1
     6    7    4 1
     7    8    7 1
     8    9    7 1
     9   10    9 1
    10   11    9 1
    11   12    2 1
    12   13   12 1
    13   14   13 1
    14   15   13 1
    15   16   15 1
    16   17   15 1
    17   18    1 1
    18   19   18 1
    19   20   18 1
    20   21   20 1
    21   22   20 1
    22   23   22 1
    23   24   22 1
    24   25   22 1
    25   26   25 1
    26   27   25 1
    27   28    1 1
    28   29   28 1
    29   30    1 1
    30   31   30 1
    31   32   20 1
    32   33   32 1
    33   34   32 1
    34   35    7 1
    35   36   35 1
    36   37   12 1
    37   38   37 1
    38   39   40 1
    39   40   41 ar
    40   41   42 1
    41   43   41 ar
    42   44   43 1
    43   45   43 ar
    44   46   45 ar
    45   47   46 1
    46   48   40 ar
    47   49   48 1
    48   50   51 1
    49   52   50 1
    50   53   50 1
    51   54   55 1
    52   56   54 1
    53   57   54 1
    54   58   67 1
    55   59   60 1
    56   61   59 1
    57   62   59 1
    58   63   64 1
    59   65   63 1
    60   66   63 1
    61   67   30 1
    62   68   45 1
    63   69    9 1
    64   70   39 2
    65   71   68 2
    66   72   68 2
    67   73   11 1
    68   74   11 1
    69   75   58 2
    70   76   58 1
    71   77   28 1
    72   78   79 1
    73   79   80 1
    74   81   79 1
    75   82   81 1
    76   83   81 1
    77   84   81 1
    78   85   84 1
    79   86   84 1
    80   87   86 1
    81   88   86 1
    82   89   79 1
    83   90   89 1
    84   91   90 1
    85   92   90 1
    86   93   92 1
    87   94   92 1
    88   95   78 1
    89   96   95 1
    90   97   95 1
    91   98   97 1
    92   99   97 1
    93  100   99 1
    94  101   99 1
    95  102   99 1
    96  103  102 1
    97  104  102 1
    98  105   78 1
    99  106  105 1
   100  107   78 1
   101  108  107 1
   102  109   97 1
   103  110  109 1
   104  111  109 1
   105  112   84 1
   106  113  112 1
   107  114   89 1
   108  115  114 1
   109  116  117 1
   110  117  118 ar
   111  118  119 1
   112  120  118 ar
   113  121  120 1
   114  122  120 ar
   115  123  122 ar
   116  124  123 1
   117  125  117 ar
   118  126  125 1
   119  127  128 1
   120  129  127 1
   121  130  127 1
   122  131  132 1
   123  133  131 1
   124  134  131 1
   125  135  144 1
   126  136  137 1
   127  138  136 1
   128  139  136 1
   129  140  141 1
   130  142  140 1
   131  143  140 1
   132  144  107 1
   133  145  122 1
   134  146   86 1
   135  147  116 2
   136  148  145 2
   137  149  145 2
   138  150   88 1
   139  151   88 1
   140  152  135 2
   141  153  135 1
   142  154  105 1
   143   11   12 1
   144   13   30 1
   145   15   18 1
   146   25   28 1
   147   32   67 1
   148   35   37 2
   149   39   69 1
   150   46   48 ar
   151   50   73 1
   152   54   74 1
   153   59   76 1
   154   63   77 1
   155   88   89 1
   156   90  107 1
   157   92   95 1
   158  102  105 1
   159  109  144 1
   160  112  114 2
   161  116  146 1
   162  123  125 ar
   163  127  150 1
   164  131  151 1
   165  136  153 1
   166  140  154 1
@<TRIPOS>SUBSTRUCTURE
     1 RES1 1
     2 RES2 78

@<TRIPOS>CRYSIN
   9.0579   51.9830   11.7360  90.0000  90.8960  90.0000  14 2

