# MOL2 file generated by ConQuest
# Please check atom types

@<TRIPOS>MOLECULE
SAFWUT
    56    59     1
SMALL
NO_CHARGES
****
Generated from CSD

@<TRIPOS>ATOM
      1 O1        -2.6340   -2.0746    2.1216 O.3       1 RES1    0.0000
      2 O2        -3.9550   -3.5399    3.1915 O.2       1 RES1    0.0000
      3 O3        -4.0187    2.5099   11.6381 O.2       1 RES1    0.0000
      4 O4         0.6308    6.9648    9.4552 O.2       1 RES1    0.0000
      5 O5        -1.3711    7.7828    9.5124 O.2       1 RES1    0.0000
      6 N1        -1.9756    1.6855    5.5958 N.2       1 RES1    0.0000
      7 N2        -3.5279    1.3689    7.2099 N.pl3     1 RES1    0.0000
      8 N3        -5.8475    3.2398   10.4798 N.am      1 RES1    0.0000
      9 N4        -0.5736    6.8998    9.2113 N.pl3     1 RES1    0.0000
     10 C1        -2.6882    0.5190    5.3349 C.ar      1 RES1    0.0000
     11 C2        -2.5631   -0.3839    4.2775 C.ar      1 RES1    0.0000
     12 H1        -1.9084   -0.2597    3.5990 H         1 RES1    0.0000
     13 C3        -3.4264   -1.4679    4.2518 C.ar      1 RES1    0.0000
     14 C4        -4.3875   -1.6647    5.2684 C.ar      1 RES1    0.0000
     15 H2        -4.9527   -2.4272    5.2288 H         1 RES1    0.0000
     16 C5        -4.5254   -0.7814    6.3151 C.ar      1 RES1    0.0000
     17 H3        -5.1776   -0.9103    6.9949 H         1 RES1    0.0000
     18 C6        -3.6607    0.3153    6.3280 C.ar      1 RES1    0.0000
     19 C7        -2.5043    2.1604    6.7143 C.2       1 RES1    0.0000
     20 C8        -2.0443    3.3982    7.3511 C.ar      1 RES1    0.0000
     21 C9        -2.9336    4.3195    7.9211 C.ar      1 RES1    0.0000
     22 H4        -3.8680    4.1478    7.9059 H         1 RES1    0.0000
     23 C10       -2.4542    5.4832    8.5088 C.ar      1 RES1    0.0000
     24 H5        -3.0526    6.1150    8.8911 H         1 RES1    0.0000
     25 C11       -1.0863    5.7045    8.5267 C.ar      1 RES1    0.0000
     26 C12       -0.1811    4.8373    7.9330 C.ar      1 RES1    0.0000
     27 H6         0.7487    5.0305    7.9266 H         1 RES1    0.0000
     28 C13       -0.6736    3.6802    7.3496 C.ar      1 RES1    0.0000
     29 H7        -0.0705    3.0687    6.9426 H         1 RES1    0.0000
     30 C14       -3.3799   -2.4777    3.1551 C.2       1 RES1    0.0000
     31 C15       -2.5385   -3.0161    1.0083 C.3       1 RES1    0.0000
     32 H8        -3.4354   -3.3623    0.7736 H         1 RES1    0.0000
     33 H9        -1.9610   -3.7820    1.2552 H         1 RES1    0.0000
     34 C16       -1.9500   -2.2726   -0.1488 C.3       1 RES1    0.0000
     35 H10       -1.8669   -2.8758   -0.9171 H         1 RES1    0.0000
     36 H11       -1.0632   -1.9349    0.0973 H         1 RES1    0.0000
     37 H12       -2.5322   -1.5208   -0.3843 H         1 RES1    0.0000
     38 C17       -4.1762    1.4336    8.5261 C.3       1 RES1    0.0000
     39 H13       -3.7040    2.1035    9.0820 H         1 RES1    0.0000
     40 H14       -4.0822    0.5541    8.9714 H         1 RES1    0.0000
     41 C18       -5.6572    1.7989    8.4647 C.3       1 RES1    0.0000
     42 H15       -6.1561    1.0842    7.9959 H         1 RES1    0.0000
     43 H16       -5.7701    2.6392    7.9545 H         1 RES1    0.0000
     44 C19       -6.2185    1.9751    9.8807 C.3       1 RES1    0.0000
     45 H17       -7.2054    1.9118    9.8459 H         1 RES1    0.0000
     46 H18       -5.8876    1.2380   10.4528 H         1 RES1    0.0000
     47 C20       -6.6141    4.4556   10.2425 C.3       1 RES1    0.0000
     48 H19       -7.5848    4.2903   10.3446 H         1 RES1    0.0000
     49 H20       -6.4405    4.8138    9.3362 H         1 RES1    0.0000
     50 C21       -6.1022    5.4141   11.3200 C.3       1 RES1    0.0000
     51 H21       -6.0292    6.3359   10.9673 H         1 RES1    0.0000
     52 H22       -6.7075    5.4188   12.1045 H         1 RES1    0.0000
     53 C22       -4.7279    4.8643   11.6977 C.3       1 RES1    0.0000
     54 H23       -4.0115    5.3343   11.2020 H         1 RES1    0.0000
     55 H24       -4.5633    4.9607   12.6689 H         1 RES1    0.0000
     56 C23       -4.7934    3.4036   11.3014 C.2       1 RES1    0.0000
@<TRIPOS>BOND
     1    1   30 1
     2    2   30 2
     3    3   56 2
     4    4    9 2
     5    5    9 2
     6    6   10 1
     7    7   18 1
     8    8   44 1
     9    9   25 1
    10   10   11 ar
    11   11   12 1
    12   13   11 ar
    13   14   13 ar
    14   15   14 1
    15   16   14 ar
    16   17   16 1
    17   18   10 ar
    18   19    6 2
    19   20   19 1
    20   21   20 ar
    21   22   21 1
    22   23   21 ar
    23   24   23 1
    24   25   23 ar
    25   26   25 ar
    26   27   26 1
    27   28   20 ar
    28   29   28 1
    29   30   13 1
    30   31    1 1
    31   32   31 1
    32   33   31 1
    33   34   31 1
    34   35   34 1
    35   36   34 1
    36   37   34 1
    37   38    7 1
    38   39   38 1
    39   40   38 1
    40   41   38 1
    41   42   41 1
    42   43   41 1
    43   44   41 1
    44   45   44 1
    45   46   44 1
    46   47    8 1
    47   48   47 1
    48   49   47 1
    49   50   47 1
    50   51   50 1
    51   52   50 1
    52   53   50 1
    53   54   53 1
    54   55   53 1
    55   56    8 1
    56    7   19 1
    57   16   18 ar
    58   26   28 ar
    59   53   56 1
@<TRIPOS>SUBSTRUCTURE
     1 RES1 1

@<TRIPOS>CRYSIN
   9.3125   10.0941   12.9955  91.9580 107.7520 114.4650   2 1

