# MOL2 file generated by ConQuest
# Please check atom types

@<TRIPOS>MOLECULE
SAFYAB
    24    25     1
SMALL
NO_CHARGES
****
Generated from CSD

@<TRIPOS>ATOM
      1 C1         1.4204    3.8588    7.7389 C.ar      1 RES1    0.0000
      2 H1         1.5853    4.7497    7.9454 H         1 RES1    0.0000
      3 N1         1.9346    0.4922    9.1910 N.pl3     1 RES1    0.0000
      4 O1         2.5065    0.7812   10.2051 O.2       1 RES1    0.0000
      5 N2         0.3734    4.5834    5.6927 N.pl3     1 RES1    0.0000
      6 C2         1.7970    2.8673    8.6221 C.ar      1 RES1    0.0000
      7 H2         2.2233    3.0735    9.4226 H         1 RES1    0.0000
      8 O2         1.6630   -0.6675    8.8809 O.2       1 RES1    0.0000
      9 C3         1.5155    1.5444    8.2716 C.ar      1 RES1    0.0000
     10 N3        -0.0525    5.7494    6.2767 N.2       1 RES1    0.0000
     11 C4         0.8977    1.2122    7.1105 C.ar      1 RES1    0.0000
     12 H3         0.7345    0.3199    6.9061 H         1 RES1    0.0000
     13 N4         0.6047    3.5722    3.5225 N.pl3     1 RES1    0.0000
     14 H4         0.9301    2.8520    3.8609 H         1 RES1    0.0000
     15 H5         0.5047    3.6395    2.6706 H         1 RES1    0.0000
     16 C5         0.5119    2.2075    6.2324 C.ar      1 RES1    0.0000
     17 H6         0.0674    1.9989    5.4429 H         1 RES1    0.0000
     18 N5        -1.4486    8.7909    5.7410 N.1       1 RES1    0.0000
     19 C6         0.8028    3.5331    6.5557 C.ar      1 RES1    0.0000
     20 C7         0.2472    4.6091    4.3362 C.2       1 RES1    0.0000
     21 C8        -0.2811    5.8336    4.0130 C.2       1 RES1    0.0000
     22 H7        -0.4795    6.1661    3.1681 H         1 RES1    0.0000
     23 C9        -0.4535    6.4677    5.2496 C.2       1 RES1    0.0000
     24 C10       -0.9975    7.7635    5.5084 C.1       1 RES1    0.0000
@<TRIPOS>BOND
     1    1    2 1
     2    3    4 2
     3    5   10 1
     4    6    1 ar
     5    7    6 1
     6    8    3 2
     7    9    3 1
     8   10   23 2
     9   11    9 ar
    10   12   11 1
    11   13   14 1
    12   15   13 1
    13   16   11 ar
    14   17   16 1
    15   18   24 3
    16   19    1 ar
    17   20    5 1
    18   21   20 2
    19   22   21 1
    20   23   21 1
    21   24   23 1
    22    5   19 1
    23    6    9 ar
    24   13   20 1
    25   16   19 ar
@<TRIPOS>SUBSTRUCTURE
     1 RES1 1

@<TRIPOS>CRYSIN
   3.7685   27.3441   10.1294  90.0000  96.2000  90.0000   9 1

