# MOL2 file generated by ConQuest
# Please check atom types

@<TRIPOS>MOLECULE
SAFZOQ
    34    35     1
SMALL
NO_CHARGES
****
Generated from CSD

@<TRIPOS>ATOM
      1 O1         1.8207    1.3972    0.5623 O.2       1 RES1    0.0000
      2 O2         1.5571    3.3287   -0.3521 O.2       1 RES1    0.0000
      3 O3         2.9315    0.4530    7.6663 O.2       1 RES1    0.0000
      4 N1         1.7249    2.6188    0.6260 N.pl3     1 RES1    0.0000
      5 C1         2.1571    3.0605    4.3053 C.ar      1 RES1    0.0000
      6 C2         2.1295    2.4762    3.0402 C.ar      1 RES1    0.0000
      7 C3         1.8120    3.2567    1.9424 C.ar      1 RES1    0.0000
      8 C4         1.5468    4.6105    2.0411 C.ar      1 RES1    0.0000
      9 C5         1.5998    5.1956    3.2952 C.ar      1 RES1    0.0000
     10 C6         1.8940    4.4309    4.4095 C.ar      1 RES1    0.0000
     11 C7         2.4445    2.2136    5.4685 C.2       1 RES1    0.0000
     12 C8         2.3859    2.5783    6.7482 C.2       1 RES1    0.0000
     13 C9         2.7508    1.6547    7.8478 C.2       1 RES1    0.0000
     14 C10        2.9409    2.2964    9.1666 C.2       1 RES1    0.0000
     15 C11        3.7051    1.7476   10.1109 C.2       1 RES1    0.0000
     16 C12        4.0328    2.3227   11.4210 C.ar      1 RES1    0.0000
     17 C13        3.3936    3.4565   11.9239 C.ar      1 RES1    0.0000
     18 C14        3.7113    3.9449   13.1825 C.ar      1 RES1    0.0000
     19 C15        4.6660    3.3084   13.9607 C.ar      1 RES1    0.0000
     20 C16        5.3068    2.1897   13.4740 C.ar      1 RES1    0.0000
     21 C17        5.0015    1.6994   12.2107 C.ar      1 RES1    0.0000
     22 H1         2.3219    1.5724    2.9350 H         1 RES1    0.0000
     23 H2         1.3385    5.1130    1.2871 H         1 RES1    0.0000
     24 H3         1.4369    6.1065    3.3891 H         1 RES1    0.0000
     25 H4         1.9178    4.8359    5.2464 H         1 RES1    0.0000
     26 H5         2.6917    1.3339    5.2954 H         1 RES1    0.0000
     27 H6         2.1071    3.4407    6.9581 H         1 RES1    0.0000
     28 H7         2.5161    3.1052    9.3423 H         1 RES1    0.0000
     29 H8         4.0682    0.9134    9.9193 H         1 RES1    0.0000
     30 H9         2.7485    3.8879   11.4113 H         1 RES1    0.0000
     31 H10        3.2814    4.7033   13.5064 H         1 RES1    0.0000
     32 H11        4.8723    3.6346   14.8072 H         1 RES1    0.0000
     33 H12        5.9472    1.7604   13.9946 H         1 RES1    0.0000
     34 H13        5.4459    0.9490   11.8881 H         1 RES1    0.0000
@<TRIPOS>BOND
     1    1    4 2
     2    2    4 2
     3    3   13 2
     4    4    7 1
     5    5    6 ar
     6    6    7 ar
     7    7    8 ar
     8    8    9 ar
     9    9   10 ar
    10   10    5 ar
    11   11    5 1
    12   12   11 2
    13   13   12 1
    14   14   13 1
    15   15   14 2
    16   16   15 1
    17   17   16 ar
    18   18   17 ar
    19   19   18 ar
    20   20   19 ar
    21   21   16 ar
    22   22    6 1
    23   23    8 1
    24   24    9 1
    25   25   10 1
    26   26   11 1
    27   27   12 1
    28   28   14 1
    29   29   15 1
    30   30   17 1
    31   31   18 1
    32   32   19 1
    33   33   20 1
    34   34   21 1
    35   20   21 ar
@<TRIPOS>SUBSTRUCTURE
     1 RES1 1

@<TRIPOS>CRYSIN
  11.9806    9.8955   12.5562  90.0000 114.9920  90.0000  14 1

