# MOL2 file generated by ConQuest
# Please check atom types

@<TRIPOS>MOLECULE
SAGLOC
    43    45     1
SMALL
NO_CHARGES
****
Generated from CSD

@<TRIPOS>ATOM
      1 C1         2.8777    1.4562    8.2232 C.3       1 RES1    0.0000
      2 C2         4.5012    0.5436    6.7043 C.3       1 RES1    0.0000
      3 H1         5.0365   -0.2511    6.5516 H         1 RES1    0.0000
      4 H2         5.1048    1.2897    6.8471 H         1 RES1    0.0000
      5 C3         3.6529    0.8119    5.5028 C.3       1 RES1    0.0000
      6 H3         3.0430    0.0722    5.3567 H         1 RES1    0.0000
      7 H4         4.2140    0.9047    4.7163 H         1 RES1    0.0000
      8 C4         2.8725    2.0851    5.7322 C.3       1 RES1    0.0000
      9 H5         2.2574    2.2229    4.9954 H         1 RES1    0.0000
     10 H6         3.4831    2.8377    5.7583 H         1 RES1    0.0000
     11 C5         2.0904    2.0212    7.0401 C.3       1 RES1    0.0000
     12 H7         1.8078    2.9311    7.2702 H         1 RES1    0.0000
     13 C6         0.8780    1.1458    7.0444 C.2       1 RES1    0.0000
     14 H8         0.2969    1.0636    6.3229 H         1 RES1    0.0000
     15 C7         0.7286    0.5081    8.1788 C.2       1 RES1    0.0000
     16 H9         0.0321   -0.0828    8.3552 H         1 RES1    0.0000
     17 C8         1.8136    0.8433    9.1611 C.3       1 RES1    0.0000
     18 H10        2.1577    0.0275    9.5817 H         1 RES1    0.0000
     19 C9         4.6031    2.1214    9.7446 C.3       1 RES1    0.0000
     20 H11        5.0758    2.8973   10.0553 H         1 RES1    0.0000
     21 H12        5.2254    1.5026    9.3556 H         1 RES1    0.0000
     22 H13        4.1546    1.7031   10.4822 H         1 RES1    0.0000
     23 C10        1.3279    1.8193   10.2155 C.3       1 RES1    0.0000
     24 H14        2.0787    2.1151   10.7538 H         1 RES1    0.0000
     25 H15        0.9415    2.5966    9.7837 H         1 RES1    0.0000
     26 C11        0.8040    0.4968   12.1045 C.2       1 RES1    0.0000
     27 C12       -0.2818   -0.0864   12.9386 C.ar      1 RES1    0.0000
     28 C13       -1.6164    0.0729   12.6153 C.ar      1 RES1    0.0000
     29 H16       -1.8516    0.5298   11.8400 H         1 RES1    0.0000
     30 C14       -2.6006   -0.4393   13.4285 C.ar      1 RES1    0.0000
     31 H17       -3.4993   -0.3460   13.2067 H         1 RES1    0.0000
     32 C15       -2.2229   -1.0912   14.5729 C.ar      1 RES1    0.0000
     33 C16       -0.9041   -1.2884   14.9191 C.ar      1 RES1    0.0000
     34 H18       -0.6760   -1.7471   15.6949 H         1 RES1    0.0000
     35 C17        0.0630   -0.7861   14.0836 C.ar      1 RES1    0.0000
     36 H19        0.9610   -0.9179   14.2891 H         1 RES1    0.0000
     37 N1        -3.2656   -1.6001   15.4725 N.pl3     1 RES1    0.0000
     38 O1         3.6886    0.3560    7.8712 O.3       1 RES1    0.0000
     39 O2         3.6453    2.5102    8.7656 O.3       1 RES1    0.0000
     40 O3         0.3334    1.1910   11.0704 O.3       1 RES1    0.0000
     41 O4         1.9696    0.3717   12.3482 O.2       1 RES1    0.0000
     42 O5        -4.3961   -1.7061   15.0419 O.2       1 RES1    0.0000
     43 O6        -2.9567   -1.8886   16.6105 O.2       1 RES1    0.0000
@<TRIPOS>BOND
     1    1   11 1
     2    2    3 1
     3    4    2 1
     4    5    2 1
     5    6    5 1
     6    7    5 1
     7    8    5 1
     8    9    8 1
     9   10    8 1
    10   11    8 1
    11   12   11 1
    12   13   11 1
    13   14   13 1
    14   15   13 2
    15   16   15 1
    16   17    1 1
    17   18   17 1
    18   19   20 1
    19   21   19 1
    20   22   19 1
    21   23   17 1
    22   24   23 1
    23   25   23 1
    24   26   27 1
    25   27   28 ar
    26   28   29 1
    27   30   28 ar
    28   31   30 1
    29   32   30 ar
    30   33   32 ar
    31   34   33 1
    32   35   27 ar
    33   36   35 1
    34   37   32 1
    35   38    1 1
    36   39    1 1
    37   40   23 1
    38   41   26 2
    39   42   37 2
    40   43   37 2
    41    2   38 1
    42   15   17 1
    43   19   39 1
    44   26   40 1
    45   33   35 ar
@<TRIPOS>SUBSTRUCTURE
     1 RES1 1

@<TRIPOS>CRYSIN
   7.6242    9.0590   12.9909  94.1600 100.2340 112.4840   2 1

