# MOL2 file generated by ConQuest
# Please check atom types

@<TRIPOS>MOLECULE
SAGLOD
    39    40     1
SMALL
NO_CHARGES
****
Generated from CSD

@<TRIPOS>ATOM
      1 O1         7.5005    1.9151    6.6879 O.3       1 RES1    0.0000
      2 O2         5.5445    2.0599    5.6407 O.2       1 RES1    0.0000
      3 O3         3.2192   -1.8825    3.8956 O.2       1 RES1    0.0000
      4 O4        -0.5577   -0.9437    1.1070 O.2       1 RES1    0.0000
      5 O5        -1.5296    0.9727    1.1543 O.2       1 RES1    0.0000
      6 O6         0.1016    4.4107    4.1061 O.2       1 RES1    0.0000
      7 O7         1.8110    4.0293    5.3423 O.2       1 RES1    0.0000
      8 N1         4.4315   -0.1933    4.8291 N.am      1 RES1    0.0000
      9 H1         4.4378    0.6628    4.9140 H         1 RES1    0.0000
     10 N2        -0.6279    0.2164    1.4807 N.pl3     1 RES1    0.0000
     11 N3         1.0246    3.7147    4.4753 N.pl3     1 RES1    0.0000
     12 C1         6.4397    1.3839    6.1119 C.2       1 RES1    0.0000
     13 C2         6.5032   -0.1026    6.0727 C.ar      1 RES1    0.0000
     14 C3         7.5800   -0.7576    6.6702 C.ar      1 RES1    0.0000
     15 H2         8.2287   -0.2605    7.1148 H         1 RES1    0.0000
     16 C4         7.6978   -2.1333    6.6111 C.ar      1 RES1    0.0000
     17 H3         8.4158   -2.5625    7.0173 H         1 RES1    0.0000
     18 C5         6.7454   -2.8553    5.9487 C.ar      1 RES1    0.0000
     19 H4         6.8310   -3.7800    5.8992 H         1 RES1    0.0000
     20 C6         5.6621   -2.2479    5.3512 C.ar      1 RES1    0.0000
     21 H5         5.0255   -2.7628    4.9096 H         1 RES1    0.0000
     22 C7         5.5218   -0.8630    5.4103 C.ar      1 RES1    0.0000
     23 C8         3.3778   -0.6968    4.1593 C.2       1 RES1    0.0000
     24 C9         2.3444    0.3046    3.7250 C.ar      1 RES1    0.0000
     25 C10        1.4108   -0.1274    2.7908 C.ar      1 RES1    0.0000
     26 H6         1.4676   -0.9835    2.4319 H         1 RES1    0.0000
     27 C11        0.3982    0.7259    2.3987 C.ar      1 RES1    0.0000
     28 C12        0.2614    1.9984    2.9082 C.ar      1 RES1    0.0000
     29 H7        -0.4260    2.5625    2.6350 H         1 RES1    0.0000
     30 C13        1.1876    2.3888    3.8380 C.ar      1 RES1    0.0000
     31 C14        2.2270    1.5905    4.2567 C.ar      1 RES1    0.0000
     32 H8         2.8408    1.9015    4.8823 H         1 RES1    0.0000
     33 C15        7.5986    3.3722    6.6813 C.3       1 RES1    0.0000
     34 H9         7.4336    3.7144    5.7884 H         1 RES1    0.0000
     35 H10        6.9424    3.7551    7.2839 H         1 RES1    0.0000
     36 C16        8.9469    3.7250    7.1133 C.3       1 RES1    0.0000
     37 H11        9.0524    4.6784    7.0852 H         1 RES1    0.0000
     38 H12        9.5873    3.3139    6.5291 H         1 RES1    0.0000
     39 H13        9.0865    3.4131    8.0106 H         1 RES1    0.0000
@<TRIPOS>BOND
     1    1   12 1
     2    2   12 2
     3    3   23 2
     4    4   10 2
     5    5   10 2
     6    6   11 2
     7    7   11 2
     8    8    9 1
     9   10   27 1
    10   11   30 1
    11   12   13 1
    12   13   14 ar
    13   14   15 1
    14   16   14 ar
    15   17   16 1
    16   18   16 ar
    17   19   18 1
    18   20   18 ar
    19   21   20 1
    20   22    8 1
    21   23    8 1
    22   24   23 1
    23   25   24 ar
    24   26   25 1
    25   27   25 ar
    26   28   27 ar
    27   29   28 1
    28   30   28 ar
    29   31   24 ar
    30   32   31 1
    31   33    1 1
    32   34   33 1
    33   35   33 1
    34   36   33 1
    35   37   36 1
    36   38   36 1
    37   39   36 1
    38   13   22 ar
    39   20   22 ar
    40   30   31 ar
@<TRIPOS>SUBSTRUCTURE
     1 RES1 1

@<TRIPOS>CRYSIN
  12.4662   17.7213    7.4352  90.0000  96.6580  90.0000  14 1

