# MOL2 file generated by ConQuest
# Please check atom types

@<TRIPOS>MOLECULE
SAGNAS
    94   100     2
SMALL
NO_CHARGES
****
Generated from CSD

@<TRIPOS>ATOM
      1 O1        -1.6653    3.3678    8.4479 O.2       1 RES1    0.0000
      2 O2        -0.6151    2.5441   13.1691 O.2       1 RES1    0.0000
      3 N1        -1.1549    5.3853    7.5839 N.am      1 RES1    0.0000
      4 H1        -1.4264    6.2011    7.5543 H         1 RES1    0.0000
      5 N2         0.2404    7.4682    6.6804 N.ar      1 RES1    0.0000
      6 N3        -1.2534    1.5885   12.7302 N.pl3     1 RES1    0.0000
      7 O3        -0.9635    0.4320   12.9595 O.2       1 RES1    0.0000
      8 C1        -2.4137    1.8512   11.8741 C.ar      1 RES1    0.0000
      9 C2         0.7007    6.2498    6.3404 C.ar      1 RES1    0.0000
     10 C3        -2.5507    3.1290   11.3700 C.ar      1 RES1    0.0000
     11 H2        -1.9309    3.7909   11.5776 H         1 RES1    0.0000
     12 C4        -3.7922    4.7807   10.0157 C.2       1 RES1    0.0000
     13 C5        -3.3133    0.8550   11.6310 C.ar      1 RES1    0.0000
     14 H3        -3.1961    0.0043   11.9888 H         1 RES1    0.0000
     15 C6         1.8720    6.0443    5.5851 C.ar      1 RES1    0.0000
     16 C7        -3.6320    3.4003   10.5515 C.ar      1 RES1    0.0000
     17 C8        -4.5646    2.4253   10.3162 C.ar      1 RES1    0.0000
     18 H4        -5.3150    2.6170    9.8022 H         1 RES1    0.0000
     19 C9        -4.8703    5.6087   10.6148 C.ar      1 RES1    0.0000
     20 C10       -0.0106    5.1129    6.8089 C.ar      1 RES1    0.0000
     21 C11        0.9215    8.5144    6.2573 C.ar      1 RES1    0.0000
     22 H5         0.6107    9.3605    6.4867 H         1 RES1    0.0000
     23 C12       -5.4819    5.2334   11.7891 C.ar      1 RES1    0.0000
     24 H6        -5.2134    4.4508   12.2162 H         1 RES1    0.0000
     25 C13        0.4204    3.8421    6.5084 C.ar      1 RES1    0.0000
     26 H7        -0.0561    3.1004    6.8030 H         1 RES1    0.0000
     27 C14       -1.8964    4.5598    8.3688 C.2       1 RES1    0.0000
     28 C15       -6.5008    6.0064   12.3526 C.ar      1 RES1    0.0000
     29 H8        -6.9087    5.7335   13.1414 H         1 RES1    0.0000
     30 C16       -2.9776    5.2748    9.0746 C.2       1 RES1    0.0000
     31 H9        -3.1066    6.1661    8.8413 H         1 RES1    0.0000
     32 C17       -4.3946    1.1471   10.8421 C.ar      1 RES1    0.0000
     33 H10       -5.0212    0.4849   10.6563 H         1 RES1    0.0000
     34 C18        1.5818    3.6802    5.7552 C.ar      1 RES1    0.0000
     35 H11        1.8759    2.8212    5.5555 H         1 RES1    0.0000
     36 C19        2.0867    8.4266    5.4804 C.ar      1 RES1    0.0000
     37 H12        2.5239    9.1962    5.1957 H         1 RES1    0.0000
     38 C20       -5.3062    6.7940   10.0058 C.ar      1 RES1    0.0000
     39 H13       -4.9181    7.0695    9.2071 H         1 RES1    0.0000
     40 C21        2.5616    7.2076    5.1581 C.ar      1 RES1    0.0000
     41 H14        3.3397    7.1284    4.6540 H         1 RES1    0.0000
     42 C22        2.3027    4.7533    5.2965 C.ar      1 RES1    0.0000
     43 H15        3.0752    4.6183    4.7983 H         1 RES1    0.0000
     44 C23       -6.8987    7.1598   11.7476 C.ar      1 RES1    0.0000
     45 H16       -7.5711    7.6786   12.1272 H         1 RES1    0.0000
     46 C24       -6.3046    7.5546   10.5772 C.ar      1 RES1    0.0000
     47 H17       -6.5770    8.3428   10.1640 H         1 RES1    0.0000
     48 O4         0.1497    5.1654   -1.4136 O.2       2 RES2    0.0000
     49 O5        -0.8975    5.9840    3.3254 O.2       2 RES2    0.0000
     50 N4        -0.3893    3.1533   -2.2855 N.am      2 RES2    0.0000
     51 H18       -0.1422    2.3309   -2.3171 H         2 RES2    0.0000
     52 N5        -0.2719    6.9322    2.8726 N.pl3     2 RES2    0.0000
     53 N6        -1.7682    1.1206   -3.2681 N.ar      2 RES2    0.0000
     54 O6        -0.5771    8.0830    3.1237 O.2       2 RES2    0.0000
     55 C25        2.0942    5.1198    0.6722 C.ar      2 RES2    0.0000
     56 C26        1.0239    5.4066    1.5045 C.ar      2 RES2    0.0000
     57 H19        0.4074    4.7421    1.7141 H         2 RES2    0.0000
     58 C27        2.2593    3.7490    0.1305 C.2       2 RES2    0.0000
     59 C28        0.8740    6.6567    2.0126 C.ar      2 RES2    0.0000
     60 C29       -2.2514    2.3456   -3.5350 C.ar      2 RES2    0.0000
     61 C30        1.7413    7.6855    1.7398 C.ar      2 RES2    0.0000
     62 H20        1.6054    8.5422    2.0739 H         2 RES2    0.0000
     63 C31       -1.5216    3.4827   -3.0387 C.ar      2 RES2    0.0000
     64 C32        3.3244    2.9153    0.7374 C.ar      2 RES2    0.0000
     65 C33        0.3734    3.9799   -1.5065 C.2       2 RES2    0.0000
     66 C34        3.0015    6.1317    0.4132 C.ar      2 RES2    0.0000
     67 H21        3.7395    5.9591   -0.1246 H         2 RES2    0.0000
     68 C35        1.4320    3.2557   -0.8066 C.2       2 RES2    0.0000
     69 H22        1.5456    2.3615   -1.0340 H         2 RES2    0.0000
     70 C36        2.8289    7.3812    0.9391 C.ar      2 RES2    0.0000
     71 H23        3.4565    8.0423    0.7552 H         2 RES2    0.0000
     72 C37        3.9317    3.2880    1.9335 C.ar      2 RES2    0.0000
     73 H24        3.6736    4.0801    2.3487 H         2 RES2    0.0000
     74 C38       -3.4205    2.5572   -4.3001 C.ar      2 RES2    0.0000
     75 C39        3.7618    1.7291    0.1364 C.ar      2 RES2    0.0000
     76 H25        3.3899    1.4502   -0.6682 H         2 RES2    0.0000
     77 C40        4.9085    2.5075    2.5168 C.ar      2 RES2    0.0000
     78 H26        5.2889    2.7641    3.3254 H         2 RES2    0.0000
     79 C41       -2.4525    0.0537   -3.7149 C.ar      2 RES2    0.0000
     80 H27       -2.1442   -0.7971   -3.5053 H         2 RES2    0.0000
     81 C42       -1.9926    4.7258   -3.2977 C.ar      2 RES2    0.0000
     82 H28       -1.5284    5.4662   -2.9774 H         2 RES2    0.0000
     83 C43        5.3142    1.3624    1.9039 C.ar      2 RES2    0.0000
     84 H29        5.9852    0.8422    2.2835 H         2 RES2    0.0000
     85 C44       -4.1081    1.4226   -4.7508 C.ar      2 RES2    0.0000
     86 H30       -4.8988    1.5150   -5.2313 H         2 RES2    0.0000
     87 C45       -3.1549    4.9151   -4.0292 C.ar      2 RES2    0.0000
     88 H31       -3.4617    5.7783   -4.1894 H         2 RES2    0.0000
     89 C46       -3.6143    0.1847   -4.4839 C.ar      2 RES2    0.0000
     90 H32       -4.0470   -0.5719   -4.8082 H         2 RES2    0.0000
     91 C47        4.7332    0.9816    0.7355 C.ar      2 RES2    0.0000
     92 H33        5.0067    0.1901    0.3321 H         2 RES2    0.0000
     93 C48       -3.8578    3.8442   -4.5215 C.ar      2 RES2    0.0000
     94 H34       -4.6367    3.9892   -5.0079 H         2 RES2    0.0000
@<TRIPOS>BOND
     1    1   27 2
     2    2    6 2
     3    3    4 1
     4    5    9 ar
     5    6    7 2
     6    8    6 1
     7    9   15 ar
     8   10    8 ar
     9   11   10 1
    10   12   16 1
    11   13    8 ar
    12   14   13 1
    13   15   40 ar
    14   16   10 ar
    15   17   16 ar
    16   18   17 1
    17   19   12 1
    18   20    3 1
    19   21    5 ar
    20   22   21 1
    21   23   19 ar
    22   24   23 1
    23   25   20 ar
    24   26   25 1
    25   27    3 1
    26   28   23 ar
    27   29   28 1
    28   30   12 2
    29   31   30 1
    30   32   13 ar
    31   33   32 1
    32   34   25 ar
    33   35   34 1
    34   36   21 ar
    35   37   36 1
    36   38   19 ar
    37   39   38 1
    38   40   36 ar
    39   41   40 1
    40   42   15 ar
    41   43   42 1
    42   44   28 ar
    43   45   44 1
    44   46   38 ar
    45   47   46 1
    46   48   65 2
    47   49   52 2
    48   50   51 1
    49   52   54 2
    50   53   60 ar
    51   55   56 ar
    52   56   57 1
    53   58   55 1
    54   59   52 1
    55   60   63 ar
    56   61   59 ar
    57   62   61 1
    58   63   50 1
    59   64   58 1
    60   65   50 1
    61   66   55 ar
    62   67   66 1
    63   68   58 2
    64   69   68 1
    65   70   61 ar
    66   71   70 1
    67   72   64 ar
    68   73   72 1
    69   74   60 ar
    70   75   64 ar
    71   76   75 1
    72   77   72 ar
    73   78   77 1
    74   79   53 ar
    75   80   79 1
    76   81   63 ar
    77   82   81 1
    78   83   77 ar
    79   84   83 1
    80   85   74 ar
    81   86   85 1
    82   87   81 ar
    83   88   87 1
    84   89   79 ar
    85   90   89 1
    86   91   75 ar
    87   92   91 1
    88   93   74 ar
    89   94   93 1
    90    9   20 ar
    91   17   32 ar
    92   27   30 1
    93   34   42 ar
    94   44   46 ar
    95   56   59 ar
    96   65   68 1
    97   66   70 ar
    98   83   91 ar
    99   85   89 ar
   100   87   93 ar
@<TRIPOS>SUBSTRUCTURE
     1 RES1 1
     2 RES2 48

@<TRIPOS>CRYSIN
   6.1038   16.2799   19.8020  86.7700  89.2900  80.5550   2 1

