# MOL2 file generated by ConQuest
# Please check atom types

@<TRIPOS>MOLECULE
SAGPIZ
    26    27     1
SMALL
NO_CHARGES
****
Generated from CSD

@<TRIPOS>ATOM
      1 O1         6.1692    8.6663    4.2250 O.3       1 RES1    0.0000
      2 C1         5.2702    9.4748    3.5326 C.3       1 RES1    0.0000
      3 C2         5.9803   10.7633    3.2329 C.3       1 RES1    0.0000
      4 C3         6.8913   10.9078    4.4354 C.3       1 RES1    0.0000
      5 C4         7.2523    9.4819    4.7445 C.3       1 RES1    0.0000
      6 O2         4.1445    9.8080    4.3630 O.3       1 RES1    0.0000
      7 C5         3.2438    8.8466    4.6926 C.ar      1 RES1    0.0000
      8 C6         2.1286    9.2873    5.3926 C.ar      1 RES1    0.0000
      9 C7         1.1621    8.4060    5.7887 C.ar      1 RES1    0.0000
     10 C8         1.2996    7.0685    5.4676 C.ar      1 RES1    0.0000
     11 C9         2.3997    6.6027    4.7803 C.ar      1 RES1    0.0000
     12 C10        3.3835    7.4912    4.3937 C.ar      1 RES1    0.0000
     13 N1         0.2625    6.1274    5.8730 N.pl3     1 RES1    0.0000
     14 O3         0.3795    4.9535    5.5519 O.2       1 RES1    0.0000
     15 O4        -0.6937    6.5478    6.4972 O.2       1 RES1    0.0000
     16 H1         4.9733    9.0162    2.7432 H         1 RES1    0.0000
     17 H2         6.4852   10.7036    2.4178 H         1 RES1    0.0000
     18 H3         5.3622   11.4954    3.1724 H         1 RES1    0.0000
     19 H4         6.4292   11.3139    5.1721 H         1 RES1    0.0000
     20 H5         7.6696   11.4261    4.2216 H         1 RES1    0.0000
     21 H6         7.3422    9.3578    5.6924 H         1 RES1    0.0000
     22 H7         8.0765    9.2491    4.3119 H         1 RES1    0.0000
     23 H8         2.0362   10.2200    5.6004 H         1 RES1    0.0000
     24 H9         0.4000    8.7117    6.2860 H         1 RES1    0.0000
     25 H10        2.4824    5.6701    4.5717 H         1 RES1    0.0000
     26 H11        4.1593    7.1783    3.9227 H         1 RES1    0.0000
@<TRIPOS>BOND
     1    1    2 1
     2    2    3 1
     3    3    4 1
     4    4    5 1
     5    5    1 1
     6    6    2 1
     7    7    6 1
     8    8    7 ar
     9    9    8 ar
    10   10    9 ar
    11   11   10 ar
    12   12    7 ar
    13   13   10 1
    14   14   13 2
    15   15   13 2
    16   16    2 1
    17   17    3 1
    18   18    3 1
    19   19    4 1
    20   20    4 1
    21   21    5 1
    22   22    5 1
    23   23    8 1
    24   24    9 1
    25   25   11 1
    26   26   12 1
    27   11   12 ar
@<TRIPOS>SUBSTRUCTURE
     1 RES1 1

@<TRIPOS>CRYSIN
   9.7670   11.9420    8.5220  90.0000  92.0600  90.0000  14 1

