# MOL2 file generated by ConQuest
# Please check atom types

@<TRIPOS>MOLECULE
SAGRAT01
    30    31     1
SMALL
NO_CHARGES
****
Generated from CSD

@<TRIPOS>ATOM
      1 C1         6.3182    1.2573   11.7905 C.ar      1 RES1    0.0000
      2 C2         5.0342    1.7400   11.5420 C.ar      1 RES1    0.0000
      3 C3         4.2722    2.2428   12.5856 C.ar      1 RES1    0.0000
      4 C4         4.8064    2.2301   13.8576 C.ar      1 RES1    0.0000
      5 N1         3.9981    2.7463   14.9767 N.pl3     1 RES1    0.0000
      6 O1         2.8950    3.2245   14.7203 O.2       1 RES1    0.0000
      7 O2         4.4659    2.6771   16.1103 O.2       1 RES1    0.0000
      8 C5         6.0745    1.7534   14.1355 C.ar      1 RES1    0.0000
      9 C6         6.8302    1.2670   13.0837 C.ar      1 RES1    0.0000
     10 C7         7.1735    0.6711   10.7094 C.2       1 RES1    0.0000
     11 O3         8.2486    0.1601   10.9193 O.2       1 RES1    0.0000
     12 O4         6.6100    0.7613    9.5056 O.3       1 RES1    0.0000
     13 C8         7.3374    0.1385    8.4017 C.3       1 RES1    0.0000
     14 C9         6.3638   -0.1043    7.2936 C.ar      1 RES1    0.0000
     15 C10        6.6938    0.1713    5.9733 C.ar      1 RES1    0.0000
     16 C11        5.7826   -0.0782    4.9444 C.ar      1 RES1    0.0000
     17 C12        4.5455   -0.5974    5.2284 C.ar      1 RES1    0.0000
     18 C13        4.2131   -0.8946    6.5366 C.ar      1 RES1    0.0000
     19 C14        5.1119   -0.6652    7.5566 C.ar      1 RES1    0.0000
     20 H1         4.6814    1.7244   10.6603 H         1 RES1    0.0000
     21 H2         3.4016    2.5892   12.4273 H         1 RES1    0.0000
     22 H3         6.4159    1.7609   15.0227 H         1 RES1    0.0000
     23 H4         7.7062    0.9370   13.2451 H         1 RES1    0.0000
     24 H5         7.7376   -0.7173    8.6960 H         1 RES1    0.0000
     25 H6         8.0642    0.7344    8.0938 H         1 RES1    0.0000
     26 H7         7.5476    0.5333    5.7666 H         1 RES1    0.0000
     27 H8         6.0208    0.1125    4.0443 H         1 RES1    0.0000
     28 H9         3.9203   -0.7516    4.5307 H         1 RES1    0.0000
     29 H10        3.3586   -1.2603    6.7343 H         1 RES1    0.0000
     30 H11        4.8766   -0.8909    8.4488 H         1 RES1    0.0000
@<TRIPOS>BOND
     1    1    2 ar
     2    2    3 ar
     3    3    4 ar
     4    4    5 1
     5    5    6 2
     6    7    5 2
     7    8    4 ar
     8    9    1 ar
     9   10    1 1
    10   11   10 2
    11   12   10 1
    12   13   12 1
    13   14   13 1
    14   15   14 ar
    15   16   15 ar
    16   17   16 ar
    17   18   17 ar
    18   19   14 ar
    19   20    2 1
    20   21    3 1
    21   22    8 1
    22   23    9 1
    23   24   13 1
    24   25   13 1
    25   26   15 1
    26   27   16 1
    27   28   17 1
    28   29   18 1
    29   30   19 1
    30    8    9 ar
    31   18   19 ar
@<TRIPOS>SUBSTRUCTURE
     1 RES1 1

@<TRIPOS>CRYSIN
   6.1574    7.4487   26.3410  90.0000  93.3620  90.0000 231 1

