# MOL2 file generated by ConQuest
# Please check atom types

@<TRIPOS>MOLECULE
SAGRAT
    30    31     1
SMALL
NO_CHARGES
****
Generated from CSD

@<TRIPOS>ATOM
      1 O1         1.2121    3.2010   16.7467 O.3       1 RES1    0.0000
      2 C1         0.6310    3.2257   15.5554 C.2       1 RES1    0.0000
      3 O2        -0.4455    3.7165   15.3559 O.2       1 RES1    0.0000
      4 C2         1.4696    2.6130   14.4900 C.ar      1 RES1    0.0000
      5 C3         2.7457    2.1206   14.7367 C.ar      1 RES1    0.0000
      6 C4         3.4913    1.5735   13.7133 C.ar      1 RES1    0.0000
      7 C5         2.9423    1.5388   12.4511 C.ar      1 RES1    0.0000
      8 N1         3.7296    0.9615   11.3516 N.pl3     1 RES1    0.0000
      9 O3         3.2440    0.9569   10.2364 O.2       1 RES1    0.0000
     10 O4         4.8304    0.5031   11.6062 O.2       1 RES1    0.0000
     11 C6         1.6819    2.0249   12.1756 C.ar      1 RES1    0.0000
     12 C7         0.9517    2.5566   13.2016 C.ar      1 RES1    0.0000
     13 C8         0.4809    3.8238   17.8383 C.3       1 RES1    0.0000
     14 C9         1.4470    4.0892   18.9483 C.ar      1 RES1    0.0000
     15 C10        2.6694    4.6788   18.7016 C.ar      1 RES1    0.0000
     16 C11        3.5505    4.9335   19.7250 C.ar      1 RES1    0.0000
     17 C12        3.2246    4.6055   21.0055 C.ar      1 RES1    0.0000
     18 C13        2.0028    4.0491   21.2758 C.ar      1 RES1    0.0000
     19 C14        1.1107    3.7813   20.2498 C.ar      1 RES1    0.0000
     20 H1         3.1099    2.1600   15.6236 H         1 RES1    0.0000
     21 H2         4.3708    1.2262   13.8760 H         1 RES1    0.0000
     22 H3         1.3253    1.9918   11.2860 H         1 RES1    0.0000
     23 H4         0.0696    2.8954   13.0310 H         1 RES1    0.0000
     24 H5         0.0919    4.6495   17.5392 H         1 RES1    0.0000
     25 H6        -0.2125    3.2342   18.1427 H         1 RES1    0.0000
     26 H7         2.9085    4.9150   17.8016 H         1 RES1    0.0000
     27 H8         4.3977    5.3433   19.5387 H         1 RES1    0.0000
     28 H9         3.8502    4.7629   21.7166 H         1 RES1    0.0000
     29 H10        1.7616    3.8438   22.1811 H         1 RES1    0.0000
     30 H11        0.2600    3.3816   20.4440 H         1 RES1    0.0000
@<TRIPOS>BOND
     1    1    2 1
     2    2    3 2
     3    4    2 1
     4    5    4 ar
     5    6    5 ar
     6    7    6 ar
     7    8    7 1
     8    9    8 2
     9   10    8 2
    10   11    7 ar
    11   12    4 ar
    12   13    1 1
    13   14   13 1
    14   15   14 ar
    15   16   15 ar
    16   17   16 ar
    17   18   17 ar
    18   19   14 ar
    19   20    5 1
    20   21    6 1
    21   22   11 1
    22   23   12 1
    23   24   13 1
    24   25   13 1
    25   26   15 1
    26   27   16 1
    27   28   17 1
    28   29   18 1
    29   30   19 1
    30   11   12 ar
    31   18   19 ar
@<TRIPOS>SUBSTRUCTURE
     1 RES1 1

@<TRIPOS>CRYSIN
   6.1800    7.7170   26.2770  90.0000  93.0200  90.0000 231 1

