# MOL2 file generated by ConQuest
# Please check atom types

@<TRIPOS>MOLECULE
SAGSEB
    57    59     2
SMALL
NO_CHARGES
****
Generated from CSD

@<TRIPOS>ATOM
      1 O1        13.7306    4.0790    1.3101 O.2       1 RES1    0.0000
      2 O2        10.4841    7.4160    1.2097 O.2       1 RES1    0.0000
      3 O3        11.0337    6.2096    6.8532 O.2       1 RES1    0.0000
      4 O4        13.1242    6.5084    7.0129 O.2       1 RES1    0.0000
      5 N1         8.9274    6.1025    4.0540 N.2       1 RES1    0.0000
      6 N2         9.0652    7.0588    3.0182 N.am      1 RES1    0.0000
      7 N3        12.0312    6.8090    6.5692 N.pl3     1 RES1    0.0000
      8 C1        12.9709    4.8098    1.9079 C.2       1 RES1    0.0000
      9 C2        11.4939    4.6236    2.0121 C.2       1 RES1    0.0000
     10 C3        10.9233    5.6916    2.9258 C.3       1 RES1    0.0000
     11 C4        12.2236    6.2695    3.6593 C.3       1 RES1    0.0000
     12 H1        12.4105    5.6714    4.4131 H         1 RES1    0.0000
     13 C5        13.3538    6.0698    2.6510 C.3       1 RES1    0.0000
     14 H2        13.4146    6.8249    2.0451 H         1 RES1    0.0000
     15 H3        14.2054    5.9605    3.1025 H         1 RES1    0.0000
     16 C6        10.1697    6.8244    2.2238 C.2       1 RES1    0.0000
     17 C7         9.9222    5.2934    3.9726 C.2       1 RES1    0.0000
     18 C8        10.0447    4.0984    4.8576 C.3       1 RES1    0.0000
     19 H4         9.3459    4.1149    5.5154 H         1 RES1    0.0000
     20 H5        10.8989    4.1116    5.2966 H         1 RES1    0.0000
     21 H6         9.9686    3.3007    4.3303 H         1 RES1    0.0000
     22 C9        10.9254    3.6156    1.3237 C.2       1 RES1    0.0000
     23 H7        11.5384    3.0877    0.8646 H         1 RES1    0.0000
     24 C10        9.5370    3.1840    1.1524 C.ar      1 RES1    0.0000
     25 C11        8.4246    3.9799    1.4332 C.ar      1 RES1    0.0000
     26 H8         8.5493    4.8306    1.7872 H         1 RES1    0.0000
     27 C12        7.1411    3.5237    1.1944 C.ar      1 RES1    0.0000
     28 H9         6.4112    4.0602    1.4052 H         1 RES1    0.0000
     29 C13        6.9397    2.2710    0.6433 C.ar      1 RES1    0.0000
     30 H10        6.0763    1.9717    0.4696 H         1 RES1    0.0000
     31 C14        8.0243    1.4639    0.3508 C.ar      1 RES1    0.0000
     32 H11        7.8911    0.6193   -0.0154 H         1 RES1    0.0000
     33 C15        9.3097    1.9159    0.6039 C.ar      1 RES1    0.0000
     34 H12       10.0338    1.3675    0.4057 H         1 RES1    0.0000
     35 C16        8.0682    8.0631    2.9081 C.ar      1 RES1    0.0000
     36 C17        8.2879    9.2047    2.1362 C.ar      1 RES1    0.0000
     37 H13        9.0697    9.2942    1.6394 H         1 RES1    0.0000
     38 C18        7.3241   10.2082    2.1183 C.ar      1 RES1    0.0000
     39 H14        7.4634   10.9716    1.6063 H         1 RES1    0.0000
     40 C19        6.1606   10.0803    2.8559 C.ar      1 RES1    0.0000
     41 H15        5.5263   10.7605    2.8482 H         1 RES1    0.0000
     42 C20        5.9422    8.9357    3.6058 C.ar      1 RES1    0.0000
     43 H16        5.1584    8.8492    4.0984 H         1 RES1    0.0000
     44 C21        6.8844    7.9184    3.6270 C.ar      1 RES1    0.0000
     45 H17        6.7268    7.1448    4.1174 H         1 RES1    0.0000
     46 C22       12.1009    7.6698    4.2333 C.ar      1 RES1    0.0000
     47 C23       12.1051    8.8102    3.4173 C.ar      1 RES1    0.0000
     48 H18       12.1791    8.7049    2.4957 H         1 RES1    0.0000
     49 C24       12.0020   10.0882    3.9414 C.ar      1 RES1    0.0000
     50 H19       11.9886   10.8224    3.3710 H         1 RES1    0.0000
     51 C25       11.9193   10.2788    5.3056 C.ar      1 RES1    0.0000
     52 H20       11.8599   11.1378    5.6562 H         1 RES1    0.0000
     53 C26       11.9246    9.1875    6.1424 C.ar      1 RES1    0.0000
     54 H21       11.8674    9.3016    7.0637 H         1 RES1    0.0000
     55 C27       12.0158    7.9208    5.5998 C.ar      1 RES1    0.0000
     56 O5        12.9343    6.0155    6.6024 Du        2 SUP2    0.0000
     57 O6        11.0673    6.7905    7.3381 Du        2 SUP2    0.0000
@<TRIPOS>BOND
     1    1    8 2
     2    2   16 2
     3    3    7 2
     4    4    7 2
     5    5    6 1
     6    6   16 1
     7    7   55 1
     8    8    9 1
     9    9   10 1
    10   10   11 1
    11   11   12 1
    12   13    8 1
    13   14   13 1
    14   15   13 1
    15   16   10 1
    16   17    5 2
    17   18   17 1
    18   19   18 1
    19   20   18 1
    20   21   18 1
    21   22    9 2
    22   23   22 1
    23   24   22 1
    24   25   24 ar
    25   26   25 1
    26   27   25 ar
    27   28   27 1
    28   29   27 ar
    29   30   29 1
    30   31   29 ar
    31   32   31 1
    32   33   24 ar
    33   34   33 1
    34   35    6 1
    35   36   35 ar
    36   37   36 1
    37   38   36 ar
    38   39   38 1
    39   40   38 ar
    40   41   40 1
    41   42   40 ar
    42   43   42 1
    43   44   35 ar
    44   45   44 1
    45   46   11 1
    46   47   46 ar
    47   48   47 1
    48   49   47 ar
    49   50   49 1
    50   51   49 ar
    51   52   51 1
    52   53   51 ar
    53   54   53 1
    54   55   46 ar
    55   10   17 1
    56   11   13 1
    57   31   33 ar
    58   42   44 ar
    59   53   55 ar
@<TRIPOS>SUBSTRUCTURE
     1 RES1 1
     2 SUP2 56

@<TRIPOS>CRYSIN
   9.7885   10.1790   12.2870  82.4790  74.4300  68.6170   2 1

