# MOL2 file generated by ConQuest
# Please check atom types

@<TRIPOS>MOLECULE
SAGVIH
    45    37     2
SMALL
NO_CHARGES
****
Generated from CSD

@<TRIPOS>ATOM
      1 O1         7.5892    5.6390   11.3064 O.3       1 RES1    0.0000
      2 C1         7.8480    5.1477   10.0179 C.ar      1 RES1    0.0000
      3 C2         9.7319    6.6946   11.3443 C.2       1 RES1    0.0000
      4 O2        10.2921    8.1801   12.9936 O.2       1 RES1    0.0000
      5 O3        11.7117    7.7761   11.3983 O.2       1 RES1    0.0000
      6 N1        10.5950    7.5723   11.9370 N.pl3     1 RES1    0.0000
      7 C3         8.4685    6.4400   11.9275 C.2       1 RES1    0.0000
      8 N2         8.0275    6.9057   13.0561 N.3       1 RES1    0.0000
      9 H1         8.5521    7.4137   13.5077 H         1 RES1    0.0000
     10 C4         9.0600    5.3266    9.3939 C.ar      1 RES1    0.0000
     11 C5         6.8041    4.4783    9.4119 C.ar      1 RES1    0.0000
     12 H2         5.9941    4.3641    9.8541 H         1 RES1    0.0000
     13 C6         9.2038    4.8071    8.1073 C.ar      1 RES1    0.0000
     14 H3        10.0172    4.9140    7.6680 H         1 RES1    0.0000
     15 C7        10.1998    5.9880   10.1125 C.3       1 RES1    0.0000
     16 H4        10.5394    6.6825    9.5094 H         1 RES1    0.0000
     17 C8         8.1867    4.1439    7.4682 C.ar      1 RES1    0.0000
     18 C9         6.9849    3.9823    8.1423 C.ar      1 RES1    0.0000
     19 H5         6.2870    3.5297    7.7257 H         1 RES1    0.0000
     20 C10       11.3496    5.0259   10.3426 C.3       1 RES1    0.0000
     21 H6        11.7303    4.7701    9.4877 H         1 RES1    0.0000
     22 H7        12.0414    5.4694   10.8577 H         1 RES1    0.0000
     23 N3        10.9016    3.8079   11.0650 N.pl3     1 RES1    0.0000
     24 O4        10.1191    3.9346   11.9805 O.2       1 RES1    0.0000
     25 O5        11.1316    2.6584   10.7611 O.2       1 RES1    0.0000
     26 C11        8.3954    3.6550    6.0461 C.3       1 RES1    0.0000
     27 H8         8.2168    4.3950    5.4449 H         1 RES1    0.0000
     28 H9         9.3299    3.4186    5.9429 H         1 RES1    0.0000
     29 C12        7.5603    2.4754    5.5983 C.3       1 RES1    0.0000
     30 H10        7.7741    2.2593    4.6875 H         1 RES1    0.0000
     31 H11        6.6293    2.6991    5.6646 H         1 RES1    0.0000
     32 H12        7.7486    1.7193    6.1597 H         1 RES1    0.0000
     33 C13        6.7046    6.6300   13.6175 C.3       1 RES1    0.0000
     34 H13        6.0344    7.0710   13.0892 H         1 RES1    0.0000
     35 H14        6.6654    6.9552   14.5198 H         1 RES1    0.0000
     36 H15        6.5440    5.6835   13.6109 H         1 RES1    0.0000
     37 C14        8.8156    2.2022    6.0300 Du        2 SUP2    0.0000
     38 H16        7.5706    3.7578    5.5453 Du        2 SUP2    0.0000
     39 H17        9.0772    4.1937    5.6163 Du        2 SUP2    0.0000
     40 H18        8.9430    1.9161    5.1230 Du        2 SUP2    0.0000
     41 H19        8.1344    1.6666    6.4419 Du        2 SUP2    0.0000
     42 H20        9.6382    2.1022    6.5148 Du        2 SUP2    0.0000
     43 N4        11.0535    3.9378   11.3083 Du        2 SUP2    0.0000
     44 O6         9.9807    3.5774   11.7401 Du        2 SUP2    0.0000
     45 O7        12.0481    3.3180   11.6151 Du        2 SUP2    0.0000
@<TRIPOS>BOND
     1    1    2 1
     2    2   10 ar
     3    3    6 1
     4    4    6 2
     5    5    6 2
     6    7    1 1
     7    8    7 1
     8    9    8 1
     9   10   13 ar
    10   11    2 ar
    11   12   11 1
    12   13   14 1
    13   15    3 1
    14   16   15 1
    15   17   13 ar
    16   18   11 ar
    17   19   18 1
    18   20   15 1
    19   21   20 1
    20   22   20 1
    21   23   20 1
    22   24   23 2
    23   25   23 2
    24   26   17 1
    25   27   26 1
    26   28   26 1
    27   29   26 1
    28   30   29 1
    29   31   29 1
    30   32   29 1
    31   33    8 1
    32   34   33 1
    33   35   33 1
    34   36   33 1
    35    3    7 2
    36   10   15 1
    37   17   18 ar
@<TRIPOS>SUBSTRUCTURE
     1 RES1 1
     2 SUP2 37

@<TRIPOS>CRYSIN
   8.2538    9.0431   10.3323  73.4840  71.7280  83.2340   2 1

