# MOL2 file generated by ConQuest
# Please check atom types

@<TRIPOS>MOLECULE
SAGZOR
    20    20     1
SMALL
NO_CHARGES
****
Generated from CSD

@<TRIPOS>ATOM
      1 O1         5.3603    1.1776    4.3157 O.2       1 RES1    0.0000
      2 O2         5.7970    0.3083    2.4277 O.2       1 RES1    0.0000
      3 O3         7.4423    2.9295    3.4304 O.2       1 RES1    0.0000
      4 O4         6.8335    5.0563    3.7886 O.3       1 RES1    0.0000
      5 O5         3.3679    6.8338    0.8228 O.3       1 RES1    0.0000
      6 O6         1.6477    5.5192    0.1892 O.2       1 RES1    0.0000
      7 N1         5.3796    1.2376    3.1086 N.pl3     1 RES1    0.0000
      8 C1         6.6454    3.9266    3.3265 C.2       1 RES1    0.0000
      9 C2         5.3184    3.5947    2.5933 C.ar      1 RES1    0.0000
     10 C3         4.7512    2.3240    2.4759 C.ar      1 RES1    0.0000
     11 C4         3.6151    2.2027    1.7849 C.ar      1 RES1    0.0000
     12 C5         2.9342    3.2439    1.2105 C.ar      1 RES1    0.0000
     13 C6         4.6851    4.7369    2.0248 C.ar      1 RES1    0.0000
     14 C7         3.4744    4.5076    1.3642 C.ar      1 RES1    0.0000
     15 C8         2.7885    5.7437    0.7450 C.2       1 RES1    0.0000
     16 H1         7.6191    5.2385    4.0893 H         1 RES1    0.0000
     17 H2         3.2599    1.3490    1.6869 H         1 RES1    0.0000
     18 H3         2.9457    7.5172    0.4815 H         1 RES1    0.0000
     19 H4         2.1444    3.1073    0.7391 H         1 RES1    0.0000
     20 H5         5.0562    5.5873    2.0890 H         1 RES1    0.0000
@<TRIPOS>BOND
     1    1    7 2
     2    2    7 2
     3    3    8 2
     4    4    8 1
     5    5   15 1
     6    6   15 2
     7    7   10 1
     8    8    9 1
     9    9   10 ar
    10   10   11 ar
    11   11   12 ar
    12   12   14 ar
    13   13    9 ar
    14   14   13 ar
    15   15   14 1
    16   16    4 1
    17   17   11 1
    18   18    5 1
    19   19   12 1
    20   20   13 1
@<TRIPOS>SUBSTRUCTURE
     1 RES1 1

@<TRIPOS>CRYSIN
   7.0261    7.4380    8.5775  80.0900  86.2200  75.3700   2 1

