# MOL2 file generated by ConQuest
# Please check atom types

@<TRIPOS>MOLECULE
SAHBEK
    46    46     2
SMALL
NO_CHARGES
****
Generated from CSD

@<TRIPOS>ATOM
      1 N1        12.4177    7.2632   23.4711 N.pl3     1 RES1    0.0000
      2 C1        10.4020    8.4740   24.2003 C.ar      1 RES1    0.0000
      3 H1         9.8812    7.8394   23.7617 H         1 RES1    0.0000
      4 O1        11.7094    6.4405   22.9411 O.2       1 RES1    0.0000
      5 O2        13.6458    7.2280   23.4512 O.2       1 RES1    0.0000
      6 C2        11.7758    8.3735   24.1985 C.ar      1 RES1    0.0000
      7 N2        12.8045   11.3111   26.2126 N.pl3     1 RES1    0.0000
      8 N3         7.5108    8.7677   24.7588 N.am      1 RES1    0.0000
      9 H2         7.8377    7.9722   24.7292 H         1 RES1    0.0000
     10 O3        14.0133   11.1361   26.2158 O.2       1 RES1    0.0000
     11 C3        12.5924    9.2796   24.8591 C.ar      1 RES1    0.0000
     12 H3        13.5193    9.2001   24.8555 H         1 RES1    0.0000
     13 O4        12.2409   12.2675   26.7202 O.2       1 RES1    0.0000
     14 C4        11.9537   10.3014   25.5191 C.ar      1 RES1    0.0000
     15 O5         7.9245   10.9692   24.8786 O.2       1 RES1    0.0000
     16 C5        10.5971   10.4593   25.5274 C.ar      1 RES1    0.0000
     17 H4        10.2091   11.1773   25.9711 H         1 RES1    0.0000
     18 C6         9.8062    9.5350   24.8642 C.ar      1 RES1    0.0000
     19 C7         8.3328    9.8046   24.8378 C.2       1 RES1    0.0000
     20 C8         6.0760    8.9457   24.7191 C.3       1 RES1    0.0000
     21 H5         5.6495    8.0878   24.6642 H         1 RES1    0.0000
     22 H6         5.8402    9.4697   23.9494 H         1 RES1    0.0000
     23 H7         5.7877    9.3973   25.5162 H         1 RES1    0.0000
     24 O6         3.5545    2.7315   14.1884 O.2       2 RES2    0.0000
     25 O7         1.9760    1.3527   14.6797 O.2       2 RES2    0.0000
     26 O8         2.9212   -2.4589   17.4718 O.2       2 RES2    0.0000
     27 O9         4.9508   -2.9075   18.0184 O.2       2 RES2    0.0000
     28 O10        8.1420    1.7600   15.4740 O.2       2 RES2    0.0000
     29 N4         3.1494    1.6856   14.6794 N.pl3     2 RES2    0.0000
     30 N5         4.1149   -2.2407   17.4375 N.pl3     2 RES2    0.0000
     31 N6         8.6896   -0.4164   15.6097 N.am      2 RES2    0.0000
     32 H8         8.4046   -1.2189   15.7256 H         2 RES2    0.0000
     33 C9         5.4619    1.0670   15.2104 C.ar      2 RES2    0.0000
     34 H9         5.7481    1.8163   14.7400 H         2 RES2    0.0000
     35 C10        4.1160    0.7925   15.3310 C.ar      2 RES2    0.0000
     36 C11        3.6520   -0.2896   16.0523 C.ar      2 RES2    0.0000
     37 H10        2.7412   -0.4626   16.1335 H         2 RES2    0.0000
     38 C12        4.5854   -1.0932   16.6382 C.ar      2 RES2    0.0000
     39 C13        5.9463   -0.8800   16.5140 C.ar      2 RES2    0.0000
     40 H11        6.5539   -1.4653   16.9061 H         2 RES2    0.0000
     41 C14        6.3867    0.2142   15.8021 C.ar      2 RES2    0.0000
     42 C15        7.8302    0.5773   15.6252 C.2       2 RES2    0.0000
     43 C16       10.1063   -0.1911   15.4014 C.3       2 RES2    0.0000
     44 H12       10.5692   -1.0308   15.4151 H         2 RES2    0.0000
     45 H13       10.4460    0.3741   16.1010 H         2 RES2    0.0000
     46 H14       10.2413    0.2353   14.5523 H         2 RES2    0.0000
@<TRIPOS>BOND
     1    1    4 2
     2    2    3 1
     3    5    1 2
     4    6    1 1
     5    7   10 2
     6    8    9 1
     7   11    6 ar
     8   12   11 1
     9   13    7 2
    10   14    7 1
    11   15   19 2
    12   16   14 ar
    13   17   16 1
    14   18    2 ar
    15   19    8 1
    16   20    8 1
    17   21   20 1
    18   22   20 1
    19   23   20 1
    20   24   29 2
    21   25   29 2
    22   26   30 2
    23   27   30 2
    24   28   42 2
    25   29   35 1
    26   30   38 1
    27   31   32 1
    28   33   34 1
    29   35   33 ar
    30   36   35 ar
    31   37   36 1
    32   38   36 ar
    33   39   38 ar
    34   40   39 1
    35   41   33 ar
    36   42   31 1
    37   43   31 1
    38   44   43 1
    39   45   43 1
    40   46   43 1
    41    2    6 ar
    42   11   14 ar
    43   16   18 ar
    44   18   19 1
    45   39   41 ar
    46   41   42 1
@<TRIPOS>SUBSTRUCTURE
     1 RES1 1
     2 RES2 24

@<TRIPOS>CRYSIN
  10.7160   10.0570   36.1010  90.0000  90.0000  90.0000  61 1

