# MOL2 file generated by ConQuest
# Please check atom types

@<TRIPOS>MOLECULE
SAHCOV
    38    39     1
SMALL
NO_CHARGES
****
Generated from CSD

@<TRIPOS>ATOM
      1 N1         7.1188    4.7181    7.1169 N.pl3     1 RES1    0.0000
      2 N2         3.3361    6.1382    7.5442 N.2       1 RES1    0.0000
      3 O1         7.7674    2.8648    5.1527 O.3       1 RES1    0.0000
      4 O2         5.8862    1.8009    3.5246 O.3       1 RES1    0.0000
      5 H1         5.2709    1.6425    3.0056 H         1 RES1    0.0000
      6 O3         7.8598    3.9903    7.7340 O.2       1 RES1    0.0000
      7 O4         7.1529    5.9359    7.1714 O.2       1 RES1    0.0000
      8 C1         6.4614    3.2278    5.2903 C.ar      1 RES1    0.0000
      9 C2         5.4719    2.6772    4.4573 C.ar      1 RES1    0.0000
     10 C3         4.1527    3.0504    4.6384 C.ar      1 RES1    0.0000
     11 H2         3.4960    2.6919    4.0861 H         1 RES1    0.0000
     12 C4         3.7917    3.9429    5.6224 C.ar      1 RES1    0.0000
     13 H3         2.8964    4.1754    5.7194 H         1 RES1    0.0000
     14 C5         4.7362    4.5050    6.4757 C.ar      1 RES1    0.0000
     15 C6         6.0687    4.1133    6.2730 C.ar      1 RES1    0.0000
     16 C7         4.3640    5.3867    7.5757 C.2       1 RES1    0.0000
     17 H4         4.9015    5.4002    8.3353 H         1 RES1    0.0000
     18 C8         3.0608    7.0077    8.6532 C.ar      1 RES1    0.0000
     19 C9         1.7494    7.4148    8.8332 C.ar      1 RES1    0.0000
     20 H5         1.0855    7.0970    8.2646 H         1 RES1    0.0000
     21 C10        1.4170    8.2956    9.8546 C.ar      1 RES1    0.0000
     22 C11        2.4259    8.7598   10.6779 C.ar      1 RES1    0.0000
     23 H6         2.2123    9.3557   11.3590 H         1 RES1    0.0000
     24 C12        3.7453    8.3662   10.5211 C.ar      1 RES1    0.0000
     25 C13        4.0609    7.4978    9.4973 C.ar      1 RES1    0.0000
     26 H7         4.9440    7.2375    9.3686 H         1 RES1    0.0000
     27 C14       -0.0024    8.7733   10.0373 C.3       1 RES1    0.0000
     28 H8        -0.5854    8.2714    9.4628 H         1 RES1    0.0000
     29 H9        -0.0570    9.7055    9.8145 H         1 RES1    0.0000
     30 H10       -0.2679    8.6474   10.9511 H         1 RES1    0.0000
     31 C15        4.8258    8.8983   11.4339 C.3       1 RES1    0.0000
     32 H11        5.6054    8.3421   11.3645 H         1 RES1    0.0000
     33 H12        4.5098    8.8954   12.3397 H         1 RES1    0.0000
     34 H13        5.0500    9.7956   11.1759 H         1 RES1    0.0000
     35 C16        8.4853    3.5369    4.1136 C.3       1 RES1    0.0000
     36 H14        8.0546    3.3770    3.2703 H         1 RES1    0.0000
     37 H15        9.3858    3.2055    4.0806 H         1 RES1    0.0000
     38 H16        8.4984    4.4807    4.2927 H         1 RES1    0.0000
@<TRIPOS>BOND
     1    1    6 2
     2    2   16 2
     3    3    8 1
     4    4    5 1
     5    7    1 2
     6    8    9 ar
     7    9    4 1
     8   10    9 ar
     9   11   10 1
    10   12   10 ar
    11   13   12 1
    12   14   12 ar
    13   15    1 1
    14   16   14 1
    15   17   16 1
    16   18    2 1
    17   19   18 ar
    18   20   19 1
    19   21   19 ar
    20   22   21 ar
    21   23   22 1
    22   24   22 ar
    23   25   18 ar
    24   26   25 1
    25   27   21 1
    26   28   27 1
    27   29   27 1
    28   30   27 1
    29   31   24 1
    30   32   31 1
    31   33   31 1
    32   34   31 1
    33   35    3 1
    34   36   35 1
    35   37   35 1
    36   38   35 1
    37    8   15 ar
    38   14   15 ar
    39   24   25 ar
@<TRIPOS>SUBSTRUCTURE
     1 RES1 1

@<TRIPOS>CRYSIN
   8.6160    9.6900   18.2900  90.0000  97.6310  90.0000  14 1

