# MOL2 file generated by ConQuest
# Please check atom types

@<TRIPOS>MOLECULE
SAHCAH
    44    45     1
SMALL
NO_CHARGES
****
Generated from CSD

@<TRIPOS>ATOM
      1 C1         3.0728   10.7681   -2.5518 C.3       1 RES1    0.0000
      2 H1         2.6255    9.9725   -2.8491 H         1 RES1    0.0000
      3 H2         3.5305   11.1734   -3.2941 H         1 RES1    0.0000
      4 H3         2.4288   11.3845   -2.1994 H         1 RES1    0.0000
      5 C2         3.6385    9.5680   -0.6011 C.2       1 RES1    0.0000
      6 C3         4.7853    9.2949    0.3253 C.3       1 RES1    0.0000
      7 H4         5.5667    9.0211   -0.1811 H         1 RES1    0.0000
      8 H5         5.0091   10.0957    0.8250 H         1 RES1    0.0000
      9 C4         5.2935    7.8645    2.1454 C.ar      1 RES1    0.0000
     10 C5         6.6053    8.2711    2.2328 C.ar      1 RES1    0.0000
     11 H6         6.9491    8.8838    1.6244 H         1 RES1    0.0000
     12 C6         7.4059    7.7611    3.2331 C.ar      1 RES1    0.0000
     13 H7         8.2927    8.0357    3.2882 H         1 RES1    0.0000
     14 C7         6.9303    6.8673    4.1408 C.ar      1 RES1    0.0000
     15 H8         7.4798    6.5433    4.8162 H         1 RES1    0.0000
     16 C8         5.6120    6.4451    4.0423 C.ar      1 RES1    0.0000
     17 H9         5.2796    5.8258    4.6508 H         1 RES1    0.0000
     18 C9         4.7906    6.9344    3.0506 C.ar      1 RES1    0.0000
     19 C10        3.4111    6.4665    2.8684 C.2       1 RES1    0.0000
     20 C11        1.0594    6.3632    2.9433 C.3       1 RES1    0.0000
     21 C12        1.5967    5.2479    1.9993 C.3       1 RES1    0.0000
     22 C13        0.2345    7.4260    2.2722 C.3       1 RES1    0.0000
     23 H10       -0.0157    8.0918    2.9180 H         1 RES1    0.0000
     24 H11       -0.5564    7.0289    1.9001 H         1 RES1    0.0000
     25 H12        0.7481    7.8357    1.5713 H         1 RES1    0.0000
     26 C14        0.3738    5.8465    4.2018 C.3       1 RES1    0.0000
     27 H13        0.8994    5.1416    4.5878 H         1 RES1    0.0000
     28 H14       -0.4973    5.5099    3.9774 H         1 RES1    0.0000
     29 H15        0.2850    6.5624    4.8358 H         1 RES1    0.0000
     30 C15        1.1966    5.4272    0.5454 C.3       1 RES1    0.0000
     31 H16        1.4389    6.3085    0.2540 H         1 RES1    0.0000
     32 H17        0.2480    5.3106    0.4588 H         1 RES1    0.0000
     33 H18        1.6501    4.7755    0.0059 H         1 RES1    0.0000
     34 C16        1.3279    3.8270    2.4396 C.3       1 RES1    0.0000
     35 H19        1.8175    3.2203    1.8784 H         1 RES1    0.0000
     36 H20        0.3891    3.6418    2.3687 H         1 RES1    0.0000
     37 H21        1.6071    3.7163    3.3512 H         1 RES1    0.0000
     38 N1         3.0451    5.4767    2.0637 N.pl3     1 RES1    0.0000
     39 N2         2.3311    7.0193    3.3886 N.3       1 RES1    0.0000
     40 O1         4.0257   10.4294   -1.5281 O.3       1 RES1    0.0000
     41 O2         2.5433    9.0963   -0.5299 O.2       1 RES1    0.0000
     42 O3         4.3944    8.2711    1.2015 O.3       1 RES1    0.0000
     43 O4         3.8368    4.7910    1.3409 O.2       1 RES1    0.0000
     44 O5         2.3107    8.0283    4.1695 O.2       1 RES1    0.0000
@<TRIPOS>BOND
     1    1    2 1
     2    3    1 1
     3    4    1 1
     4    5    6 1
     5    6    7 1
     6    8    6 1
     7    9   10 ar
     8   10   11 1
     9   12   10 ar
    10   13   12 1
    11   14   12 ar
    12   15   14 1
    13   16   14 ar
    14   17   16 1
    15   18    9 ar
    16   19   18 1
    17   20   21 1
    18   21   30 1
    19   22   20 1
    20   23   22 1
    21   24   22 1
    22   25   22 1
    23   26   20 1
    24   27   26 1
    25   28   26 1
    26   29   26 1
    27   30   31 1
    28   32   30 1
    29   33   30 1
    30   34   21 1
    31   35   34 1
    32   36   34 1
    33   37   34 1
    34   38   19 2
    35   39   19 1
    36   40    1 1
    37   41    5 2
    38   42    6 1
    39   43   38 1
    40   44   39 1
    41    5   40 1
    42    9   42 1
    43   16   18 ar
    44   20   39 1
    45   21   38 1
@<TRIPOS>SUBSTRUCTURE
     1 RES1 1

@<TRIPOS>CRYSIN
  11.4210    7.3810   19.7000  90.0000  91.8320  90.0000  14 1

