# MOL2 file generated by ConQuest
# Please check atom types

@<TRIPOS>MOLECULE
SAHCEL
    43    44     1
SMALL
NO_CHARGES
****
Generated from CSD

@<TRIPOS>ATOM
      1 C1         7.2890    6.1075   16.0345 C.ar      1 RES1    0.0000
      2 C2         7.9420    5.6992   14.8640 C.ar      1 RES1    0.0000
      3 C3         7.5916    4.5220   14.2475 C.ar      1 RES1    0.0000
      4 H1         8.0293    4.2575   13.4716 H         1 RES1    0.0000
      5 C4         6.5777    3.7180   14.7842 C.ar      1 RES1    0.0000
      6 C5         5.9403    4.1277   15.9453 C.ar      1 RES1    0.0000
      7 H2         5.2676    3.5999   16.3129 H         1 RES1    0.0000
      8 C6         6.2952    5.3133   16.5625 C.ar      1 RES1    0.0000
      9 H3         5.8591    5.5765   17.3404 H         1 RES1    0.0000
     10 C7         6.1568    2.4916   14.1214 C.2       1 RES1    0.0000
     11 C8         6.0689    0.6471   12.6387 C.3       1 RES1    0.0000
     12 C9         4.8633    0.5761   13.6026 C.3       1 RES1    0.0000
     13 C10        6.8715   -0.6307   12.5182 C.3       1 RES1    0.0000
     14 H4         7.6118   -0.4893   11.9238 H         1 RES1    0.0000
     15 H5         6.3107   -1.3283   12.1699 H         1 RES1    0.0000
     16 H6         7.1999   -0.8856   13.3835 H         1 RES1    0.0000
     17 C11        5.7143    1.1869   11.2531 C.3       1 RES1    0.0000
     18 H7         5.2213    2.0055   11.3452 H         1 RES1    0.0000
     19 H8         5.1804    0.5414   10.7850 H         1 RES1    0.0000
     20 H9         6.5209    1.3544   10.7584 H         1 RES1    0.0000
     21 C12        5.0411   -0.3907   14.7628 C.3       1 RES1    0.0000
     22 H10        5.8795   -0.2186   15.1974 H         1 RES1    0.0000
     23 H11        5.0321   -1.2920   14.4326 H         1 RES1    0.0000
     24 H12        4.3242   -0.2735   15.3902 H         1 RES1    0.0000
     25 C13        3.5227    0.3581   12.9268 C.3       1 RES1    0.0000
     26 H13        2.8357    0.2865   13.5930 H         1 RES1    0.0000
     27 H14        3.5526   -0.4502   12.4093 H         1 RES1    0.0000
     28 H15        3.3312    1.1004   12.3494 H         1 RES1    0.0000
     29 C14        7.1099    7.7302   17.7838 C.3       1 RES1    0.0000
     30 H16        7.3315    7.1067   18.4925 H         1 RES1    0.0000
     31 H17        6.1445    7.7644   17.6962 H         1 RES1    0.0000
     32 C15        7.6426    9.0871   18.1130 C.3       1 RES1    0.0000
     33 H18        7.4563    9.2955   19.0412 H         1 RES1    0.0000
     34 H19        8.6046    9.1011   17.9871 H         1 RES1    0.0000
     35 N1         6.8890    1.7142   13.3102 N.pl3     1 RES1    0.0000
     36 N2         4.9142    1.9502   14.1932 N.3       1 RES1    0.0000
     37 O1         8.1300    1.8957   13.0113 O.2       1 RES1    0.0000
     38 O2         3.8940    2.4742   14.7508 O.2       1 RES1    0.0000
     39 O3         8.9190    6.5336   14.4156 O.3       1 RES1    0.0000
     40 H20        9.1461    6.3077   13.6612 H         1 RES1    0.0000
     41 O4         7.6992    7.2972   16.5478 O.3       1 RES1    0.0000
     42 O5         7.0404   10.0498   17.2797 O.3       1 RES1    0.0000
     43 H21        7.5030   10.7271   17.2656 H         1 RES1    0.0000
@<TRIPOS>BOND
     1    1    2 ar
     2    2    3 ar
     3    3    4 1
     4    5    3 ar
     5    6    5 ar
     6    7    6 1
     7    8    1 ar
     8    9    8 1
     9   10    5 1
    10   11   12 1
    11   12   21 1
    12   13   11 1
    13   14   13 1
    14   15   13 1
    15   16   13 1
    16   17   11 1
    17   18   17 1
    18   19   17 1
    19   20   17 1
    20   21   22 1
    21   23   21 1
    22   24   21 1
    23   25   12 1
    24   26   25 1
    25   27   25 1
    26   28   25 1
    27   29   30 1
    28   31   29 1
    29   32   29 1
    30   33   32 1
    31   34   32 1
    32   35   10 2
    33   36   10 1
    34   37   35 1
    35   38   36 1
    36   39    2 1
    37   40   39 1
    38   41    1 1
    39   42   32 1
    40   43   42 1
    41    6    8 ar
    42   11   35 1
    43   12   36 1
    44   29   41 1
@<TRIPOS>SUBSTRUCTURE
     1 RES1 1

@<TRIPOS>CRYSIN
   9.7870    9.3020   16.6570  90.0000  93.5250  90.0000  14 1

