# MOL2 file generated by ConQuest
# Please check atom types

@<TRIPOS>MOLECULE
SAHDUD
   112   116     4
SMALL
USER_CHARGES
****
Generated from CSD

@<TRIPOS>ATOM
      1 O1         4.8827   10.2075   11.9918 O.2       1 RES1   -1.0000
      2 N1         3.9016    9.6343   11.3702 N.pl3     1 RES1    1.0000
      3 C1         4.0338    8.6034   10.5697 C.2       1 RES1    0.0000
      4 H1         4.8765    8.2429   10.4110 H         1 RES1    0.0000
      5 C2         2.8827    8.0346    9.9421 C.2       1 RES1    0.0000
      6 N2         1.6819    8.2969   10.3734 N.2       1 RES1    0.0000
      7 N3         1.6313    9.1766   11.4038 N.3       1 RES1    0.0000
      8 H2         0.8958    9.4605   11.6368 H         1 RES1    0.0000
      9 C3         2.5515   10.2804   11.4811 C.3       1 RES1    0.0000
     10 C4         2.4197   11.2647   10.3429 C.3       1 RES1    0.0000
     11 H3         2.5317   10.8047    9.5067 H         1 RES1    0.0000
     12 H4         3.0933   11.9437   10.4273 H         1 RES1    0.0000
     13 H5         1.5507   11.6700   10.3693 H         1 RES1    0.0000
     14 C5         2.3900   10.9306   12.8340 C.3       1 RES1    0.0000
     15 H6         1.4808   11.2186   12.9439 H         1 RES1    0.0000
     16 H7         2.9764   11.6871   12.8971 H         1 RES1    0.0000
     17 H8         2.6101   10.2985   13.5206 H         1 RES1    0.0000
     18 C6         3.0467    7.0496    8.8395 C.ar      1 RES1    0.0000
     19 C7         1.9803    6.7715    7.9942 C.ar      1 RES1    0.0000
     20 H9         1.1680    7.2066    8.1183 H         1 RES1    0.0000
     21 C8         2.1172    5.8473    6.9658 C.ar      1 RES1    0.0000
     22 H10        1.4048    5.6777    6.3921 H         1 RES1    0.0000
     23 C9         3.3162    5.1852    6.7990 C.ar      1 RES1    0.0000
     24 H11        3.4026    4.5524    6.1225 H         1 RES1    0.0000
     25 C10        4.3826    5.4502    7.6209 C.ar      1 RES1    0.0000
     26 H12        5.1889    5.0039    7.4988 H         1 RES1    0.0000
     27 C11        4.2548    6.3891    8.6370 C.ar      1 RES1    0.0000
     28 H13        4.9819    6.5772    9.1853 H         1 RES1    0.0000
     29 O2         3.0546   10.1928    6.8498 O.2       2 RES2   -1.0000
     30 N4         4.0356    9.6452    6.2487 N.pl3     2 RES2    1.0000
     31 C12        3.9153    8.6061    5.4542 C.2       2 RES2    0.0000
     32 H14        3.0738    8.2463    5.2884 H         2 RES2    0.0000
     33 C13        5.0797    8.0158    4.8347 C.2       2 RES2    0.0000
     34 N5         6.2727    8.2945    5.2569 N.2       2 RES2    0.0000
     35 N6         6.3185    9.1763    6.3026 N.3       2 RES2    0.0000
     36 H15        7.1288    9.2861    6.4490 H         2 RES2    0.0000
     37 C14        5.3849   10.2701    6.3707 C.3       2 RES2    0.0000
     38 C15        5.5517   11.2733    5.2477 C.3       2 RES2    0.0000
     39 H16        6.4406   11.6358    5.2711 H         2 RES2    0.0000
     40 H17        4.9139   11.9813    5.3545 H         2 RES2    0.0000
     41 H18        5.4061   10.8355    4.4045 H         2 RES2    0.0000
     42 C16        5.5341   10.9100    7.7317 C.3       2 RES2    0.0000
     43 H19        5.3278   10.2643    8.4122 H         2 RES2    0.0000
     44 H20        4.9334   11.6563    7.8029 H         2 RES2    0.0000
     45 H21        6.4375   11.2151    7.8436 H         2 RES2    0.0000
     46 C17        4.9322    7.0242    3.7392 C.ar      2 RES2    0.0000
     47 C18        6.0162    6.7475    2.9194 C.ar      2 RES2    0.0000
     48 H22        6.8132    7.2100    3.0435 H         2 RES2    0.0000
     49 C19        5.9331    5.7947    1.9195 C.ar      2 RES2    0.0000
     50 H23        6.6690    5.6195    1.3783 H         2 RES2    0.0000
     51 C20        4.7556    5.1072    1.7292 C.ar      2 RES2    0.0000
     52 H24        4.6939    4.4635    1.0620 H         2 RES2    0.0000
     53 C21        3.6774    5.3770    2.5257 C.ar      2 RES2    0.0000
     54 H25        2.8800    4.9150    2.3955 H         2 RES2    0.0000
     55 C22        3.7647    6.3313    3.5236 C.ar      2 RES2    0.0000
     56 H26        3.0225    6.5054    4.0556 H         2 RES2    0.0000
     57 O3         3.1749   14.9901    0.6917 O.2       3 RES3   -1.0000
     58 N7         4.1467   15.5521    1.3315 N.pl3     3 RES3    1.0000
     59 C23        4.0296   16.5976    2.0903 C.2       3 RES3    0.0000
     60 H27        3.1890   16.9715    2.2277 H         3 RES3    0.0000
     61 C24        5.1776   17.1876    2.7210 C.2       3 RES3    0.0000
     62 N8         6.3736   16.9191    2.3274 N.2       3 RES3    0.0000
     63 N9         6.4365   16.0206    1.2745 N.3       3 RES3    0.0000
     64 H28        7.2938   15.8770    1.0375 H         3 RES3    0.0000
     65 C25        5.5082   14.9142    1.2196 C.3       3 RES3    0.0000
     66 C26        5.6434   13.9267    2.3650 C.3       3 RES3    0.0000
     67 H29        6.5286   13.5546    2.3640 H         3 RES3    0.0000
     68 H30        5.0000   13.2228    2.2582 H         3 RES3    0.0000
     69 H31        5.4880   14.3789    3.1971 H         3 RES3    0.0000
     70 C27        5.6691   14.2554   -0.1394 C.3       3 RES3    0.0000
     71 H32        5.4271   14.8783   -0.8280 H         3 RES3    0.0000
     72 H33        5.0998   13.4862   -0.1902 H         3 RES3    0.0000
     73 H34        6.5833   13.9856   -0.2574 H         3 RES3    0.0000
     74 C28        4.9898   18.2158    3.7891 C.ar      3 RES3    0.0000
     75 C29        6.0251   19.0835    4.1247 C.ar      3 RES3    0.0000
     76 H35        6.8408   19.0168    3.6843 H         3 RES3    0.0000
     77 C30        5.8567   20.0470    5.1094 C.ar      3 RES3    0.0000
     78 H36        6.5588   20.6141    5.3301 H         3 RES3    0.0000
     79 C31        4.6561   20.1588    5.7533 C.ar      3 RES3    0.0000
     80 H37        4.5442   20.7988    6.4206 H         3 RES3    0.0000
     81 C32        3.6148   19.3294    5.4156 C.ar      3 RES3    0.0000
     82 H38        2.7928   19.4170    5.8428 H         3 RES3    0.0000
     83 C33        3.7908   18.3622    4.4401 C.ar      3 RES3    0.0000
     84 H39        3.0820   17.7992    4.2214 H         3 RES3    0.0000
     85 O4         4.9714   14.9340    5.8265 O.2       4 RES4   -1.0000
     86 N10        3.9947   15.5192    6.4297 N.pl3     4 RES4    1.0000
     87 C34        4.1261   16.5398    7.2302 C.2       4 RES4    0.0000
     88 H40        4.9716   16.8826    7.4093 H         4 RES4    0.0000
     89 C35        2.9703   17.1360    7.8375 C.2       4 RES4    0.0000
     90 N11        1.7890   16.9126    7.3981 N.2       4 RES4    0.0000
     91 N12        1.7286   16.0381    6.3361 N.3       4 RES4    0.0000
     92 H41        0.8800   15.9488    6.0015 H         4 RES4    0.0000
     93 C36        2.6276   14.8998    6.2934 C.3       4 RES4    0.0000
     94 C37        2.4440   13.9076    7.4266 C.3       4 RES4    0.0000
     95 H42        2.5735   14.3550    8.2668 H         4 RES4    0.0000
     96 H43        3.0851   13.1989    7.3381 H         4 RES4    0.0000
     97 H44        1.5565   13.5443    7.3910 H         4 RES4    0.0000
     98 C38        2.4852   14.2530    4.9253 C.3       4 RES4    0.0000
     99 H45        1.5709   13.9958    4.7869 H         4 RES4    0.0000
    100 H46        3.0473   13.4759    4.8785 H         4 RES4    0.0000
    101 H47        2.7469   14.8783    4.2468 H         4 RES4    0.0000
    102 C39        3.1483   18.1375    8.9280 C.ar      4 RES4    0.0000
    103 C40        2.0926   18.4237    9.7712 C.ar      4 RES4    0.0000
    104 H48        1.2792   17.9873    9.6614 H         4 RES4    0.0000
    105 C41        2.2420   19.3698   10.7915 C.ar      4 RES4    0.0000
    106 H49        1.5290   19.5538   11.3591 H         4 RES4    0.0000
    107 C42        3.4402   20.0299   10.9613 C.ar      4 RES4    0.0000
    108 H50        3.5323   20.6654   11.6327 H         4 RES4    0.0000
    109 C43        4.4999   19.7419   10.1323 C.ar      4 RES4    0.0000
    110 H51        5.3149   20.1729   10.2503 H         4 RES4    0.0000
    111 C44        4.3497   18.8013    9.1161 C.ar      4 RES4    0.0000
    112 H52        5.0675   18.6166    8.5546 H         4 RES4    0.0000
@<TRIPOS>BOND
     1    1    2 1
     2    2    3 2
     3    3    4 1
     4    5    3 1
     5    6    5 2
     6    7    6 1
     7    8    7 1
     8    9    2 1
     9   10    9 1
    10   11   10 1
    11   12   10 1
    12   13   10 1
    13   14    9 1
    14   15   14 1
    15   16   14 1
    16   17   14 1
    17   18    5 1
    18   19   18 ar
    19   20   19 1
    20   21   19 ar
    21   22   21 1
    22   23   21 ar
    23   24   23 1
    24   25   23 ar
    25   26   25 1
    26   27   18 ar
    27   28   27 1
    28   29   30 1
    29   30   31 2
    30   31   32 1
    31   33   31 1
    32   34   33 2
    33   35   34 1
    34   36   35 1
    35   37   30 1
    36   38   37 1
    37   39   38 1
    38   40   38 1
    39   41   38 1
    40   42   37 1
    41   43   42 1
    42   44   42 1
    43   45   42 1
    44   46   33 1
    45   47   46 ar
    46   48   47 1
    47   49   47 ar
    48   50   49 1
    49   51   49 ar
    50   52   51 1
    51   53   51 ar
    52   54   53 1
    53   55   46 ar
    54   56   55 1
    55   57   58 1
    56   58   59 2
    57   59   60 1
    58   61   59 1
    59   62   61 2
    60   63   62 1
    61   64   63 1
    62   65   58 1
    63   66   65 1
    64   67   66 1
    65   68   66 1
    66   69   66 1
    67   70   65 1
    68   71   70 1
    69   72   70 1
    70   73   70 1
    71   74   61 1
    72   75   74 ar
    73   76   75 1
    74   77   75 ar
    75   78   77 1
    76   79   77 ar
    77   80   79 1
    78   81   79 ar
    79   82   81 1
    80   83   74 ar
    81   84   83 1
    82   85   86 1
    83   86   87 2
    84   87   88 1
    85   89   87 1
    86   90   89 2
    87   91   90 1
    88   92   91 1
    89   93   86 1
    90   94   93 1
    91   95   94 1
    92   96   94 1
    93   97   94 1
    94   98   93 1
    95   99   98 1
    96  100   98 1
    97  101   98 1
    98  102   89 1
    99  103  102 ar
   100  104  103 1
   101  105  103 ar
   102  106  105 1
   103  107  105 ar
   104  108  107 1
   105  109  107 ar
   106  110  109 1
   107  111  102 ar
   108  112  111 1
   109    7    9 1
   110   25   27 ar
   111   35   37 1
   112   53   55 ar
   113   63   65 1
   114   81   83 ar
   115   91   93 1
   116  109  111 ar
@<TRIPOS>SUBSTRUCTURE
     1 RES1 1
     2 RES2 29
     3 RES3 57
     4 RES4 85

@<TRIPOS>CRYSIN
   5.9648   34.2029   10.1737  90.0000  91.0520  90.0000   4 1

