# MOL2 file generated by ConQuest
# Please check atom types

@<TRIPOS>MOLECULE
SAHFIT
   140   132     5
SMALL
USER_CHARGES
****
Generated from CSD

@<TRIPOS>ATOM
      1 O1        -3.8833   -0.1335   10.3884 O.2       1 RES1   -1.0000
      2 N1        -2.8987    0.7357   10.3518 N.pl3     1 RES1    1.0000
      3 C1        -1.5880    0.2589   10.7778 C.3       1 RES1    0.0000
      4 H1        -1.5638   -0.7221   10.5884 H         1 RES1    0.0000
      5 N2        -0.5878    0.8556    9.9502 N.pl3     1 RES1    0.0000
      6 H2         0.3338    0.4360   10.1075 H         1 RES1    0.0000
      7 N3        -0.6335    2.2670    9.8907 N.2       1 RES1    0.0000
      8 C2        -1.8496    2.7956    9.9090 C.2       1 RES1    0.0000
      9 C3        -3.0125    1.9891   10.0296 C.2       1 RES1    0.0000
     10 H3        -3.8718    2.3651    9.8739 H         1 RES1    0.0000
     11 C4        -1.9719    4.2670    9.7731 C.ar      1 RES1    0.0000
     12 C5        -0.9278    5.1063   10.1579 C.ar      1 RES1    0.0000
     13 H4        -0.1263    4.7330   10.5075 H         1 RES1    0.0000
     14 C6        -1.0579    6.4959   10.0327 C.ar      1 RES1    0.0000
     15 H5        -0.3575    7.0736   10.3090 H         1 RES1    0.0000
     16 C7        -2.2388    7.0191    9.4952 C.ar      1 RES1    0.0000
     17 H6        -2.3410    7.9591    9.4311 H         1 RES1    0.0000
     18 C8        -3.2337    6.2098    9.0647 C.ar      1 RES1    0.0000
     19 H7        -4.0112    6.5722    8.6586 H         1 RES1    0.0000
     20 C9        -3.0871    4.8392    9.2281 C.ar      1 RES1    0.0000
     21 H8        -3.7985    4.2725    8.9517 H         1 RES1    0.0000
     22 C10       -1.4125    0.4169   12.2985 C.ar      1 RES1    0.0000
     23 N4        -2.3798    1.0545   12.9336 N.ar      1 RES1    0.0000
     24 C11       -2.2044    1.1798   14.2894 C.ar      1 RES1    0.0000
     25 H9        -2.8843    1.6294   14.7765 H         1 RES1    0.0000
     26 C12       -1.1458    0.7193   14.9887 C.ar      1 RES1    0.0000
     27 H10       -1.0825    0.8556   15.9262 H         1 RES1    0.0000
     28 C13       -0.1513    0.0381   14.2986 C.ar      1 RES1    0.0000
     29 H11        0.6221   -0.2861   14.7475 H         1 RES1    0.0000
     30 C14       -0.3169   -0.1526   12.9535 C.ar      1 RES1    0.0000
     31 H12        0.3124   -0.6703   12.4649 H         1 RES1    0.0000
     32 O2        -1.1035   24.4823    9.5273 O.2       2 RES2   -1.0000
     33 N5        -0.1348   23.5968    9.6006 N.pl3     2 RES2    1.0000
     34 C15        1.1710   24.0736   10.0709 C.3       2 RES2    0.0000
     35 H13        1.2180   25.0545    9.8846 H         2 RES2    0.0000
     36 N6         2.1543   23.4142    9.2097 N.pl3     2 RES2    0.0000
     37 H14        3.0484   23.8692    9.3899 H         2 RES2    0.0000
     38 N7         2.0901   22.0355    9.1487 N.2       2 RES2    0.0000
     39 C16        0.9115   21.5395    9.1929 C.2       2 RES2    0.0000
     40 C17       -0.2567   22.3352    9.2448 C.2       2 RES2    0.0000
     41 H15       -1.1084   21.9701    9.0265 H         2 RES2    0.0000
     42 C18        0.7806   20.0327    9.0433 C.ar      2 RES2    0.0000
     43 C19        1.8468   19.2834    8.5730 C.ar      2 RES2    0.0000
     44 H16        2.6625   19.7167    8.3532 H         2 RES2    0.0000
     45 C20        1.7400   17.8965    8.4158 C.ar      2 RES2    0.0000
     46 H17        2.4615   17.3951    8.0539 H         2 RES2    0.0000
     47 C21        0.5415   17.2616    8.8036 C.ar      2 RES2    0.0000
     48 H18        0.4429   16.3216    8.7059 H         2 RES2    0.0000
     49 C22       -0.4935   18.0109    9.3258 C.ar      2 RES2    0.0000
     50 H19       -1.2911   17.5722    9.5914 H         2 RES2    0.0000
     51 C23       -0.3971   19.4088    9.4754 C.ar      2 RES2    0.0000
     52 H20       -1.1069   19.9101    9.8571 H         2 RES2    0.0000
     53 C24        1.2997   23.8883   11.5381 C.ar      2 RES2    0.0000
     54 N8         0.2866   23.4278   12.2038 N.ar      2 RES2    0.0000
     55 C25        0.4650   23.3107   13.5627 C.ar      2 RES2    0.0000
     56 H21       -0.2341   22.8992   14.0558 H         2 RES2    0.0000
     57 C26        1.5408   23.7276   14.2635 C.ar      2 RES2    0.0000
     58 H22        1.5871   23.6703   15.2116 H         2 RES2    0.0000
     59 C27        2.5715   24.2453   13.5016 C.ar      2 RES2    0.0000
     60 H23        3.3702   24.5423   13.9230 H         2 RES2    0.0000
     61 C28        2.4427   24.3325   12.1473 C.ar      2 RES2    0.0000
     62 H24        3.1487   24.7003   11.6251 H         2 RES2    0.0000
     63 O3         6.9367   16.3597    5.0950 O.2       3 RES3   -1.0000
     64 N9         5.9837   17.2398    5.0782 N.pl3     3 RES3    1.0000
     65 C29        4.6739   16.7493    4.5911 C.3       3 RES3    0.0000
     66 H25        4.6023   15.7711    4.7835 H         3 RES3    0.0000
     67 N10        3.6872   17.4387    5.3423 N.pl3     3 RES3    0.0000
     68 H26        2.7212   17.1117    5.3896 H         3 RES3    0.0000
     69 N11        3.7033   18.7902    5.4431 N.2       3 RES3    0.0000
     70 C30        4.9031   19.3488    5.3851 C.2       3 RES3    0.0000
     71 C31        6.0918   18.4987    5.3469 C.2       3 RES3    0.0000
     72 H27        6.9478   18.8720    5.5179 H         3 RES3    0.0000
     73 C32        5.0262   20.7875    5.5133 C.ar      3 RES3    0.0000
     74 C33        6.1987   21.4578    5.1469 C.ar      3 RES3    0.0000
     75 H28        6.9398   20.9592    4.8232 H         3 RES3    0.0000
     76 C34        6.2938   22.8202    5.2477 C.ar      3 RES3    0.0000
     77 H29        7.0924   23.2589    4.9759 H         3 RES3    0.0000
     78 C35        5.2653   23.5423    5.7332 C.ar      3 RES3    0.0000
     79 H30        5.3372   24.4878    5.7897 H         3 RES3    0.0000
     80 C36        4.1218   22.9237    6.1408 C.ar      3 RES3    0.0000
     81 H31        3.4017   23.4415    6.4844 H         3 RES3    0.0000
     82 C37        4.0017   21.5668    6.0584 C.ar      3 RES3    0.0000
     83 H32        3.2120   21.1444    6.3760 H         3 RES3    0.0000
     84 C38        4.5250   16.9755    3.0429 C.ar      3 RES3    0.0000
     85 N12        5.5722   17.5041    2.3528 N.ar      3 RES3    0.0000
     86 C39        5.4306   17.6131    1.0275 C.ar      3 RES3    0.0000
     87 H33        6.1585   17.9483    0.5176 H         3 RES3    0.0000
     88 C40        4.2930   17.2616    0.3848 C.ar      3 RES3    0.0000
     89 H34        4.2296   17.4060   -0.5527 H         3 RES3    0.0000
     90 C41        3.2127   16.7003    1.0566 C.ar      3 RES3    0.0000
     91 H35        2.4406   16.3978    0.5939 H         3 RES3    0.0000
     92 C42        3.3178   16.6049    2.4490 C.ar      3 RES3    0.0000
     93 H36        2.5896   16.2970    2.9742 H         3 RES3    0.0000
     94 O4         4.0044   13.5450    3.6979 O.2       4 RES4   -1.0000
     95 N13        3.0794   12.7848    4.2598 N.pl3     4 RES4    1.0000
     96 C43        1.8927   13.4605    4.8782 C.3       4 RES4    0.0000
     97 H37        1.7695   14.3651    4.4705 H         4 RES4    0.0000
     98 N14        0.7585   12.6213    4.5728 N.pl3     4 RES4    0.0000
     99 H38       -0.1768   13.0245    4.5652 H         4 RES4    0.0000
    100 N15        0.7215   11.3025    4.6827 N.2       4 RES4    0.0000
    101 C44        1.8985   10.7630    4.6476 C.2       4 RES4    0.0000
    102 C45        3.0788   11.5177    4.3957 C.2       4 RES4    0.0000
    103 H39        3.9079   11.0545    4.3285 H         4 RES4    0.0000
    104 C46        2.0057    9.2943    4.8553 C.ar      4 RES4    0.0000
    105 C47        0.9596    8.4632    4.4293 C.ar      4 RES4    0.0000
    106 H40        0.1850    8.8311    4.0201 H         4 RES4    0.0000
    107 C48        1.0734    7.1117    4.6125 C.ar      4 RES4    0.0000
    108 H41        0.3534    6.5504    4.3514 H         4 RES4    0.0000
    109 C49        2.1889    6.5422    5.1560 C.ar      4 RES4    0.0000
    110 H42        2.2397    5.6022    5.2690 H         4 RES4    0.0000
    111 C50        3.2553    7.3679    5.5469 C.ar      4 RES4    0.0000
    112 H43        4.0409    6.9809    5.9133 H         4 RES4    0.0000
    113 C51        3.1697    8.7085    5.4019 C.ar      4 RES4    0.0000
    114 H44        3.8969    9.2616    5.6691 H         4 RES4    0.0000
    115 C52        2.1452   13.5913    6.3012 C.ar      4 RES4    0.0000
    116 N16        3.3842   14.0600    6.6096 N.ar      4 RES4    0.0000
    117 C53        3.6565   14.2398    7.9074 C.ar      4 RES4    0.0000
    118 H45        4.5153   14.5668    8.1516 H         4 RES4    0.0000
    119 C54        2.7575   13.9782    8.8845 C.ar      4 RES4    0.0000
    120 H46        3.0068   14.1254    9.7899 H         4 RES4    0.0000
    121 C55        1.4845   13.4987    8.6021 C.ar      4 RES4    0.0000
    122 H47        0.8565   13.3161    9.2922 H         4 RES4    0.0000
    123 C56        1.1685   13.2997    7.2539 C.ar      4 RES4    0.0000
    124 H48        0.3148   12.9755    6.9943 H         4 RES4    0.0000
    125 O5         3.8515   13.7357    4.2964 Du        5 SUP5    0.0000
    126 N17        2.9223   12.7875    4.3209 Du        5 SUP5    0.0000
    127 C57        1.6714   13.4769    3.8476 Du        5 SUP5    0.0000
    128 H49        1.5510   14.4169    4.1636 Du        5 SUP5    0.0000
    129 N18        0.6113   12.5423    4.2140 Du        5 SUP5    0.0000
    130 H50       -0.2941   12.6703    3.7407 Du        5 SUP5    0.0000
    131 C58        1.5030   13.2698    2.3864 Du        5 SUP5    0.0000
    132 N19        2.4292   12.5014    1.6856 Du        5 SUP5    0.0000
    133 C59        2.2611   12.2888    0.3222 Du        5 SUP5    0.0000
    134 H51        2.8943   11.7657   -0.1557 Du        5 SUP5    0.0000
    135 C60        1.1726   12.8420   -0.3405 Du        5 SUP5    0.0000
    136 H52        1.0604   12.6948   -1.2734 Du        5 SUP5    0.0000
    137 C61        0.2467   13.6077    0.3588 Du        5 SUP5    0.0000
    138 H53       -0.4951   13.9864   -0.0931 Du        5 SUP5    0.0000
    139 C62        0.4148   13.8229    1.7222 Du        5 SUP5    0.0000
    140 H54       -0.2169   14.3461    2.2017 Du        5 SUP5    0.0000
@<TRIPOS>BOND
     1    1    2 1
     2    2    3 1
     3    3    4 1
     4    5    3 1
     5    6    5 1
     6    7    5 1
     7    8    7 2
     8    9    2 2
     9   10    9 1
    10   11    8 1
    11   12   11 ar
    12   13   12 1
    13   14   12 ar
    14   15   14 1
    15   16   14 ar
    16   17   16 1
    17   18   16 ar
    18   19   18 1
    19   20   11 ar
    20   21   20 1
    21   22    3 1
    22   23   22 ar
    23   24   23 ar
    24   25   24 1
    25   26   24 ar
    26   27   26 1
    27   28   26 ar
    28   29   28 1
    29   30   22 ar
    30   31   30 1
    31   32   33 1
    32   33   34 1
    33   34   35 1
    34   36   34 1
    35   37   36 1
    36   38   36 1
    37   39   38 2
    38   40   33 2
    39   41   40 1
    40   42   39 1
    41   43   42 ar
    42   44   43 1
    43   45   43 ar
    44   46   45 1
    45   47   45 ar
    46   48   47 1
    47   49   47 ar
    48   50   49 1
    49   51   42 ar
    50   52   51 1
    51   53   34 1
    52   54   53 ar
    53   55   54 ar
    54   56   55 1
    55   57   55 ar
    56   58   57 1
    57   59   57 ar
    58   60   59 1
    59   61   53 ar
    60   62   61 1
    61   63   64 1
    62   64   65 1
    63   65   66 1
    64   67   65 1
    65   68   67 1
    66   69   67 1
    67   70   69 2
    68   71   64 2
    69   72   71 1
    70   73   70 1
    71   74   73 ar
    72   75   74 1
    73   76   74 ar
    74   77   76 1
    75   78   76 ar
    76   79   78 1
    77   80   78 ar
    78   81   80 1
    79   82   73 ar
    80   83   82 1
    81   84   65 1
    82   85   84 ar
    83   86   85 ar
    84   87   86 1
    85   88   86 ar
    86   89   88 1
    87   90   88 ar
    88   91   90 1
    89   92   84 ar
    90   93   92 1
    91   94   95 1
    92   95   96 1
    93   96   97 1
    94   98   96 1
    95   99   98 1
    96  100   98 1
    97  101  100 2
    98  102   95 2
    99  103  102 1
   100  104  101 1
   101  105  104 ar
   102  106  105 1
   103  107  105 ar
   104  108  107 1
   105  109  107 ar
   106  110  109 1
   107  111  109 ar
   108  112  111 1
   109  113  104 ar
   110  114  113 1
   111  115   96 1
   112  116  115 ar
   113  117  116 ar
   114  118  117 1
   115  119  117 ar
   116  120  119 1
   117  121  119 ar
   118  122  121 1
   119  123  115 ar
   120  124  123 1
   121    8    9 1
   122   18   20 ar
   123   28   30 ar
   124   39   40 1
   125   49   51 ar
   126   59   61 ar
   127   70   71 1
   128   80   82 ar
   129   90   92 ar
   130  101  102 1
   131  111  113 ar
   132  121  123 ar
@<TRIPOS>SUBSTRUCTURE
     1 RES1 1
     2 RES2 32
     3 RES3 63
     4 RES4 94
     5 SUP5 125

