# MOL2 file generated by ConQuest
# Please check atom types

@<TRIPOS>MOLECULE
SAHFAL
    70    72     2
SMALL
NO_CHARGES
****
Generated from CSD

@<TRIPOS>ATOM
      1 C1         3.2145    7.1917    9.8090 C.ar      1 RES1    0.0000
      2 H1         2.6370    6.7520   10.3896 H         1 RES1    0.0000
      3 C2         3.3940    8.5574    9.9206 C.ar      1 RES1    0.0000
      4 H2         2.9560    9.0261   10.5946 H         1 RES1    0.0000
      5 C3         4.2086    9.2235    9.0522 C.ar      1 RES1    0.0000
      6 H3         4.3140   10.1440    9.1257 H         1 RES1    0.0000
      7 C4         4.8659    8.5378    8.0773 C.ar      1 RES1    0.0000
      8 H4         5.4162    8.9942    7.4822 H         1 RES1    0.0000
      9 C5         4.7210    7.1577    7.9621 C.ar      1 RES1    0.0000
     10 H5         5.1796    6.6946    7.2995 H         1 RES1    0.0000
     11 C6         3.8916    6.4756    8.8367 C.ar      1 RES1    0.0000
     12 C7         3.7902    4.9989    8.7418 C.2       1 RES1    0.0000
     13 C8         2.5052    4.3205    8.8923 C.2       1 RES1    0.0000
     14 H6         2.4843    3.4159    9.1047 H         1 RES1    0.0000
     15 N1         1.4193    4.9525    8.7357 N.2       1 RES1    0.0000
     16 O1         0.3383    4.1065    8.8819 O.3       1 RES1    0.0000
     17 H7        -0.4103    4.5545    8.7316 H         1 RES1    0.0000
     18 N2         4.8880    4.3454    8.5345 N.2       1 RES1    0.0000
     19 N3         4.7169    2.9607    8.3606 N.2       1 RES1    0.0000
     20 C9         5.8148    2.3185    8.3623 C.2       1 RES1    0.0000
     21 H8         6.6111    2.7844    8.4780 H         1 RES1    0.0000
     22 C10        5.8584    0.8747    8.1879 C.ar      1 RES1    0.0000
     23 C11        4.7111    0.1108    8.0877 C.ar      1 RES1    0.0000
     24 H9         3.8789    0.5231    8.1404 H         1 RES1    0.0000
     25 C12        4.7850   -1.2518    7.9105 C.ar      1 RES1    0.0000
     26 H10        3.9980   -1.7414    7.8421 H         1 RES1    0.0000
     27 C13        5.9862   -1.9071    7.8320 C.ar      1 RES1    0.0000
     28 C14        7.1296   -1.1472    7.9539 C.ar      1 RES1    0.0000
     29 H11        7.9594   -1.5676    7.9183 H         1 RES1    0.0000
     30 C15        7.0751    0.2261    8.1271 C.ar      1 RES1    0.0000
     31 H12        7.8633    0.7144    8.2034 H         1 RES1    0.0000
     32 C16        6.0387   -3.4085    7.6516 C.3       1 RES1    0.0000
     33 H13        6.8355   -3.6455    7.1695 H         1 RES1    0.0000
     34 H14        5.2684   -3.6981    7.1576 H         1 RES1    0.0000
     35 H15        6.0475   -3.8353    8.5109 H         1 RES1    0.0000
     36 C17       -3.7558    2.5955    9.7210 C.ar      2 RES2    0.0000
     37 H16       -4.2992    3.0507   10.3226 H         2 RES2    0.0000
     38 C18       -3.6144    1.2241    9.8243 C.ar      2 RES2    0.0000
     39 H17       -4.0442    0.7671   10.5105 H         2 RES2    0.0000
     40 C19       -2.8503    0.5344    8.9287 C.ar      2 RES2    0.0000
     41 H18       -2.7691   -0.3891    8.9996 H         2 RES2    0.0000
     42 C20       -2.2052    1.2062    7.9291 C.ar      2 RES2    0.0000
     43 H19       -1.6913    0.7368    7.3114 H         2 RES2    0.0000
     44 C21       -2.3121    2.5802    7.8312 C.ar      2 RES2    0.0000
     45 H20       -1.8556    3.0299    7.1576 H         2 RES2    0.0000
     46 C22       -3.0914    3.2956    8.7244 C.ar      2 RES2    0.0000
     47 C23       -3.1679    4.7771    8.6245 C.2       2 RES2    0.0000
     48 C24       -4.4433    5.4667    8.8002 C.2       2 RES2    0.0000
     49 H21       -4.4535    6.3884    8.9221 H         2 RES2    0.0000
     50 N4        -5.5339    4.8289    8.7890 N.2       2 RES2    0.0000
     51 O2        -6.6043    5.6856    8.9580 O.3       2 RES2    0.0000
     52 H22       -7.3682    5.2195    8.9193 H         2 RES2    0.0000
     53 N5        -2.0647    5.4070    8.3922 N.2       2 RES2    0.0000
     54 N6        -2.2109    6.7943    8.2451 N.2       2 RES2    0.0000
     55 C25       -1.1047    7.4057    8.1483 C.2       2 RES2    0.0000
     56 H23       -0.3149    6.9163    8.1719 H         2 RES2    0.0000
     57 C26       -1.0376    8.8521    8.0016 C.ar      2 RES2    0.0000
     58 C27       -2.1810    9.6431    7.9717 C.ar      2 RES2    0.0000
     59 H24       -3.0189    9.2445    8.0340 H         2 RES2    0.0000
     60 C28       -2.0814   11.0086    7.8504 C.ar      2 RES2    0.0000
     61 H25       -2.8579   11.5218    7.8487 H         2 RES2    0.0000
     62 C29       -0.8557   11.6411    7.7299 C.ar      2 RES2    0.0000
     63 C30        0.2719   10.8566    7.7637 C.ar      2 RES2    0.0000
     64 H26        1.1083   11.2587    7.6911 H         2 RES2    0.0000
     65 C31        0.1911    9.4829    7.9032 C.ar      2 RES2    0.0000
     66 H27        0.9710    8.9766    7.9315 H         2 RES2    0.0000
     67 C32       -0.7828   13.1337    7.5486 C.3       2 RES2    0.0000
     68 H28        0.1338   13.3972    7.4349 H         2 RES2    0.0000
     69 H29       -1.1465   13.5678    8.3230 H         2 RES2    0.0000
     70 H30       -1.2875   13.3876    6.7727 H         2 RES2    0.0000
@<TRIPOS>BOND
     1    1    2 1
     2    3    1 ar
     3    4    3 1
     4    5    3 ar
     5    6    5 1
     6    7    5 ar
     7    8    7 1
     8    9    7 ar
     9   10    9 1
    10   11    1 ar
    11   12   11 1
    12   13   12 1
    13   14   13 1
    14   15   13 2
    15   16   15 1
    16   17   16 1
    17   18   12 2
    18   19   18 1
    19   20   19 2
    20   21   20 1
    21   22   20 1
    22   23   22 ar
    23   24   23 1
    24   25   23 ar
    25   26   25 1
    26   27   25 ar
    27   28   27 ar
    28   29   28 1
    29   30   22 ar
    30   31   30 1
    31   32   27 1
    32   33   32 1
    33   34   32 1
    34   35   32 1
    35   36   37 1
    36   38   36 ar
    37   39   38 1
    38   40   38 ar
    39   41   40 1
    40   42   40 ar
    41   43   42 1
    42   44   42 ar
    43   45   44 1
    44   46   36 ar
    45   47   46 1
    46   48   47 1
    47   49   48 1
    48   50   48 2
    49   51   50 1
    50   52   51 1
    51   53   47 2
    52   54   53 1
    53   55   54 2
    54   56   55 1
    55   57   55 1
    56   58   57 ar
    57   59   58 1
    58   60   58 ar
    59   61   60 1
    60   62   60 ar
    61   63   62 ar
    62   64   63 1
    63   65   57 ar
    64   66   65 1
    65   67   62 1
    66   68   67 1
    67   69   67 1
    68   70   67 1
    69    9   11 ar
    70   28   30 ar
    71   44   46 ar
    72   63   65 ar
@<TRIPOS>SUBSTRUCTURE
     1 RES1 1
     2 RES2 36

@<TRIPOS>CRYSIN
  13.9058   15.9471   14.5652  90.0000 115.5750  90.0000  14 1

