# MOL2 file generated by ConQuest
# Please check atom types

@<TRIPOS>MOLECULE
SAHFEP
    33    34     1
SMALL
NO_CHARGES
****
Generated from CSD

@<TRIPOS>ATOM
      1 O1         4.8868    6.6041    0.5770 O.3       1 RES1    0.0000
      2 H1         4.9112    7.4208    0.6402 H         1 RES1    0.0000
      3 C1         6.1366    6.1152    0.6089 C.ar      1 RES1    0.0000
      4 C2         6.3029    4.7285    0.6049 C.ar      1 RES1    0.0000
      5 H2         5.5555    4.1733    0.5824 H         1 RES1    0.0000
      6 C3         7.5484    4.1834    0.6327 C.ar      1 RES1    0.0000
      7 H3         7.6458    3.2591    0.6497 H         1 RES1    0.0000
      8 C4         8.6729    4.9917    0.6361 C.ar      1 RES1    0.0000
      9 H4         9.5204    4.6100    0.6320 H         1 RES1    0.0000
     10 C5         8.5301    6.3587    0.6450 C.ar      1 RES1    0.0000
     11 H5         9.2866    6.8984    0.6538 H         1 RES1    0.0000
     12 C6         7.2608    6.9483    0.6422 C.ar      1 RES1    0.0000
     13 C7         7.1525    8.3915    0.6436 C.2       1 RES1    0.0000
     14 H6         7.9256    8.9081    0.6565 H         1 RES1    0.0000
     15 N1         6.0060    8.9714    0.6266 N.2       1 RES1    0.0000
     16 N2         6.0845   10.3689    0.5852 N.2       1 RES1    0.0000
     17 C8         4.9527   10.9708    0.4479 C.2       1 RES1    0.0000
     18 C9         5.0057   12.4625    0.3976 C.ar      1 RES1    0.0000
     19 C10        5.5903   13.1830    1.3810 C.ar      1 RES1    0.0000
     20 H7         5.9202   12.7462    2.1327 H         1 RES1    0.0000
     21 C11        5.7058   14.5702    1.2865 C.ar      1 RES1    0.0000
     22 H8         6.0788   15.0563    1.9859 H         1 RES1    0.0000
     23 C12        5.2703   15.2029    0.1747 C.ar      1 RES1    0.0000
     24 H9         5.3510   16.1272    0.1047 H         1 RES1    0.0000
     25 C13        4.7136   14.4889   -0.8482 C.ar      1 RES1    0.0000
     26 H10        4.4408   14.9286   -1.6209 H         1 RES1    0.0000
     27 C14        4.5535   13.1191   -0.7442 C.ar      1 RES1    0.0000
     28 H11        4.1472   12.6403   -1.4306 H         1 RES1    0.0000
     29 C15        3.6846   10.2653    0.2929 C.2       1 RES1    0.0000
     30 H12        3.6879    9.3609    0.0761 H         1 RES1    0.0000
     31 N3         2.5786   10.8663    0.4506 N.2       1 RES1    0.0000
     32 O2         1.5235    9.9989    0.2773 O.3       1 RES1    0.0000
     33 H13        0.8197   10.3882    0.4377 H         1 RES1    0.0000
@<TRIPOS>BOND
     1    1    2 1
     2    3    1 1
     3    4    3 ar
     4    5    4 1
     5    6    4 ar
     6    7    6 1
     7    8    6 ar
     8    9    8 1
     9   10    8 ar
    10   11   10 1
    11   12    3 ar
    12   13   12 1
    13   14   13 1
    14   15   13 2
    15   16   15 1
    16   17   16 2
    17   18   17 1
    18   19   18 ar
    19   20   19 1
    20   21   19 ar
    21   22   21 1
    22   23   21 ar
    23   24   23 1
    24   25   23 ar
    25   26   25 1
    26   27   18 ar
    27   28   27 1
    28   29   17 1
    29   30   29 1
    30   31   29 2
    31   32   31 1
    32   33   32 1
    33   10   12 ar
    34   25   27 ar
@<TRIPOS>SUBSTRUCTURE
     1 RES1 1

@<TRIPOS>CRYSIN
  13.9167   14.5107    6.7962  90.0000  90.0000  90.0000  33 1

