# MOL2 file generated by ConQuest
# Please check atom types

@<TRIPOS>MOLECULE
SAHHUG
    49    51     1
SMALL
NO_CHARGES
****
Generated from CSD

@<TRIPOS>ATOM
      1 O1         3.6685    1.9233    2.0910 O.2       1 RES1    0.0000
      2 O2         2.9373    4.3331    6.0330 O.3       1 RES1    0.0000
      3 O3         3.2781    2.1732    7.4890 O.2       1 RES1    0.0000
      4 O4         4.5155   -0.0332    3.5421 O.3       1 RES1    0.0000
      5 O5        -1.3015    3.0925    2.4048 O.2       1 RES1    0.0000
      6 O6        -1.6071    2.9014    0.2996 O.2       1 RES1    0.0000
      7 N1        -1.3400    2.4250    1.3799 N.pl3     1 RES1    0.0000
      8 C1         3.6319    0.9860    5.4828 C.2       1 RES1    0.0000
      9 C2         4.5082    0.1492    4.8280 C.2       1 RES1    0.0000
     10 C3         5.5584   -0.6248    5.5585 C.3       1 RES1    0.0000
     11 C4         5.1068   -0.9738    6.9528 C.3       1 RES1    0.0000
     12 C5         4.6663    0.2661    7.6965 C.3       1 RES1    0.0000
     13 C6         3.8161    1.1963    6.8822 C.2       1 RES1    0.0000
     14 C7         3.0684    4.2226    4.7358 C.2       1 RES1    0.0000
     15 C8         3.3539    5.5184    4.0391 C.3       1 RES1    0.0000
     16 C9         2.9643    5.4852    2.6038 C.3       1 RES1    0.0000
     17 C10        3.5728    4.2819    1.9214 C.3       1 RES1    0.0000
     18 C11        3.3991    3.0027    2.7020 C.2       1 RES1    0.0000
     19 C12        2.9797    3.0271    4.0536 C.2       1 RES1    0.0000
     20 C13        2.5297    1.7618    4.7796 C.3       1 RES1    0.0000
     21 C14        1.6207    0.8691    3.9530 C.2       1 RES1    0.0000
     22 C15        0.6835    1.2513    3.1797 C.2       1 RES1    0.0000
     23 C16       -0.2463    0.4337    2.3919 C.ar      1 RES1    0.0000
     24 C17       -0.2002   -0.9642    2.4431 C.ar      1 RES1    0.0000
     25 C18       -0.9971   -1.7470    1.6330 C.ar      1 RES1    0.0000
     26 C19       -1.8565   -1.1719    0.7329 C.ar      1 RES1    0.0000
     27 C20       -1.9344    0.1859    0.6444 C.ar      1 RES1    0.0000
     28 C21       -1.1548    0.9642    1.4781 C.ar      1 RES1    0.0000
     29 H1         2.9622    3.5882    6.3756 H         1 RES1    0.0000
     30 H2         4.1274    0.5890    3.1747 H         1 RES1    0.0000
     31 H3         6.3720   -0.0977    5.6063 H         1 RES1    0.0000
     32 H4         5.7569   -1.4389    5.0706 H         1 RES1    0.0000
     33 H5         4.3691   -1.6030    6.9061 H         1 RES1    0.0000
     34 H6         5.8350   -1.3988    7.4339 H         1 RES1    0.0000
     35 H7         4.1685   -0.0026    8.4842 H         1 RES1    0.0000
     36 H8         5.4544    0.7470    7.9958 H         1 RES1    0.0000
     37 H9         2.8692    6.2322    4.4850 H         1 RES1    0.0000
     38 H10        4.3013    5.7139    4.1069 H         1 RES1    0.0000
     39 H11        3.2671    6.2959    2.1664 H         1 RES1    0.0000
     40 H12        1.9975    5.4460    2.5314 H         1 RES1    0.0000
     41 H13        3.1645    4.1754    1.0477 H         1 RES1    0.0000
     42 H14        4.5199    4.4425    1.7856 H         1 RES1    0.0000
     43 H15        1.9585    2.0873    5.5065 H         1 RES1    0.0000
     44 H16        1.7249   -0.0087    4.1804 H         1 RES1    0.0000
     45 H17        0.6267    2.1903    3.0250 H         1 RES1    0.0000
     46 H18        0.3834   -1.3761    3.0381 H         1 RES1    0.0000
     47 H19       -0.9496   -2.6737    1.6989 H         1 RES1    0.0000
     48 H20       -2.3850   -1.7068    0.1838 H         1 RES1    0.0000
     49 H21       -2.5064    0.5846    0.0289 H         1 RES1    0.0000
@<TRIPOS>BOND
     1    1   18 2
     2    2   14 1
     3    3   13 2
     4    4    9 1
     5    5    7 2
     6    6    7 2
     7    7   28 1
     8    8    9 2
     9    9   10 1
    10   10   11 1
    11   11   12 1
    12   12   13 1
    13   13    8 1
    14   14   15 1
    15   15   16 1
    16   16   17 1
    17   17   18 1
    18   18   19 1
    19   19   14 2
    20   20    8 1
    21   21   20 1
    22   22   21 2
    23   23   22 1
    24   24   23 ar
    25   25   24 ar
    26   26   25 ar
    27   27   26 ar
    28   28   23 ar
    29   29    2 1
    30   30    4 1
    31   31   10 1
    32   32   10 1
    33   33   11 1
    34   34   11 1
    35   35   12 1
    36   36   12 1
    37   37   15 1
    38   38   15 1
    39   39   16 1
    40   40   16 1
    41   41   17 1
    42   42   17 1
    43   43   20 1
    44   44   21 1
    45   45   22 1
    46   46   24 1
    47   47   25 1
    48   48   26 1
    49   49   27 1
    50   19   20 1
    51   27   28 ar
@<TRIPOS>SUBSTRUCTURE
     1 RES1 1

@<TRIPOS>CRYSIN
   8.0785    8.7261   26.2616  90.0000  90.8290  90.0000 231 1

