# MOL2 file generated by ConQuest
# Please check atom types

@<TRIPOS>MOLECULE
SAHPEW
    54    57     1
SMALL
NO_CHARGES
****
Generated from CSD

@<TRIPOS>ATOM
      1 O1        12.7789    4.3021    2.8054 O.3       1 RES1    0.0000
      2 O2        10.7627    3.5527    1.9688 O.3       1 RES1    0.0000
      3 C1        11.4021    4.1106    3.0795 C.3       1 RES1    0.0000
      4 O3        10.7973    1.9038    3.5026 O.3       1 RES1    0.0000
      5 C2        11.3021    3.0428    4.1789 C.3       1 RES1    0.0000
      6 O4        13.0736    3.7749    5.6093 O.3       1 RES1    0.0000
      7 C3        12.7411    2.8042    4.5980 C.3       1 RES1    0.0000
      8 C4        13.5142    3.1746    3.3303 C.3       1 RES1    0.0000
      9 O5        15.7213    2.4214    3.8423 O.3       1 RES1    0.0000
     10 C5        14.9506    3.6037    3.4898 C.3       1 RES1    0.0000
     11 C6        15.5905    4.1087    2.1948 C.3       1 RES1    0.0000
     12 C7        16.7948    3.2294    2.1083 C.2       1 RES1    0.0000
     13 N1        16.8549    2.3203    2.9833 N.2       1 RES1    0.0000
     14 C8        17.8540    3.4161    1.0746 C.ar      1 RES1    0.0000
     15 C9        17.7690    2.8013   -0.1755 C.ar      1 RES1    0.0000
     16 C10       18.7481    3.0784   -1.1227 C.ar      1 RES1    0.0000
     17 C11       19.8026    3.9182   -0.8614 C.ar      1 RES1    0.0000
     18 C12       19.8494    4.5445    0.3614 C.ar      1 RES1    0.0000
     19 C13       18.8896    4.2944    1.3406 C.ar      1 RES1    0.0000
     20 C14       16.6255    1.8769   -0.5161 C.3       1 RES1    0.0000
     21 C15       20.8751    4.1857   -1.8935 C.3       1 RES1    0.0000
     22 C16       18.9906    5.0255    2.6412 C.3       1 RES1    0.0000
     23 O6        12.5120    2.2626    7.1879 O.2       1 RES1    0.0000
     24 N2        12.8439    4.4300    7.7119 N.am      1 RES1    0.0000
     25 C17       12.7785    3.3911    6.8882 C.2       1 RES1    0.0000
     26 C18       10.0950    2.3415    2.3383 C.3       1 RES1    0.0000
     27 C19       10.2832    1.3295    1.2493 C.3       1 RES1    0.0000
     28 C20        8.6733    2.6282    2.6355 C.3       1 RES1    0.0000
     29 H1        11.0071    5.0505    3.3736 H         1 RES1    0.0000
     30 H2        10.7498    3.3285    5.0002 H         1 RES1    0.0000
     31 H3        12.9241    1.8663    4.8720 H         1 RES1    0.0000
     32 H4        13.5055    2.4242    2.6444 H         1 RES1    0.0000
     33 H5        14.9642    4.3098    4.2470 H         1 RES1    0.0000
     34 H6        15.8217    5.1178    2.2197 H         1 RES1    0.0000
     35 H7        14.9594    4.0212    1.3783 H         1 RES1    0.0000
     36 H8        18.7083    2.5493   -2.0514 H         1 RES1    0.0000
     37 H9        20.5968    5.2621    0.5289 H         1 RES1    0.0000
     38 H10       16.4925    1.4334   -1.3703 H         1 RES1    0.0000
     39 H11       15.7412    2.3858   -0.3205 H         1 RES1    0.0000
     40 H12       16.6656    1.1352    0.2003 H         1 RES1    0.0000
     41 H13       20.8595    3.6941   -2.8287 H         1 RES1    0.0000
     42 H14       21.8042    3.9634   -1.5546 H         1 RES1    0.0000
     43 H15       20.9094    5.1659   -2.1796 H         1 RES1    0.0000
     44 H16       19.7306    5.7047    2.8848 H         1 RES1    0.0000
     45 H17       19.0745    4.3290    3.3736 H         1 RES1    0.0000
     46 H18       18.1376    5.5411    2.8207 H         1 RES1    0.0000
     47 H19       12.6758    4.2520    8.7024 H         1 RES1    0.0000
     48 H20       13.1076    5.4545    7.5725 H         1 RES1    0.0000
     49 H21        9.7979    0.4618    1.4584 H         1 RES1    0.0000
     50 H22       11.2545    1.1255    1.1058 H         1 RES1    0.0000
     51 H23        9.9077    1.6546    0.3446 H         1 RES1    0.0000
     52 H24        8.1383    1.7893    2.9008 H         1 RES1    0.0000
     53 H25        8.1796    3.0303    1.8430 H         1 RES1    0.0000
     54 H26        8.5673    3.2900    3.4056 H         1 RES1    0.0000
@<TRIPOS>BOND
     1    1    3 1
     2    2    3 1
     3    3    5 1
     4    4    5 1
     5    5    7 1
     6    6    7 1
     7    7    8 1
     8    8    1 1
     9    9   10 1
    10   10    8 1
    11   11   10 1
    12   12   11 1
    13   13    9 1
    14   14   12 1
    15   15   14 ar
    16   16   15 ar
    17   17   16 ar
    18   18   17 ar
    19   19   14 ar
    20   20   15 1
    21   21   17 1
    22   22   19 1
    23   23   25 2
    24   24   25 1
    25   25    6 1
    26   26    2 1
    27   27   26 1
    28   28   26 1
    29   29    3 1
    30   30    5 1
    31   31    7 1
    32   32    8 1
    33   33   10 1
    34   34   11 1
    35   35   11 1
    36   36   16 1
    37   37   18 1
    38   38   20 1
    39   39   20 1
    40   40   20 1
    41   41   21 1
    42   42   21 1
    43   43   21 1
    44   44   22 1
    45   45   22 1
    46   46   22 1
    47   47   24 1
    48   48   24 1
    49   49   27 1
    50   50   27 1
    51   51   27 1
    52   52   28 1
    53   53   28 1
    54   54   28 1
    55    4   26 1
    56   12   13 2
    57   18   19 ar
@<TRIPOS>SUBSTRUCTURE
     1 RES1 1

@<TRIPOS>CRYSIN
  13.4010    9.6200    8.0160  90.0000  91.5100  90.0000   4 1

