# MOL2 file generated by ConQuest
# Please check atom types

@<TRIPOS>MOLECULE
SAJBUD
    41    42     1
SMALL
NO_CHARGES
****
Generated from CSD

@<TRIPOS>ATOM
      1 C1         4.3901    1.3018   17.7612 C.ar      1 RES1    0.0000
      2 C2         5.1140    2.3010   18.4137 C.ar      1 RES1    0.0000
      3 H1         5.1276    3.1785   18.0508 H         1 RES1    0.0000
      4 C3         5.8171    2.0372   19.5875 C.ar      1 RES1    0.0000
      5 H2         6.3051    2.7259   20.0243 H         1 RES1    0.0000
      6 C4         5.7913    0.7564   20.1028 C.ar      1 RES1    0.0000
      7 C5         5.0606   -0.2552   19.5100 C.ar      1 RES1    0.0000
      8 H3         5.0309   -1.1228   19.8941 H         1 RES1    0.0000
      9 C6         4.3728    0.0264   18.3415 C.ar      1 RES1    0.0000
     10 H4         3.8754   -0.6647   17.9206 H         1 RES1    0.0000
     11 C7         3.6748    1.5379   16.4201 C.3       1 RES1    0.0000
     12 C8         4.4264    0.7115   15.3585 C.3       1 RES1    0.0000
     13 H5         5.3683    0.9820   15.3403 H         1 RES1    0.0000
     14 H6         4.0250    0.8677   14.4789 H         1 RES1    0.0000
     15 H7         4.3653   -0.2410   15.5815 H         1 RES1    0.0000
     16 C9         3.7180    3.0094   15.9892 C.3       1 RES1    0.0000
     17 H8         3.2431    3.5567   16.6496 H         1 RES1    0.0000
     18 H9         3.2874    3.1066   15.1144 H         1 RES1    0.0000
     19 H10        4.6497    3.3052   15.9299 H         1 RES1    0.0000
     20 C10        2.1850    1.0312   16.5288 C.3       1 RES1    0.0000
     21 H11        2.2270    0.0646   16.7798 H         1 RES1    0.0000
     22 C11        1.4770    1.7550   17.6745 C.3       1 RES1    0.0000
     23 H12        2.0227    1.6750   18.4968 H         1 RES1    0.0000
     24 H13        1.3994    2.7167   17.4536 H         1 RES1    0.0000
     25 C12        1.4073    1.1112   15.2216 C.ar      1 RES1    0.0000
     26 C13        0.6796    2.2420   14.8436 C.ar      1 RES1    0.0000
     27 H14        0.6637    3.0008   15.4149 H         1 RES1    0.0000
     28 C14       -0.0238    2.2740   13.6392 C.ar      1 RES1    0.0000
     29 H15       -0.5160    3.0494   13.3974 H         1 RES1    0.0000
     30 C15       -0.0051    1.1745   12.7942 C.ar      1 RES1    0.0000
     31 H16       -0.4768    1.1979   11.9694 H         1 RES1    0.0000
     32 C16        0.7059    0.0381   13.1585 C.ar      1 RES1    0.0000
     33 H17        0.7191   -0.7176   12.5839 H         1 RES1    0.0000
     34 C17        1.3999    0.0061   14.3654 C.ar      1 RES1    0.0000
     35 H18        1.8754   -0.7791   14.6110 H         1 RES1    0.0000
     36 N1         6.5611    0.4656   21.3200 N.pl3     1 RES1    0.0000
     37 N2         0.1066    1.1979   17.9365 N.pl3     1 RES1    0.0000
     38 O1         6.4445   -0.6494   21.8277 O.2       1 RES1    0.0000
     39 O2         7.2964    1.3432   21.7597 O.2       1 RES1    0.0000
     40 O3        -0.0684   -0.0107   17.8056 O.2       1 RES1    0.0000
     41 O4        -0.7608    1.9813   18.3088 O.2       1 RES1    0.0000
@<TRIPOS>BOND
     1    1    2 ar
     2    2    3 1
     3    4    2 ar
     4    5    4 1
     5    6    4 ar
     6    7    6 ar
     7    8    7 1
     8    9    1 ar
     9   10    9 1
    10   11    1 1
    11   12   11 1
    12   13   12 1
    13   14   12 1
    14   15   12 1
    15   16   11 1
    16   17   16 1
    17   18   16 1
    18   19   16 1
    19   20   11 1
    20   21   20 1
    21   22   20 1
    22   23   22 1
    23   24   22 1
    24   25   20 1
    25   26   25 ar
    26   27   26 1
    27   28   26 ar
    28   29   28 1
    29   30   28 ar
    30   31   30 1
    31   32   30 ar
    32   33   32 1
    33   34   25 ar
    34   35   34 1
    35   36    6 1
    36   37   22 1
    37   38   36 2
    38   39   36 2
    39   40   37 2
    40   41   37 2
    41    7    9 ar
    42   32   34 ar
@<TRIPOS>SUBSTRUCTURE
     1 RES1 1

@<TRIPOS>CRYSIN
  12.8739    6.1492   19.9830  90.0000 106.6830  90.0000 231 1

