# MOL2 file generated by ConQuest
# Please check atom types

@<TRIPOS>MOLECULE
SAKWAD
   177   180     3
SMALL
USER_CHARGES
****
Generated from CSD

@<TRIPOS>ATOM
      1 O1         4.2338    8.6096   10.8351 O.3       1 RES1    0.0000
      2 O2         2.1959    3.2422    7.9052 O.2       1 RES1    0.0000
      3 O3         6.0791    4.8756    6.0424 O.2       1 RES1   -1.0000
      4 O4        12.8193    1.7382    1.2679 O.3       2 RES2    0.0000
      5 O5        10.8751    7.1668    4.2132 O.2       2 RES2    0.0000
      6 O6        14.6797    5.3834    6.1001 O.2       2 RES2   -1.0000
      7 O7        13.1909    3.4111   -4.7815 O.3       3 RES3    0.0000
      8 O8        15.0766   -2.0295   -1.8445 O.2       3 RES3    0.0000
      9 O9        11.2112   -0.3096   -0.0124 O.2       3 RES3   -1.0000
     10 N1         5.0780    4.1095    6.3187 N.pl3     1 RES1    1.0000
     11 N2         3.2306    3.3548    7.1691 N.3       1 RES1    0.0000
     12 N3        11.8939    7.0069    4.9642 N.3       2 RES2    0.0000
     13 N4        13.6953    6.1761    5.8363 N.pl3     2 RES2    1.0000
     14 N5        14.0596   -1.8613   -1.0934 N.3       3 RES3    0.0000
     15 N6        12.2180   -1.0868   -0.2741 N.pl3     3 RES3    1.0000
     16 C1         4.2645    7.5200   10.0203 C.ar      1 RES1    0.0000
     17 C2         5.4729    6.9066    9.6424 C.ar      1 RES1    0.0000
     18 C3         2.9978    5.9939    8.6882 C.ar      1 RES1    0.0000
     19 C4         5.3903    5.8727    8.7301 C.ar      1 RES1    0.0000
     20 C5         4.1765    5.4119    8.2294 C.ar      1 RES1    0.0000
     21 C6         4.1659    4.3238    7.2675 C.2       1 RES1    0.0000
     22 C7         3.4658    2.4344    6.0139 C.3       1 RES1    0.0000
     23 C8         4.8889    2.8117    5.5942 C.3       1 RES1    0.0000
     24 C9         1.6909    7.7160   10.0158 C.3       1 RES1    0.0000
     25 C10        6.8483    7.3666   10.1752 C.3       1 RES1    0.0000
     26 C11        1.6258    9.1459    9.4453 C.3       1 RES1    0.0000
     27 C12        0.4747    6.9889    9.4599 C.3       1 RES1    0.0000
     28 C13        3.0023    7.0520    9.5727 C.ar      1 RES1    0.0000
     29 C14        1.5545    7.7222   11.5448 C.3       1 RES1    0.0000
     30 C15        7.9706    6.4446    9.6777 C.3       1 RES1    0.0000
     31 C16        7.1868    8.7729    9.6533 C.3       1 RES1    0.0000
     32 C17        6.8935    7.3171   11.7066 C.3       1 RES1    0.0000
     33 C18        2.3796    2.7783    5.0128 C.3       1 RES1    0.0000
     34 C19        3.2997    0.9999    6.5199 C.3       1 RES1    0.0000
     35 C20        5.0597    3.0910    4.1126 C.3       1 RES1    0.0000
     36 C21        5.9818    1.8934    6.0905 C.3       1 RES1    0.0000
     37 C22       12.7434    2.8086    2.1019 C.ar      2 RES2    0.0000
     38 C23       13.9839    3.3659    2.4919 C.ar      2 RES2    0.0000
     39 C24       11.5107    3.3310    2.5487 C.ar      2 RES2    0.0000
     40 C25       11.5513    4.3897    3.4385 C.ar      2 RES2    0.0000
     41 C26       13.9488    4.3993    3.4128 C.ar      2 RES2    0.0000
     42 C27       12.7612    4.9204    3.9026 C.ar      2 RES2    0.0000
     43 C28       12.7719    5.9983    4.8719 C.2       2 RES2    0.0000
     44 C29       12.1171    7.8874    6.1465 C.3       2 RES2    0.0000
     45 C30       13.5393    7.4553    6.5722 C.3       2 RES2    0.0000
     46 C31       15.3230    2.8201    1.9669 C.3       2 RES2    0.0000
     47 C32       10.1515    2.7499    2.0886 C.3       2 RES2    0.0000
     48 C33        8.9782    3.5614    2.6530 C.3       2 RES2    0.0000
     49 C34        9.9815    1.3169    2.6031 C.3       2 RES2    0.0000
     50 C35       10.0188    2.8083    0.5535 C.3       2 RES2    0.0000
     51 C36       15.3776    2.8779    0.4403 C.3       2 RES2    0.0000
     52 C37       15.5464    1.3927    2.4827 C.3       2 RES2    0.0000
     53 C38       16.5015    3.6610    2.4802 C.3       2 RES2    0.0000
     54 C39       14.6526    8.3739    6.0479 C.3       2 RES2    0.0000
     55 C40       13.7049    7.2036    8.0550 C.3       2 RES2    0.0000
     56 C41       11.9780    9.3401    5.7061 C.3       2 RES2    0.0000
     57 C42       11.0266    7.5305    7.1244 C.3       2 RES2    0.0000
     58 C43       13.2335    2.3342   -3.9572 C.ar      3 RES3    0.0000
     59 C44       11.9831    1.8297   -3.5445 C.ar      3 RES3    0.0000
     60 C45       14.4551    1.7434   -3.5498 C.ar      3 RES3    0.0000
     61 C46       11.9747    0.7822   -2.6470 C.ar      3 RES3    0.0000
     62 C47       14.3725    0.6869   -2.6583 C.ar      3 RES3    0.0000
     63 C48       13.1630    0.2023   -2.1767 C.ar      3 RES3    0.0000
     64 C49       13.1321   -0.8849   -1.2132 C.2       3 RES3    0.0000
     65 C50       12.4217   -2.3574    0.4939 C.3       3 RES3    0.0000
     66 C51       13.8387   -2.7375    0.0851 C.3       3 RES3    0.0000
     67 C52       10.6660    2.4545   -4.0372 C.3       3 RES3    0.0000
     68 C53       15.8252    2.2528   -4.0251 C.3       3 RES3    0.0000
     69 C54       16.0963    3.6653   -3.4740 C.3       3 RES3    0.0000
     70 C55       15.9337    2.2281   -5.5589 C.3       3 RES3    0.0000
     71 C56       16.9600    1.3575   -3.5057 C.3       3 RES3    0.0000
     72 C57        9.4460    1.6930   -3.5020 C.3       3 RES3    0.0000
     73 C58       10.5767    2.3960   -5.5711 C.3       3 RES3    0.0000
     74 C59       10.5518    3.8905   -3.5312 C.3       3 RES3    0.0000
     75 C60       11.3352   -3.3038    0.0426 C.3       3 RES3    0.0000
     76 C61       12.2545   -2.0357    1.9693 C.3       3 RES3    0.0000
     77 C62       14.0271   -4.1769   -0.3479 C.3       3 RES3    0.0000
     78 C63       14.9260   -2.3425    1.0741 C.3       3 RES3    0.0000
     79 H1         4.9991    8.8208   11.0400 H         1 RES1    0.0000
     80 H2        12.0628    1.4753    1.0923 H         2 RES2    0.0000
     81 H3        13.9546    3.6372   -4.9738 H         3 RES3    0.0000
     82 H4         2.1826    5.6599    8.3895 H         1 RES1    0.0000
     83 H5         6.1768    5.4682    8.4394 H         1 RES1    0.0000
     84 H6         0.8049    9.5631    9.7202 H         1 RES1    0.0000
     85 H7         1.6602    9.1115    8.4868 H         1 RES1    0.0000
     86 H8         2.3706    9.6559    9.7737 H         1 RES1    0.0000
     87 H9        -0.3240    7.4383    9.7433 H         1 RES1    0.0000
     88 H10        0.4664    6.0867    9.7847 H         1 RES1    0.0000
     89 H11        0.5159    6.9837    8.5002 H         1 RES1    0.0000
     90 H12        0.7338    8.1558   11.7917 H         1 RES1    0.0000
     91 H13        2.2948    8.1961   11.9304 H         1 RES1    0.0000
     92 H14        1.5497    6.8197   11.8696 H         1 RES1    0.0000
     93 H15        7.8113    5.5486    9.9866 H         1 RES1    0.0000
     94 H16        8.8131    6.7548   10.0158 H         1 RES1    0.0000
     95 H17        7.9886    6.4517    8.7179 H         1 RES1    0.0000
     96 H18        6.5205    9.3961    9.9538 H         1 RES1    0.0000
     97 H19        7.2048    8.7620    8.6936 H         1 RES1    0.0000
     98 H20        8.0467    9.0404    9.9866 H         1 RES1    0.0000
     99 H21        6.2065    7.8837   12.0654 H         1 RES1    0.0000
    100 H22        7.7513    7.6208   12.0107 H         1 RES1    0.0000
    101 H23        6.7510    6.4146   12.0010 H         1 RES1    0.0000
    102 H24        2.4964    3.6836    4.7111 H         1 RES1    0.0000
    103 H25        1.5185    2.6877    5.4300 H         1 RES1    0.0000
    104 H26        2.4353    2.1805    4.2623 H         1 RES1    0.0000
    105 H27        2.3840    0.8505    6.7668 H         1 RES1    0.0000
    106 H28        3.8635    0.8629    7.2850 H         1 RES1    0.0000
    107 H29        3.5467    0.3866    5.8253 H         1 RES1    0.0000
    108 H30        4.3612    3.6774    3.8134 H         1 RES1    0.0000
    109 H31        5.0165    2.2671    3.6236 H         1 RES1    0.0000
    110 H32        5.9118    3.5073    3.9618 H         1 RES1    0.0000
    111 H33        5.8577    1.7258    7.0283 H         1 RES1    0.0000
    112 H34        6.8355    2.3073    5.9494 H         1 RES1    0.0000
    113 H35        5.9454    1.0639    5.6100 H         1 RES1    0.0000
    114 H36       10.7512    4.7599    3.7368 H         2 RES2    0.0000
    115 H37       14.7516    4.7568    3.7149 H         2 RES2    0.0000
    116 H38        9.0366    4.4692    2.3428 H         2 RES2    0.0000
    117 H39        9.0134    3.5475    3.6127 H         2 RES2    0.0000
    118 H40        8.1502    3.1764    2.3574 H         2 RES2    0.0000
    119 H41       10.0596    1.3083    3.5604 H         2 RES2    0.0000
    120 H42       10.6620    0.7577    2.2224 H         2 RES2    0.0000
    121 H43        9.1162    0.9866    2.3501 H         2 RES2    0.0000
    122 H44       10.1153    3.7176    0.2579 H         2 RES2    0.0000
    123 H45        9.1558    2.4774    0.2944 H         2 RES2    0.0000
    124 H46       10.7036    2.2671    0.1520 H         2 RES2    0.0000
    125 H47       15.2265    3.7795    0.1484 H         2 RES2    0.0000
    126 H48       14.6997    2.3042    0.0730 H         2 RES2    0.0000
    127 H49       16.2410    2.5856    0.1387 H         2 RES2    0.0000
    128 H50       16.3837    1.0608    2.1506 H         2 RES2    0.0000
    129 H51       14.8341    0.8258    2.1786 H         2 RES2    0.0000
    130 H52       15.5621    1.3980    3.4424 H         2 RES2    0.0000
    131 H53       16.3970    4.5712    2.1883 H         2 RES2    0.0000
    132 H54       17.3238    3.3063    2.1336 H         2 RES2    0.0000
    133 H55       16.5211    3.6341    3.4400 H         2 RES2    0.0000
    134 H56       15.5034    8.0507    6.3520 H         2 RES2    0.0000
    135 H57       14.5129    9.2662    6.3751 H         2 RES2    0.0000
    136 H58       14.6369    8.3785    5.0882 H         2 RES2    0.0000
    137 H59       14.6111    6.9404    8.2350 H         2 RES2    0.0000
    138 H60       13.1073    6.5043    8.3299 H         2 RES2    0.0000
    139 H61       13.5024    8.0074    8.5403 H         2 RES2    0.0000
    140 H62       12.6758    9.5538    5.0833 H         2 RES2    0.0000
    141 H63       12.0433    9.9157    6.4724 H         2 RES2    0.0000
    142 H64       11.1237    9.4672    5.2852 H         2 RES2    0.0000
    143 H65       10.1798    7.8311    6.7851 H         2 RES2    0.0000
    144 H66       11.2015    7.9548    7.9686 H         2 RES2    0.0000
    145 H67       11.0024    6.5785    7.2436 H         2 RES2    0.0000
    146 H68       11.1598    0.4516   -2.3452 H         3 RES3    0.0000
    147 H69       15.1603    0.2845   -2.3695 H         3 RES3    0.0000
    148 H70       16.9546    3.9681   -3.7793 H         3 RES3    0.0000
    149 H71       16.0884    3.6403   -2.5143 H         3 RES3    0.0000
    150 H72       15.4141    4.2650   -3.7830 H         3 RES3    0.0000
    151 H73       15.7711    1.3361   -5.8764 H         3 RES3    0.0000
    152 H74       16.8140    2.5052   -5.8217 H         3 RES3    0.0000
    153 H75       15.2838    2.8269   -5.9348 H         3 RES3    0.0000
    154 H76       16.8376    0.4639   -3.8329 H         3 RES3    0.0000
    155 H77       16.9491    1.3516   -2.5459 H         3 RES3    0.0000
    156 H78       17.8032    1.6980   -3.8146 H         3 RES3    0.0000
    157 H79        9.4774    0.7825   -3.8073 H         3 RES3    0.0000
    158 H80        8.6433    2.1124   -3.8207 H         3 RES3    0.0000
    159 H81        9.4559    1.7073   -2.5411 H         3 RES3    0.0000
    160 H82       10.6525    1.4846   -5.8618 H         3 RES3    0.0000
    161 H83       11.2891    2.9135   -5.9530 H         3 RES3    0.0000
    162 H84        9.7333    2.7557   -5.8557 H         3 RES3    0.0000
    163 H85       11.3023    4.4011   -3.8438 H         3 RES3    0.0000
    164 H86       10.5399    3.8908   -2.5715 H         3 RES3    0.0000
    165 H87        9.7395    4.2836   -3.8621 H         3 RES3    0.0000
    166 H88       10.4844   -2.9815    0.3491 H         3 RES3    0.0000
    167 H89       11.4979   -4.1753    0.4099 H         3 RES3    0.0000
    168 H90       11.3333   -3.3557   -0.9159 H         3 RES3    0.0000
    169 H91       12.9464   -1.4320    2.2455 H         3 RES3    0.0000
    170 H92       12.3130   -2.8454    2.4814 H         3 RES3    0.0000
    171 H93       11.3974   -1.6268    2.1129 H         3 RES3    0.0000
    172 H94       14.9445   -4.3207   -0.5900 H         3 RES3    0.0000
    173 H95       13.4632   -4.3609   -1.1033 H         3 RES3    0.0000
    174 H96       13.7918   -4.7630    0.3759 H         3 RES3    0.0000
    175 H97       15.7807   -2.6227    0.7384 H         3 RES3    0.0000
    176 H98       14.7599   -2.7650    1.9183 H         3 RES3    0.0000
    177 H99       14.9244   -1.3887    1.1872 H         3 RES3    0.0000
@<TRIPOS>BOND
     1    1   16 1
     2    2   11 1
     3    3   10 1
     4    4   37 1
     5    5   12 1
     6    6   13 1
     7    7   58 1
     8    8   14 1
     9    9   15 1
    10   10   21 2
    11   11   21 1
    12   12   43 1
    13   13   43 2
    14   14   64 1
    15   15   64 2
    16   16   17 ar
    17   17   19 ar
    18   18   20 ar
    19   19   20 ar
    20   20   21 1
    21   22   11 1
    22   23   10 1
    23   24   26 1
    24   25   17 1
    25   26   84 1
    26   27   24 1
    27   28   16 ar
    28   29   24 1
    29   30   25 1
    30   31   25 1
    31   32   25 1
    32   33   22 1
    33   34   22 1
    34   35   23 1
    35   36   23 1
    36   37   38 ar
    37   38   41 ar
    38   39   37 ar
    39   40   39 ar
    40   41   42 ar
    41   42   40 ar
    42   43   42 1
    43   44   12 1
    44   45   13 1
    45   46   38 1
    46   47   39 1
    47   48   47 1
    48   49   47 1
    49   50   47 1
    50   51   46 1
    51   52   46 1
    52   53   46 1
    53   54   45 1
    54   55   45 1
    55   56   44 1
    56   57   44 1
    57   58   59 ar
    58   59   61 ar
    59   60   58 ar
    60   61   63 ar
    61   62   60 ar
    62   63   62 ar
    63   64   63 1
    64   65   15 1
    65   66   14 1
    66   67   59 1
    67   68   60 1
    68   69   68 1
    69   70   68 1
    70   71   68 1
    71   72   67 1
    72   73   67 1
    73   74   67 1
    74   75   65 1
    75   76   65 1
    76   77   66 1
    77   78   66 1
    78   79    1 1
    79   80    4 1
    80   81    7 1
    81   82   18 1
    82   83   19 1
    83   85   26 1
    84   86   26 1
    85   87   27 1
    86   88   27 1
    87   89   27 1
    88   90   29 1
    89   91   29 1
    90   92   29 1
    91   93   30 1
    92   94   30 1
    93   95   30 1
    94   96   31 1
    95   97   31 1
    96   98   31 1
    97   99   32 1
    98  100   32 1
    99  101   32 1
   100  102   33 1
   101  103   33 1
   102  104   33 1
   103  105   34 1
   104  106   34 1
   105  107   34 1
   106  108   35 1
   107  109   35 1
   108  110   35 1
   109  111   36 1
   110  112   36 1
   111  113   36 1
   112  114   40 1
   113  115   41 1
   114  116   48 1
   115  117   48 1
   116  118   48 1
   117  119   49 1
   118  120   49 1
   119  121   49 1
   120  122   50 1
   121  123   50 1
   122  124   50 1
   123  125   51 1
   124  126   51 1
   125  127   51 1
   126  128   52 1
   127  129   52 1
   128  130   52 1
   129  131   53 1
   130  132   53 1
   131  133   53 1
   132  134   54 1
   133  135   54 1
   134  136   54 1
   135  137   55 1
   136  138   55 1
   137  139   55 1
   138  140   56 1
   139  141   56 1
   140  142   56 1
   141  143   57 1
   142  144   57 1
   143  145   57 1
   144  146   61 1
   145  147   62 1
   146  148   69 1
   147  149   69 1
   148  150   69 1
   149  151   70 1
   150  152   70 1
   151  153   70 1
   152  154   71 1
   153  155   71 1
   154  156   71 1
   155  157   72 1
   156  158   72 1
   157  159   72 1
   158  160   73 1
   159  161   73 1
   160  162   73 1
   161  163   74 1
   162  164   74 1
   163  165   74 1
   164  166   75 1
   165  167   75 1
   166  168   75 1
   167  169   76 1
   168  170   76 1
   169  171   76 1
   170  172   77 1
   171  173   77 1
   172  174   77 1
   173  175   78 1
   174  176   78 1
   175  177   78 1
   176   18   28 ar
   177   22   23 1
   178   24   28 1
   179   44   45 1
   180   65   66 1
@<TRIPOS>SUBSTRUCTURE
     1 RES1 1
     2 RES2 4
     3 RES3 7

@<TRIPOS>CRYSIN
  17.3092   30.9285   12.1652  90.0000  90.8163  90.0000  14 1

