# MOL2 file generated by ConQuest
# Please check atom types

@<TRIPOS>MOLECULE
SAKWEH
   173   164     4
SMALL
NO_CHARGES
****
Generated from CSD

@<TRIPOS>ATOM
      1 O1         1.0693   13.0161   31.6764 O.3       1 RES1    0.0000
      2 O2         5.7982   10.9931   27.9477 O.2       1 RES1    0.0000
      3 N1         5.6287   12.0178   27.2083 N.3       1 RES1    0.0000
      4 N2         4.7988   13.9411   26.4915 N.2       1 RES1    0.0000
      5 C1         1.9169   13.0585   30.6099 C.ar      1 RES1    0.0000
      6 C2         2.3437   14.3054   30.0187 C.ar      1 RES1    0.0000
      7 C3         3.2494   14.2284   28.9985 C.ar      1 RES1    0.0000
      8 H1         3.5695   15.0340   28.6101 H         1 RES1    0.0000
      9 C4         3.7200   13.0158   28.5098 C.ar      1 RES1    0.0000
     10 C5         3.2482   11.8168   29.0611 C.ar      1 RES1    0.0000
     11 H2         3.5564   10.9890   28.7120 H         1 RES1    0.0000
     12 C6         2.3449   11.8168   30.1048 C.ar      1 RES1    0.0000
     13 C7         4.7064   13.0004   27.3948 C.2       1 RES1    0.0000
     14 C8         6.4123   12.2187   25.9757 C.3       1 RES1    0.0000
     15 C9         5.9310   13.6298   25.5932 C.3       1 RES1    0.0000
     16 C10        1.8517   15.6480   30.5651 C.3       1 RES1    0.0000
     17 C11        1.8007   10.4776   30.6630 C.3       1 RES1    0.0000
     18 C12        2.3710   15.8874   31.9891 C.3       1 RES1    0.0000
     19 H3         2.0390   16.7495   32.3176 H         1 RES1    0.0000
     20 H4         3.3514   15.8960   31.9811 H         1 RES1    0.0000
     21 H5         2.0544   15.1708   32.5769 H         1 RES1    0.0000
     22 C13        0.3130   15.7506   30.4870 C.3       1 RES1    0.0000
     23 H6         0.0249   16.6178   30.8420 H         1 RES1    0.0000
     24 H7        -0.0889   15.0306   31.0180 H         1 RES1    0.0000
     25 H8         0.0273   15.6668   29.5517 H         1 RES1    0.0000
     26 C14        2.3710   16.7956   29.6560 C.3       1 RES1    0.0000
     27 H9         2.0497   17.6559   29.9993 H         1 RES1    0.0000
     28 H10        2.0378   16.6657   28.7429 H         1 RES1    0.0000
     29 H11        3.3502   16.7905   29.6504 H         1 RES1    0.0000
     30 C15        2.2631   10.3442   32.1364 C.3       1 RES1    0.0000
     31 H12        1.9134   11.0968   32.6572 H         1 RES1    0.0000
     32 H13        3.2423   10.3476   32.1725 H         1 RES1    0.0000
     33 H14        1.9264    9.5027   32.5090 H         1 RES1    0.0000
     34 C16        0.2584   10.4297   30.5676 C.3       1 RES1    0.0000
     35 H15       -0.1221   11.1942   31.0488 H         1 RES1    0.0000
     36 H16       -0.0688    9.5968   30.9686 H         1 RES1    0.0000
     37 H17       -0.0119   10.4691   29.6257 H         1 RES1    0.0000
     38 C17        2.3473    9.2855   29.9385 C.3       1 RES1    0.0000
     39 H18        2.0710    9.3180   28.9991 H         1 RES1    0.0000
     40 H19        2.0046    8.4662   30.3512 H         1 RES1    0.0000
     41 H20        3.3265    9.2923   29.9900 H         1 RES1    0.0000
     42 C18        7.0026   14.7466   25.8976 C.3       1 RES1    0.0000
     43 H21        6.6434   15.6223   25.6466 H         1 RES1    0.0000
     44 H22        7.8171   14.5671   25.3811 H         1 RES1    0.0000
     45 H23        7.2148   14.7432   26.8536 H         1 RES1    0.0000
     46 C19        5.4591   13.7632   24.1485 C.3       1 RES1    0.0000
     47 H24        5.1616   14.6834   23.9858 H         1 RES1    0.0000
     48 H25        4.7158   13.1458   23.9889 H         1 RES1    0.0000
     49 H26        6.1989   13.5477   23.5413 H         1 RES1    0.0000
     50 C20        7.8704   12.0665   26.3017 C.3       1 RES1    0.0000
     51 H27        8.1466   12.7866   26.9061 H         1 RES1    0.0000
     52 H28        8.3968   12.1144   25.4768 H         1 RES1    0.0000
     53 H29        8.0198   11.2011   26.7332 H         1 RES1    0.0000
     54 C21        6.0554   11.1395   25.0360 C.3       1 RES1    0.0000
     55 H30        5.1094   11.2199   24.7915 H         1 RES1    0.0000
     56 H31        6.2095   10.2707   25.4614 H         1 RES1    0.0000
     57 H32        6.6091   11.2113   24.2297 H         1 RES1    0.0000
     58 O3        -4.7929   12.8731   19.7372 O.3       2 RES2    0.0000
     59 H33       -5.1687   13.8025   19.4788 H         2 RES2    0.0000
     60 O4        -0.0664   10.9343   23.4351 O.2       2 RES2    0.0000
     61 O5        -1.6751   14.7826   25.0632 Du        4 SUP4    0.0000
     62 N3        -0.2525   11.8702   24.1655 N.3       2 RES2    0.0000
     63 N4        -1.0693   13.7991   24.9487 N.2       2 RES2    0.0000
     64 C22       -3.9631   12.8926   20.8368 C.ar      2 RES2    0.0000
     65 C23       -3.5019   14.1087   21.2992 C.ar      2 RES2    0.0000
     66 C24       -2.6152   14.0710   22.3862 C.ar      2 RES2    0.0000
     67 H34       -2.3212   14.8903   22.7665 H         2 RES2    0.0000
     68 C25       -2.1540   12.8738   22.9227 C.ar      2 RES2    0.0000
     69 C26       -2.6721   11.6800   22.4192 C.ar      2 RES2    0.0000
     70 H35       -2.3745   10.8590   22.7943 H         2 RES2    0.0000
     71 C27       -3.6015   11.6424   21.3931 C.ar      2 RES2    0.0000
     72 C28       -1.1582   12.8824   24.0195 C.2       2 RES2    0.0000
     73 C29        0.5252   12.0853   25.4065 C.3       2 RES2    0.0000
     74 C30        0.0865   13.5220   25.8420 C.3       2 RES2    0.0000
     75 C31       -3.9595   15.4855   20.7538 C.3       2 RES2    0.0000
     76 C32       -4.1729   10.3203   20.8686 C.3       2 RES2    0.0000
     77 C33       -5.4840   15.6087   20.7633 C.3       2 RES2    0.0000
     78 H36       -5.8752   14.8544   20.2753 H         2 RES2    0.0000
     79 H37       -5.7472   16.4484   20.3309 H         2 RES2    0.0000
     80 H38       -5.8065   15.6018   21.6891 H         2 RES2    0.0000
     81 C34       -3.4320   15.6001   19.2902 C.3       2 RES2    0.0000
     82 H39       -3.7781   14.8527   18.7596 H         2 RES2    0.0000
     83 H40       -2.4516   15.5727   19.2936 H         2 RES2    0.0000
     84 H41       -3.7331   16.4467   18.8985 H         2 RES2    0.0000
     85 C35       -3.3810   16.6366   21.5005 C.3       2 RES2    0.0000
     86 H42       -2.4030   16.5682   21.5008 H         2 RES2    0.0000
     87 H43       -3.7106   16.6263   22.4238 H         2 RES2    0.0000
     88 H44       -3.6489   17.4746   21.0686 H         2 RES2    0.0000
     89 C36       -5.6796   10.2843   21.0081 C.3       2 RES2    0.0000
     90 H45       -6.0199    9.4377   20.6519 H         2 RES2    0.0000
     91 H46       -6.0720   11.0300   20.5099 H         2 RES2    0.0000
     92 H47       -5.9227   10.3596   21.9546 H         2 RES2    0.0000
     93 C37       -3.7426   10.0398   19.4270 C.3       2 RES2    0.0000
     94 H48       -4.1385    9.1948   19.1269 H         2 RES2    0.0000
     95 H49       -2.7657    9.9748   19.3831 H         2 RES2    0.0000
     96 H50       -4.0472   10.7684   18.8460 H         2 RES2    0.0000
     97 C38       -3.6288    9.1333   21.7302 C.3       2 RES2    0.0000
     98 H51       -3.9951    8.2901   21.3897 H         2 RES2    0.0000
     99 H52       -3.9014    9.2547   22.6646 H         2 RES2    0.0000
    100 H53       -2.6507    9.1110   21.6768 H         2 RES2    0.0000
    101 C39        0.0213   10.9719   26.3949 C.3       2 RES2    0.0000
    102 H54       -0.9330   11.1019   26.5758 H         2 RES2    0.0000
    103 H55        0.5228   11.0283   27.2333 H         2 RES2    0.0000
    104 H56        0.1589   10.0894   25.9893 H         2 RES2    0.0000
    105 C40        1.9999   11.9246   25.0823 C.3       2 RES2    0.0000
    106 H57        2.1765   10.9993   24.8101 H         2 RES2    0.0000
    107 H58        2.5346   12.1401   25.8751 H         2 RES2    0.0000
    108 H59        2.2429   12.5300   24.3501 H         2 RES2    0.0000
    109 C41       -0.3817   13.6452   27.2803 C.3       2 RES2    0.0000
    110 H60       -1.0669   12.9679   27.4618 H         2 RES2    0.0000
    111 H61       -0.7599   14.5380   27.4247 H         2 RES2    0.0000
    112 H62        0.3782   13.5118   27.8847 H         2 RES2    0.0000
    113 C42        1.1203   14.5534   25.6031 C.3       2 RES2    0.0000
    114 H63        1.4309   14.4952   24.6773 H         2 RES2    0.0000
    115 H64        1.8742   14.4063   26.2115 H         2 RES2    0.0000
    116 H65        0.7386   15.4410   25.7639 H         2 RES2    0.0000
    117 O6         1.1369   12.6934   21.3974 O.3       3 RES3    0.0000
    118 H66        0.8535   11.8151   21.6521 H         3 RES3    0.0000
    119 O7         5.8658   14.5842   17.6094 O.2       3 RES3    0.0000
    120 O8         4.2322   10.8077   16.0461 Du        4 SUP4    0.0000
    121 O9         5.8989   10.8573   17.6853 Du        4 SUP4    0.0000
    122 O10        4.3898   14.7808   16.2900 Du        4 SUP4    0.0000
    123 N5         4.8356   11.6475   16.2437 N.2       3 RES3    0.0000
    124 N6         5.6310   13.6264   16.8827 N.3       3 RES3    0.0000
    125 N7         5.6927   11.8168   16.9846 Du        4 SUP4    0.0000
    126 N8         4.9316   13.7529   16.2684 Du        4 SUP4    0.0000
    127 C43        1.9928   12.6463   20.3018 C.ar      3 RES3    0.0000
    128 C44        2.4184   13.9051   19.8132 C.ar      3 RES3    0.0000
    129 C45        3.3454   13.8863   18.7738 C.ar      3 RES3    0.0000
    130 H67        3.6774   14.7124   18.4385 H         3 RES3    0.0000
    131 C46        3.7971   12.7045   18.2141 C.ar      3 RES3    0.0000
    132 C47        3.2850   11.5089   18.6818 C.ar      3 RES3    0.0000
    133 H68        3.5624   10.6982   18.2718 H         3 RES3    0.0000
    134 C48        2.3674   11.4525   19.7431 C.ar      3 RES3    0.0000
    135 C49        4.7609   12.6788   17.1343 C.2       3 RES3    0.0000
    136 C50        6.0246   11.8801   15.2960 C.3       3 RES3    0.0000
    137 C51        6.4964   12.0169   15.7251 Du        4 SUP4    0.0000
    138 C52        6.4573   13.3613   15.6572 C.3       3 RES3    0.0000
    139 C53        6.0531   13.4365   15.2991 Du        4 SUP4    0.0000
    140 C54        1.9691   15.2101   20.4738 C.3       3 RES3    0.0000
    141 C55        1.8150   10.0671   20.2018 C.3       3 RES3    0.0000
    142 C56        2.4208   15.3299   21.9058 C.3       3 RES3    0.0000
    143 H69        2.0995   16.1782   22.2787 H         3 RES3    0.0000
    144 H70        3.4000   15.3076   21.9423 H         3 RES3    0.0000
    145 H71        2.0568   14.5842   22.4269 H         3 RES3    0.0000
    146 C57        0.4351   15.3555   20.3772 C.3       3 RES3    0.0000
    147 H72        0.1589   16.1936   20.8062 H         3 RES3    0.0000
    148 H73        0.0071   14.5995   20.8309 H         3 RES3    0.0000
    149 H74        0.1660   15.3675   19.4356 H         3 RES3    0.0000
    150 C58        2.5263   16.4501   19.6903 C.3       3 RES3    0.0000
    151 H75        2.2228   17.2745   20.1240 H         3 RES3    0.0000
    152 H76        2.1979   16.4279   18.7658 H         3 RES3    0.0000
    153 H77        3.5055   16.4211   19.6888 H         3 RES3    0.0000
    154 C59        2.3081    9.7473   21.6317 C.3       3 RES3    0.0000
    155 H78        2.0284   10.4622   22.2417 H         3 RES3    0.0000
    156 H79        3.2862    9.6806   21.6336 H         3 RES3    0.0000
    157 H80        1.9217    8.8955   21.9268 H         3 RES3    0.0000
    158 C60        0.2715   10.0500   20.1450 C.3       3 RES3    0.0000
    159 H81       -0.0842   10.7838   20.6859 H         3 RES3    0.0000
    160 H82       -0.0581    9.1966   20.4975 H         3 RES3    0.0000
    161 H83       -0.0225   10.1561   19.2165 H         3 RES3    0.0000
    162 C61        2.3164    8.9297   19.3541 C.3       3 RES3    0.0000
    163 H84        2.0355    9.0666   18.4262 H         3 RES3    0.0000
    164 H85        1.9442    8.0865   19.6857 H         3 RES3    0.0000
    165 H86        3.2944    8.8955   19.3986 H         3 RES3    0.0000
    166 C62        6.9600   10.7923   15.4627 C.3       3 RES3    0.0000
    167 C63        5.4259   11.6697   13.8914 C.3       3 RES3    0.0000
    168 C64        6.0898   10.9445   14.7712 Du        4 SUP4    0.0000
    169 C65        7.9273   11.8288   16.0739 Du        4 SUP4    0.0000
    170 C66        7.9095   13.4844   16.1140 C.3       3 RES3    0.0000
    171 C67        6.0851   14.3772   14.5150 C.3       3 RES3    0.0000
    172 C68        7.1212   14.5824   15.6232 Du        4 SUP4    0.0000
    173 C69        5.5409   13.6212   13.8821 Du        4 SUP4    0.0000
@<TRIPOS>BOND
     1    1    5 1
     2    2    3 1
     3    3   13 1
     4    4   13 2
     5    5    6 ar
     6    6    7 ar
     7    7    8 1
     8    9    7 ar
     9   10    9 ar
    10   11   10 1
    11   12    5 ar
    12   13    9 1
    13   14    3 1
    14   15    4 1
    15   16    6 1
    16   17   12 1
    17   18   16 1
    18   19   18 1
    19   20   18 1
    20   21   18 1
    21   22   16 1
    22   23   22 1
    23   24   22 1
    24   25   22 1
    25   26   16 1
    26   27   26 1
    27   28   26 1
    28   29   26 1
    29   30   17 1
    30   31   30 1
    31   32   30 1
    32   33   30 1
    33   34   17 1
    34   35   34 1
    35   36   34 1
    36   37   34 1
    37   38   17 1
    38   39   38 1
    39   40   38 1
    40   41   38 1
    41   42   15 1
    42   43   42 1
    43   44   42 1
    44   45   42 1
    45   46   15 1
    46   47   46 1
    47   48   46 1
    48   49   46 1
    49   50   14 1
    50   51   50 1
    51   52   50 1
    52   53   50 1
    53   54   14 1
    54   55   54 1
    55   56   54 1
    56   57   54 1
    57   58   59 1
    58   60   62 1
    59   62   72 1
    60   63   72 2
    61   64   58 1
    62   65   64 ar
    63   66   65 ar
    64   67   66 1
    65   68   66 ar
    66   69   68 ar
    67   70   69 1
    68   71   64 ar
    69   72   68 1
    70   73   62 1
    71   74   63 1
    72   75   65 1
    73   76   71 1
    74   77   75 1
    75   78   77 1
    76   79   77 1
    77   80   77 1
    78   81   75 1
    79   82   81 1
    80   83   81 1
    81   84   81 1
    82   85   75 1
    83   86   85 1
    84   87   85 1
    85   88   85 1
    86   89   76 1
    87   90   89 1
    88   91   89 1
    89   92   89 1
    90   93   76 1
    91   94   93 1
    92   95   93 1
    93   96   93 1
    94   97   76 1
    95   98   97 1
    96   99   97 1
    97  100   97 1
    98  101   73 1
    99  102  101 1
   100  103  101 1
   101  104  101 1
   102  105   73 1
   103  106  105 1
   104  107  105 1
   105  108  105 1
   106  109   74 1
   107  110  109 1
   108  111  109 1
   109  112  109 1
   110  113   74 1
   111  114  113 1
   112  115  113 1
   113  116  113 1
   114  117  118 1
   115  119  124 1
   116  123  135 2
   117  124  135 1
   118  127  117 1
   119  128  127 ar
   120  129  128 ar
   121  130  129 1
   122  131  129 ar
   123  132  131 ar
   124  133  132 1
   125  134  127 ar
   126  135  131 1
   127  136  123 1
   128  138  124 1
   129  140  128 1
   130  141  134 1
   131  142  140 1
   132  143  142 1
   133  144  142 1
   134  145  142 1
   135  146  140 1
   136  147  146 1
   137  148  146 1
   138  149  146 1
   139  150  140 1
   140  151  150 1
   141  152  150 1
   142  153  150 1
   143  154  141 1
   144  155  154 1
   145  156  154 1
   146  157  154 1
   147  158  141 1
   148  159  158 1
   149  160  158 1
   150  161  158 1
   151  162  141 1
   152  163  162 1
   153  164  162 1
   154  165  162 1
   155  166  136 1
   156  167  136 1
   157  170  138 1
   158  171  138 1
   159   10   12 ar
   160   14   15 1
   161   69   71 ar
   162   73   74 1
   163  132  134 ar
   164  136  138 1
@<TRIPOS>SUBSTRUCTURE
     1 RES1 1
     2 RES2 58
     3 RES3 117
     4 SUP4 61

@<TRIPOS>CRYSIN
  11.8548   17.1035   30.8698  90.0000  90.0000  90.0000  19 1

