# MOL2 file generated by ConQuest
# Please check atom types

@<TRIPOS>MOLECULE
SALGUK
   160   172     4
SMALL
USER_CHARGES
****
Generated from CSD

@<TRIPOS>ATOM
      1 O1        -4.1376   14.2112   15.6421 O.2       1 RES1   -1.0000
      2 O2        -5.6699   13.4845   14.1074 O.3       1 RES1    0.0000
      3 N1        -5.6511   12.8292   12.9004 N.2       1 RES1    0.0000
      4 N2        -3.0908   10.5886    9.9686 N.3       1 RES1    0.0000
      5 N3        -4.3656   10.7904    9.5751 N.2       1 RES1    0.0000
      6 N4        -4.3135   13.6423   14.5725 N.pl3     1 RES1    1.0000
      7 N5        -4.9308   11.5928   10.4525 N.2       1 RES1    0.0000
      8 C1         0.7285   13.3374   13.8909 C.ar      1 RES1    0.0000
      9 C2        -2.8355   11.2121   11.1191 C.2       1 RES1    0.0000
     10 C3         2.2278   13.3814   13.9926 C.3       1 RES1    0.0000
     11 C4        -1.3303   13.7273   12.6877 C.ar      1 RES1    0.0000
     12 C5        -3.5150   13.1023   13.6536 C.2       1 RES1    0.0000
     13 C6        -2.4241    8.2418    9.7219 C.ar      1 RES1    0.0000
     14 C7        -0.0077   12.7852   14.9416 C.ar      1 RES1    0.0000
     15 C8         0.0584   13.7849   12.8063 C.ar      1 RES1    0.0000
     16 C9        -2.8064    5.6553   10.6578 C.ar      1 RES1    0.0000
     17 C10       -4.0212   11.8644   11.4392 C.2       1 RES1    0.0000
     18 C11       -2.0623   13.2039   13.7628 C.ar      1 RES1    0.0000
     19 C12       -3.5919    7.5364    9.4357 C.ar      1 RES1    0.0000
     20 C13       -1.6064    6.3274   10.9383 C.ar      1 RES1    0.0000
     21 C14       -1.3898   12.7094   14.8832 C.ar      1 RES1    0.0000
     22 C15       -2.2455    9.6390    9.2342 C.3       1 RES1    0.0000
     23 C16       -1.4385    7.6259   10.4770 C.ar      1 RES1    0.0000
     24 C17       -3.7853    6.2849    9.9215 C.ar      1 RES1    0.0000
     25 C18       -4.3675   12.6123   12.6312 C.2       1 RES1    0.0000
     26 H1        -2.0410   11.2106   11.6012 H         1 RES1    0.0000
     27 H2         2.4805   13.8137   14.8117 H         1 RES1    0.0000
     28 H3         2.5853   13.8714   13.2488 H         1 RES1    0.0000
     29 H4         2.5746   12.4864   13.9850 H         1 RES1    0.0000
     30 H5        -1.7590   14.0261   11.9175 H         1 RES1    0.0000
     31 H6         0.4365   12.4636   15.6929 H         1 RES1    0.0000
     32 H7         0.5478   14.1475   12.1039 H         1 RES1    0.0000
     33 H8        -2.9393    4.7876   10.9666 H         1 RES1    0.0000
     34 H9        -4.2463    7.9278    8.9028 H         1 RES1    0.0000
     35 H10       -0.9343    5.9087   11.4260 H         1 RES1    0.0000
     36 H11       -1.8670   12.3331   15.5875 H         1 RES1    0.0000
     37 H12       -1.3149    9.8953    9.3321 H         1 RES1    0.0000
     38 H13       -2.4667    9.6784    8.2890 H         1 RES1    0.0000
     39 H14       -0.6567    8.0871   10.6766 H         1 RES1    0.0000
     40 H15       -4.5894    5.8480    9.7577 H         1 RES1    0.0000
     41 O3        -0.1878   21.0816   14.1281 O.3       2 RES2    0.0000
     42 O4         1.3380   21.7779   12.5916 O.2       2 RES2   -1.0000
     43 N6         1.0944   18.4117   18.6925 N.2       2 RES2    0.0000
     44 N7         2.4136   18.1478   18.2839 N.pl3     2 RES2    0.0000
     45 N8         0.5779   19.1960   17.7586 N.2       2 RES2    0.0000
     46 N9        -0.1457   20.4126   15.3596 N.2       2 RES2    0.0000
     47 N10        1.1896   21.2394   13.6649 N.pl3     2 RES2    1.0000
     48 C19        1.8936   15.1259   18.7942 C.ar      2 RES2    0.0000
     49 C20        6.2208   20.8996   14.3409 C.ar      2 RES2    0.0000
     50 C21        5.5396   21.3592   15.4312 C.ar      2 RES2    0.0000
     51 C22        3.2422   17.2285   19.0334 C.3       2 RES2    0.0000
     52 C23        3.4366   20.7706   14.4840 C.ar      2 RES2    0.0000
     53 C24        2.6544   18.7970   17.1259 C.2       2 RES2    0.0000
     54 C25        1.9650   20.6933   14.6008 C.2       2 RES2    0.0000
     55 C26        4.1057   20.2928   13.3599 C.ar      2 RES2    0.0000
     56 C27        2.7057   13.2494   17.5929 C.ar      2 RES2    0.0000
     57 C28        1.4842   19.4554   16.8227 C.2       2 RES2    0.0000
     58 C29        3.0669   15.8344   18.5250 C.ar      2 RES2    0.0000
     59 C30        4.0503   15.1987   17.7623 C.ar      2 RES2    0.0000
     60 C31        5.4744   20.3868   13.3109 C.ar      2 RES2    0.0000
     61 C32        7.7244   20.9785   14.2562 C.3       2 RES2    0.0000
     62 C33        1.7212   13.8683   18.3028 C.ar      2 RES2    0.0000
     63 C34        4.1619   21.2819   15.5385 C.ar      2 RES2    0.0000
     64 C35        3.8736   13.9108   17.3029 C.ar      2 RES2    0.0000
     65 C36        1.1269   20.1972   15.6157 C.2       2 RES2    0.0000
     66 H16        1.2271   15.5158   19.3139 H         2 RES2    0.0000
     67 H17        6.0212   21.7400   16.1298 H         2 RES2    0.0000
     68 H18        3.0001   17.2634   19.9730 H         2 RES2    0.0000
     69 H19        4.1728   17.4879   18.9524 H         2 RES2    0.0000
     70 H20        3.4445   18.7986   16.6344 H         2 RES2    0.0000
     71 H21        3.6318   19.9166   12.6538 H         2 RES2    0.0000
     72 H22        2.5871   12.3741   17.3029 H         2 RES2    0.0000
     73 H23        4.8377   15.6508   17.5590 H         2 RES2    0.0000
     74 H24        5.9142   20.0880   12.5483 H         2 RES2    0.0000
     75 H25        8.0793   21.2333   15.1111 H         2 RES2    0.0000
     76 H26        7.9730   21.6308   13.5971 H         2 RES2    0.0000
     77 H27        8.0754   20.1214   14.0076 H         2 RES2    0.0000
     78 H28        0.9183   13.4239   18.4534 H         2 RES2    0.0000
     79 H29        3.7322   21.5701   16.3105 H         2 RES2    0.0000
     80 H30        4.5369   13.4952   16.8020 H         2 RES2    0.0000
     81 O5        -5.7214   16.8598   14.1432 O.3       3 RES3    0.0000
     82 O6        -4.1763   16.1347   12.6048 O.2       3 RES3   -1.0000
     83 N11       -3.1214   19.7649   18.2595 N.3       3 RES3    0.0000
     84 N12       -5.6938   17.5167   15.3389 N.2       3 RES3    0.0000
     85 C37       -4.4060   17.6987   15.6251 C.2       3 RES3    0.0000
     86 N13       -4.9621   18.7379   17.7774 N.2       3 RES3    0.0000
     87 N14       -4.3319   16.7112   13.7007 N.pl3     3 RES3    1.0000
     88 N15       -4.4079   19.5252   18.6850 N.2       3 RES3    0.0000
     89 C38       -3.5182   17.2209   14.6083 C.2       3 RES3    0.0000
     90 C39       -1.3536   16.6171   15.5366 C.ar      3 RES3    0.0000
     91 C40       -2.8817   19.1323   17.1297 C.2       3 RES3    0.0000
     92 C41       -1.4134   17.6183   13.3787 C.ar      3 RES3    0.0000
     93 C42        0.7302   17.0009   14.3296 C.ar      3 RES3    0.0000
     94 C43        0.0489   16.5322   15.4387 C.ar      3 RES3    0.0000
     95 C44       -1.4917   22.6896   17.7831 C.ar      3 RES3    0.0000
     96 C45       -2.4587   22.0935   18.5287 C.ar      3 RES3    0.0000
     97 C46       -2.0825   17.1359   14.5104 C.ar      3 RES3    0.0000
     98 C47        2.2034   16.9448   14.2411 C.3       3 RES3    0.0000
     99 C48       -2.2838   20.7039   19.0164 C.3       3 RES3    0.0000
    100 C49       -0.0440   17.5394   13.2789 C.ar      3 RES3    0.0000
    101 C50       -3.6490   22.7913   18.7980 C.ar      3 RES3    0.0000
    102 C51       -3.8357   24.0413   18.3348 C.ar      3 RES3    0.0000
    103 C52       -2.8600   24.6845   17.5778 C.ar      3 RES3    0.0000
    104 C53       -4.0485   18.4861   16.8416 C.2       3 RES3    0.0000
    105 C54       -1.7006   23.9912   17.2935 C.ar      3 RES3    0.0000
    106 H31       -1.7835   16.3152   16.3049 H         3 RES3    0.0000
    107 H32       -2.0927   19.1277   16.6382 H         3 RES3    0.0000
    108 H33       -1.9031   17.9961   12.6839 H         3 RES3    0.0000
    109 H34        0.5298   16.1529   16.1373 H         3 RES3    0.0000
    110 H35       -0.6990   22.2406   17.5985 H         3 RES3    0.0000
    111 H36        2.5572   16.5534   15.0433 H         3 RES3    0.0000
    112 H37        2.5528   17.8322   14.1376 H         3 RES3    0.0000
    113 H38        2.4594   16.4093   13.4860 H         3 RES3    0.0000
    114 H39       -1.3525   20.4460   18.9279 H         3 RES3    0.0000
    115 H40       -2.5190   20.6599   19.9560 H         3 RES3    0.0000
    116 H41        0.3781   17.8444   12.5069 H         3 RES3    0.0000
    117 H42       -4.3161   22.3832   19.3026 H         3 RES3    0.0000
    118 H43       -4.6306   24.4842   18.5250 H         3 RES3    0.0000
    119 H44       -2.9856   25.5537   17.2709 H         3 RES3    0.0000
    120 H45       -1.0445   24.3932   16.7719 H         3 RES3    0.0000
    121 O7        -0.1326    9.2825   14.1037 O.3       4 RES4    0.0000
    122 O8         1.3848    8.5513   15.6327 O.2       4 RES4   -1.0000
    123 N16        1.2448    9.1126   14.5763 N.pl3     4 RES4    1.0000
    124 N17        0.6035   11.1529   10.4525 N.2       4 RES4    0.0000
    125 N18        2.4254   12.1799    9.9743 N.3       4 RES4    0.0000
    126 N19       -0.1161    9.9257   12.9004 N.2       4 RES4    0.0000
    127 N20        1.1587   11.9493    9.5788 N.2       4 RES4    0.0000
    128 C55        4.2053    9.0428   12.6971 C.ar      4 RES4    0.0000
    129 C56        2.0198    9.6405   13.6292 C.2       4 RES4    0.0000
    130 C57        5.6123    8.9548   12.7667 C.ar      4 RES4    0.0000
    131 C58        6.2626    9.4175   13.9078 C.ar      4 RES4    0.0000
    132 C59        1.4928   10.8965   11.4543 C.2       4 RES4    0.0000
    133 C60        3.4654    9.5616   13.7515 C.ar      4 RES4    0.0000
    134 C61        3.0969   14.5176    9.7238 C.ar      4 RES4    0.0000
    135 C62        2.7038   11.5458   11.1229 C.2       4 RES4    0.0000
    136 C63        5.5127    9.9606   14.9529 C.ar      4 RES4    0.0000
    137 C64        1.6868   16.4760    9.9272 C.ar      4 RES4    0.0000
    138 C65        7.7635    9.3507   13.9850 C.3       4 RES4    0.0000
    139 C66        3.2730   13.1189    9.2248 C.3       4 RES4    0.0000
    140 C67        4.0494   15.1411   10.4732 C.ar      4 RES4    0.0000
    141 C68        2.6748   17.0737   10.6710 C.ar      4 RES4    0.0000
    142 C69        4.1522   10.0288   14.8569 C.ar      4 RES4    0.0000
    143 C70        1.9066   15.2048    9.4319 C.ar      4 RES4    0.0000
    144 C71        3.8726   16.4214   10.9553 C.ar      4 RES4    0.0000
    145 C72        1.1584   10.1381   12.6105 C.2       4 RES4    0.0000
    146 H46        3.7665    8.7485   11.9326 H         4 RES4    0.0000
    147 H47        6.0975    8.5953   12.0606 H         4 RES4    0.0000
    148 H48        3.5072   11.5352   11.5917 H         4 RES4    0.0000
    149 H49        5.9392   10.2776   15.7155 H         4 RES4    0.0000
    150 H50        0.8863   16.9190    9.7596 H         4 RES4    0.0000
    151 H51        8.1011    8.8577   13.2318 H         4 RES4    0.0000
    152 H52        8.0235    8.9123   14.7985 H         4 RES4    0.0000
    153 H53        8.1239   10.2412   13.9719 H         4 RES4    0.0000
    154 H54        3.0422   13.0810    8.2833 H         4 RES4    0.0000
    155 H55        4.2021   12.8580    9.3152 H         4 RES4    0.0000
    156 H56        4.8400   14.6921   10.6615 H         4 RES4    0.0000
    157 H57        2.5403   17.9369   10.9930 H         4 RES4    0.0000
    158 H58        3.6702   10.4020   15.5592 H         4 RES4    0.0000
    159 H59        1.2605   14.7982    8.9009 H         4 RES4    0.0000
    160 H60        4.5364   16.8371   11.4581 H         4 RES4    0.0000
@<TRIPOS>BOND
     1    1    6 1
     2    2    3 1
     3    3   25 2
     4    4    5 1
     5    5    7 2
     6    6    2 1
     7    7   17 1
     8    8   10 1
     9    9    4 1
    10   10   27 1
    11   11   15 ar
    12   12    6 2
    13   13   19 ar
    14   14    8 ar
    15   15    8 ar
    16   16   20 ar
    17   17    9 2
    18   18   11 ar
    19   19   24 ar
    20   20   23 ar
    21   21   14 ar
    22   22    4 1
    23   23   13 ar
    24   24   16 ar
    25   25   12 1
    26   26    9 1
    27   28   10 1
    28   29   10 1
    29   30   11 1
    30   31   14 1
    31   32   15 1
    32   33   16 1
    33   34   19 1
    34   35   20 1
    35   36   21 1
    36   37   22 1
    37   38   22 1
    38   39   23 1
    39   40   24 1
    40   41   46 1
    41   42   47 1
    42   43   44 1
    43   44   51 1
    44   45   43 2
    45   46   65 2
    46   47   41 1
    47   48   58 ar
    48   49   50 ar
    49   50   63 ar
    50   51   58 1
    51   52   54 1
    52   53   44 1
    53   54   47 2
    54   55   52 ar
    55   56   62 ar
    56   57   45 1
    57   58   59 ar
    58   59   64 ar
    59   60   49 ar
    60   61   49 1
    61   62   48 ar
    62   63   52 ar
    63   64   56 ar
    64   65   54 1
    65   66   48 1
    66   67   50 1
    67   68   51 1
    68   69   51 1
    69   70   53 1
    70   71   55 1
    71   72   56 1
    72   73   59 1
    73   74   60 1
    74   75   61 1
    75   76   61 1
    76   77   61 1
    77   78   62 1
    78   79   63 1
    79   80   64 1
    80   81   84 1
    81   82   87 1
    82   83   88 1
    83   84   85 2
    84   85   89 1
    85   86   88 2
    86   87   81 1
    87   89   87 2
    88   90   94 ar
    89   91   83 1
    90   92   97 ar
    91   93   94 ar
    92   94  109 1
    93   95   96 ar
    94   96   99 1
    95   97   89 1
    96   98   93 1
    97   99   83 1
    98  100   92 ar
    99  101   96 ar
   100  102  101 ar
   101  103  102 ar
   102  104   85 1
   103  105   95 ar
   104  106   90 1
   105  107   91 1
   106  108   92 1
   107  110   95 1
   108  111   98 1
   109  112   98 1
   110  113   98 1
   111  114   99 1
   112  115   99 1
   113  116  100 1
   114  117  101 1
   115  118  102 1
   116  119  103 1
   117  120  105 1
   118  121  123 1
   119  122  123 1
   120  123  129 2
   121  124  127 2
   122  125  127 1
   123  126  121 1
   124  128  130 ar
   125  129  133 1
   126  130  131 ar
   127  131  136 ar
   128  132  124 1
   129  133  128 ar
   130  134  139 1
   131  135  125 1
   132  136  142 ar
   133  137  141 ar
   134  138  131 1
   135  139  125 1
   136  140  134 ar
   137  141  144 ar
   138  142  133 ar
   139  143  134 ar
   140  144  140 ar
   141  145  126 2
   142  146  128 1
   143  147  130 1
   144  148  135 1
   145  149  136 1
   146  150  137 1
   147  151  138 1
   148  152  138 1
   149  153  138 1
   150  154  139 1
   151  155  139 1
   152  156  140 1
   153  157  141 1
   154  158  142 1
   155  159  143 1
   156  160  144 1
   157   12   18 1
   158   13   22 1
   159   17   25 1
   160   18   21 ar
   161   53   57 2
   162   55   60 ar
   163   57   65 1
   164   86  104 1
   165   90   97 ar
   166   91  104 2
   167   93  100 ar
   168  103  105 ar
   169  129  145 1
   170  132  135 2
   171  132  145 1
   172  137  143 ar
@<TRIPOS>SUBSTRUCTURE
     1 RES1 1
     2 RES2 41
     3 RES3 81
     4 RES4 121

@<TRIPOS>CRYSIN
  11.0500   15.1700   18.8300  90.0000  90.0000  90.1980   2 1

