# MOL2 file generated by ConQuest
# Please check atom types

@<TRIPOS>MOLECULE
SALGOE
    42    45     1
SMALL
USER_CHARGES
****
Generated from CSD

@<TRIPOS>ATOM
      1 O1         1.8052    4.9156    8.0775 O.3       1 RES1    0.0000
      2 O2         2.9473    4.2396    9.9427 O.2       1 RES1   -1.0000
      3 N1         2.8172    5.1347    9.1037 N.pl3     1 RES1    1.0000
      4 N2         1.8117    5.9959    7.2433 N.2       1 RES1    0.0000
      5 C1         4.3899    6.9082    9.7743 C.ar      1 RES1    0.0000
      6 C2         3.3736    6.3280    8.8871 C.2       1 RES1    0.0000
      7 C3         5.9565    6.7367   11.6164 C.ar      1 RES1    0.0000
      8 C4         5.6599    8.8390   10.5139 C.ar      1 RES1    0.0000
      9 C5         6.2823    8.0927   11.5181 C.ar      1 RES1    0.0000
     10 C6         5.0253    6.1478   10.7717 C.ar      1 RES1    0.0000
     11 C7         4.7279    8.2648    9.6558 C.ar      1 RES1    0.0000
     12 C8         2.7326    6.8275    7.7046 C.2       1 RES1    0.0000
     13 C9         3.0010    8.0309    6.9910 C.1       1 RES1    0.0000
     14 C10        7.2564    8.7352   12.4782 C.3       1 RES1    0.0000
     15 H1         6.3737    6.2163   12.2643 H         1 RES1    0.0000
     16 H2         5.8730    9.7385   10.4173 H         1 RES1    0.0000
     17 H3         4.8207    5.2449   10.8657 H         1 RES1    0.0000
     18 H4         4.3252    8.7849    8.9987 H         1 RES1    0.0000
     19 H5         6.8246    8.8804   13.3225 H         1 RES1    0.0000
     20 H6         7.5505    9.5759   12.1201 H         1 RES1    0.0000
     21 H7         8.0133    8.1576   12.6006 H         1 RES1    0.0000
     22 O1A        4.4173   12.1366    5.2678 O.3       1 RES1    0.0000
     23 O2A        3.2752   12.8126    3.4025 O.2       1 RES1   -1.0000
     24 N1A        3.4053   11.9175    4.2415 N.pl3     1 RES1    1.0000
     25 N2A        4.4108   11.0563    6.1020 N.2       1 RES1    0.0000
     26 C1A        1.8326   10.1440    3.5709 C.ar      1 RES1    0.0000
     27 C2A        2.8489   10.7242    4.4581 C.2       1 RES1    0.0000
     28 C3A        0.2660   10.3155    1.7289 C.ar      1 RES1    0.0000
     29 C4A        0.5626    8.2133    2.8313 C.ar      1 RES1    0.0000
     30 C5A       -0.0598    8.9595    1.8271 C.ar      1 RES1    0.0000
     31 C6A        1.1972   10.9044    2.5735 C.ar      1 RES1    0.0000
     32 C7A        1.4946    8.7874    3.6894 C.ar      1 RES1    0.0000
     33 C8A        3.4898   10.2247    5.6406 C.2       1 RES1    0.0000
     34 C9A        3.2215    9.0213    6.3542 C.1       1 RES1    0.0000
     35 C10A      -1.0339    8.3170    0.8670 C.3       1 RES1    0.0000
     36 H1A       -0.1512   10.8359    1.0810 H         1 RES1    0.0000
     37 H2A        0.3494    7.3137    2.9279 H         1 RES1    0.0000
     38 H3A        1.4018   11.8073    2.4795 H         1 RES1    0.0000
     39 H4A        1.8973    8.2673    4.3465 H         1 RES1    0.0000
     40 H5A       -0.6021    8.1718    0.0227 H         1 RES1    0.0000
     41 H6A       -1.3280    7.4763    1.2251 H         1 RES1    0.0000
     42 H7A       -1.7909    8.8946    0.7447 H         1 RES1    0.0000
@<TRIPOS>BOND
     1    1    3 1
     2    2    3 1
     3    3    6 2
     4    4    1 1
     5    5    6 1
     6    6   12 1
     7    7    9 ar
     8    8    9 ar
     9    9   14 1
    10   10    5 ar
    11   11    5 ar
    12   12    4 2
    13   13   12 1
    14   14   19 1
    15   15    7 1
    16   16    8 1
    17   17   10 1
    18   18   11 1
    19   20   14 1
    20   21   14 1
    21   22   24 1
    22   23   24 1
    23   24   27 2
    24   25   22 1
    25   26   27 1
    26   27   33 1
    27   28   30 ar
    28   29   30 ar
    29   30   35 1
    30   31   26 ar
    31   32   26 ar
    32   33   25 2
    33   34   13 3
    34   35   40 1
    35   36   28 1
    36   37   29 1
    37   38   31 1
    38   39   32 1
    39   41   35 1
    40   42   35 1
    41    7   10 ar
    42    8   11 ar
    43   28   31 ar
    44   29   32 ar
    45   33   34 1
@<TRIPOS>SUBSTRUCTURE
     1 RES1 1

@<TRIPOS>CRYSIN
   4.6730    7.0180   13.7090  77.0370  86.7120  86.8830   2 1

