# MOL2 file generated by ConQuest
# Please check atom types

@<TRIPOS>MOLECULE
SALHXA
    18    18     1
SMALL
NO_CHARGES
****
Generated from CSD

@<TRIPOS>ATOM
      1 C1        -8.6335    0.1120   -4.4784 C.ar      1 RES1    0.0000
      2 C2        -7.8528    0.7216   -3.4950 C.ar      1 RES1    0.0000
      3 C3        -6.8718    1.6216   -3.7999 C.ar      1 RES1    0.0000
      4 C4        -6.6409    1.9612   -5.1269 C.ar      1 RES1    0.0000
      5 C5        -7.3989    1.3833   -6.1215 C.ar      1 RES1    0.0000
      6 C6        -8.3900    0.4682   -5.8116 C.ar      1 RES1    0.0000
      7 O1        -9.1299   -0.1299   -6.7775 O.3       1 RES1    0.0000
      8 C7        -9.6628   -0.8705   -4.0410 C.2       1 RES1    0.0000
      9 O2        -9.8434   -1.1299   -2.8227 O.2       1 RES1    0.0000
     10 N1       -10.3789   -1.4727   -4.9644 N.am      1 RES1    0.0000
     11 O3       -11.2601   -2.4985   -4.6383 O.3       1 RES1    0.0000
     12 H1        -8.0316    0.4931   -2.5865 H         1 RES1    0.0000
     13 H2        -6.3522    2.0367   -3.1363 H         1 RES1    0.0000
     14 H3        -5.9315    2.6312   -5.3855 H         1 RES1    0.0000
     15 H4        -7.2448    1.5713   -7.0224 H         1 RES1    0.0000
     16 H5        -9.0532    0.2120   -7.4348 H         1 RES1    0.0000
     17 H6       -10.3295   -1.3133   -5.8229 H         1 RES1    0.0000
     18 H7       -11.9163   -2.1059   -4.1985 H         1 RES1    0.0000
@<TRIPOS>BOND
     1    1    2 ar
     2    2    3 ar
     3    3    4 ar
     4    4    5 ar
     5    5    6 ar
     6    6    1 ar
     7    7    6 1
     8    8    1 1
     9    9    8 2
    10   10    8 1
    11   11   10 1
    12   12    2 1
    13   13    3 1
    14   14    4 1
    15   15    5 1
    16   16    7 1
    17   17   10 1
    18   18   11 1
@<TRIPOS>SUBSTRUCTURE
     1 RES1 1

@<TRIPOS>CRYSIN
  23.7830    4.6080   12.5750  90.0000  96.4500  90.0000  15 1

