# MOL2 file generated by ConQuest
# Please check atom types

@<TRIPOS>MOLECULE
SALLOH
    28    30     1
SMALL
NO_CHARGES
****
Generated from CSD

@<TRIPOS>ATOM
      1 O1         9.3542    0.3811    6.8609 O.3       1 RES1    0.0000
      2 N1         8.1527    0.9027    6.3063 N.2       1 RES1    0.0000
      3 C1         9.5510    0.3934    4.5043 C.3       1 RES1    0.0000
      4 C2         8.2729    0.9439    5.0398 C.2       1 RES1    0.0000
      5 C3         7.1662    1.2817    4.1142 C.3       1 RES1    0.0000
      6 C4         6.8755    0.0449    3.2609 C.3       1 RES1    0.0000
      7 C5         8.1596   -0.5229    2.6585 C.3       1 RES1    0.0000
      8 C6         9.2235   -0.8789    3.7023 C.3       1 RES1    0.0000
      9 C7         8.7936   -2.0241    4.6227 C.3       1 RES1    0.0000
     10 C8         9.9484   -2.8578    5.1320 C.3       1 RES1    0.0000
     11 C9        11.0797   -2.1445    5.7934 C.2       1 RES1    0.0000
     12 C10       11.2551   -0.8649    6.0610 C.2       1 RES1    0.0000
     13 C11       10.3592    0.3012    5.7937 C.3       1 RES1    0.0000
     14 H1         9.9331    1.0530    3.9196 H         1 RES1    0.0000
     15 H2         7.4641    2.0105    3.5350 H         1 RES1    0.0000
     16 H3         6.3785    1.5453    4.6199 H         1 RES1    0.0000
     17 H4         6.4747   -0.6740    3.8399 H         1 RES1    0.0000
     18 H5         6.2396    0.2978    2.5672 H         1 RES1    0.0000
     19 H6         7.9149   -1.3615    2.1383 H         1 RES1    0.0000
     20 H7         8.5355    0.1810    2.0223 H         1 RES1    0.0000
     21 H8        10.0396   -1.1777    3.2222 H         1 RES1    0.0000
     22 H9         8.2169   -2.6211    4.0829 H         1 RES1    0.0000
     23 H10        8.2676   -1.6351    5.3675 H         1 RES1    0.0000
     24 H11        9.6351   -3.5330    5.7579 H         1 RES1    0.0000
     25 H12       10.3651   -3.3100    4.3868 H         1 RES1    0.0000
     26 H13       11.7874   -2.7515    6.0619 H         1 RES1    0.0000
     27 H14       12.0619   -0.6277    6.4956 H         1 RES1    0.0000
     28 H15       10.9269    1.1328    5.8711 H         1 RES1    0.0000
@<TRIPOS>BOND
     1    1    2 1
     2    2    4 2
     3    3    4 1
     4    4    5 1
     5    5    6 1
     6    6    7 1
     7    7    8 1
     8    8    3 1
     9    9    8 1
    10   10    9 1
    11   11   10 1
    12   12   11 2
    13   13    1 1
    14   14    3 1
    15   15    5 1
    16   16    5 1
    17   17    6 1
    18   18    6 1
    19   19    7 1
    20   20    7 1
    21   21    8 1
    22   22    9 1
    23   23    9 1
    24   24   10 1
    25   25   10 1
    26   26   11 1
    27   27   12 1
    28   28   13 1
    29    3   13 1
    30   12   13 1
@<TRIPOS>SUBSTRUCTURE
     1 RES1 1

@<TRIPOS>CRYSIN
  13.7122    7.1245   10.2422  90.0000 106.1920  90.0000  14 1

