# MOL2 file generated by ConQuest
# Please check atom types

@<TRIPOS>MOLECULE
SALLIA
    18    19     1
SMALL
NO_CHARGES
****
Generated from CSD

@<TRIPOS>ATOM
      1 O1         6.7397    3.1839    3.5664 O.co2     1 RES1    0.0000
      2 O2         5.3981    4.8628    2.9624 O.co2     1 RES1    0.0000
      3 O3        -2.0551   -0.1511    2.0373 O.2       1 RES1    0.0000
      4 O4        -0.6848   -1.7704    1.9327 O.2       1 RES1    0.0000
      5 N1        -0.9279   -0.5855    1.9408 N.pl3     1 RES1    0.0000
      6 C1         4.7835    2.5858    2.3754 C.3       1 RES1    0.0000
      7 C2         5.5789    1.9398    1.2624 C.2       1 RES1    0.0000
      8 C3         5.2375    2.0112   -0.0066 C.2       1 RES1    0.0000
      9 C4         4.0728    2.8011   -0.5148 C.3       1 RES1    0.0000
     10 C5         3.5713    3.7810    0.5112 C.3       1 RES1    0.0000
     11 C6         3.4408    3.1643    1.9010 C.3       1 RES1    0.0000
     12 C7         5.6549    3.6762    2.9948 C.2       1 RES1    0.0000
     13 C8         2.3179    2.1268    1.9121 C.ar      1 RES1    0.0000
     14 C9         2.5358    0.7650    1.7869 C.ar      1 RES1    0.0000
     15 C10        1.4784   -0.1376    1.7758 C.ar      1 RES1    0.0000
     16 C11        0.1957    0.3603    1.9069 C.ar      1 RES1    0.0000
     17 C12       -0.0689    1.7057    2.0321 C.ar      1 RES1    0.0000
     18 C13        1.0027    2.5865    2.0380 C.ar      1 RES1    0.0000
@<TRIPOS>BOND
     1    1   12 1
     2    2   12 2
     3    3    5 2
     4    4    5 2
     5    5   16 1
     6    6    7 1
     7    7    8 2
     8    8    9 1
     9    9   10 1
    10   10   11 1
    11   11    6 1
    12   12    6 1
    13   13   11 1
    14   14   13 ar
    15   15   14 ar
    16   16   15 ar
    17   17   16 ar
    18   18   13 ar
    19   17   18 ar
@<TRIPOS>SUBSTRUCTURE
     1 RES1 1

@<TRIPOS>CRYSIN
  10.3000    8.0620    7.8040  71.3900  80.4000  74.7700   2 1

