# MOL2 file generated by ConQuest
# Please check atom types

@<TRIPOS>MOLECULE
SALMEY
    23    25     1
SMALL
NO_CHARGES
****
Generated from CSD

@<TRIPOS>ATOM
      1 O1         5.7112   -1.3830   11.9758 O.3       1 RES1    0.0000
      2 N1         6.6577   -0.6600   11.1931 N.2       1 RES1    0.0000
      3 C1         6.1957    0.5140   10.9971 C.2       1 RES1    0.0000
      4 C2         6.5371    1.4943    9.9142 C.3       1 RES1    0.0000
      5 C3         5.1233    1.8345    9.3784 C.3       1 RES1    0.0000
      6 C4         4.1475    0.8923   10.1047 C.3       1 RES1    0.0000
      7 C5         2.7100    1.2422   10.1979 C.2       1 RES1    0.0000
      8 C6         1.8516    0.4680   10.8468 C.2       1 RES1    0.0000
      9 C7         2.1509   -0.7957   11.4935 C.2       1 RES1    0.0000
     10 C8         3.2834   -1.2490   12.0290 C.2       1 RES1    0.0000
     11 C9         4.5524   -0.5146   12.2717 C.3       1 RES1    0.0000
     12 C10        4.8119    0.7281   11.4773 C.3       1 RES1    0.0000
     13 H1         7.0124    2.2389   10.2897 H         1 RES1    0.0000
     14 H2         7.0896    1.0604    9.2586 H         1 RES1    0.0000
     15 H3         5.0541    1.7067    8.4296 H         1 RES1    0.0000
     16 H4         4.8894    2.7393    9.5982 H         1 RES1    0.0000
     17 H5         4.1369    0.0505    9.6435 H         1 RES1    0.0000
     18 H6         2.3918    2.0509    9.7898 H         1 RES1    0.0000
     19 H7         0.9283    0.7156   10.9358 H         1 RES1    0.0000
     20 H8         1.3700   -1.3540   11.4844 H         1 RES1    0.0000
     21 H9         3.2120   -2.1691   12.2943 H         1 RES1    0.0000
     22 H10        4.5190   -0.3078   13.2087 H         1 RES1    0.0000
     23 H11        4.6086    1.4921   12.0226 H         1 RES1    0.0000
@<TRIPOS>BOND
     1    1    2 1
     2    2    3 2
     3    3    4 1
     4    4    5 1
     5    5    6 1
     6    6    7 1
     7    7    8 2
     8    8    9 1
     9    9   10 2
    10   10   11 1
    11   11    1 1
    12   12    3 1
    13   13    4 1
    14   14    4 1
    15   15    5 1
    16   16    5 1
    17   17    6 1
    18   18    7 1
    19   19    8 1
    20   20    9 1
    21   21   10 1
    22   22   11 1
    23   23   12 1
    24    6   12 1
    25   11   12 1
@<TRIPOS>SUBSTRUCTURE
     1 RES1 1

@<TRIPOS>CRYSIN
   8.2968    5.6797   17.6542  90.0000  99.4130  90.0000  14 1

