# MOL2 file generated by ConQuest
# Please check atom types

@<TRIPOS>MOLECULE
SALMOI
    30    33     1
SMALL
NO_CHARGES
****
Generated from CSD

@<TRIPOS>ATOM
      1 O1        -0.8272   -0.5333   14.7638 O.3       1 RES1    0.0000
      2 N1        -0.0622   -0.5636   13.5780 N.2       1 RES1    0.0000
      3 C1        -0.6275    0.1790   12.7071 C.2       1 RES1    0.0000
      4 C2        -0.0550    0.4630   11.3968 C.ar      1 RES1    0.0000
      5 C3         0.8785   -0.3840   10.7854 C.ar      1 RES1    0.0000
      6 C4         1.4195   -0.0552    9.5746 C.ar      1 RES1    0.0000
      7 C5         1.0450    1.1003    8.9351 C.ar      1 RES1    0.0000
      8 C6         0.1115    1.9272    9.5134 C.ar      1 RES1    0.0000
      9 C7        -0.4642    1.6365   10.7489 C.ar      1 RES1    0.0000
     10 C8        -1.4910    2.5528   11.3671 C.3       1 RES1    0.0000
     11 C9        -1.7327    2.3659   12.8624 C.3       1 RES1    0.0000
     12 C10       -1.8717    0.8620   13.1658 C.3       1 RES1    0.0000
     13 C11       -1.9500    0.4211   14.6178 C.3       1 RES1    0.0000
     14 C12       -1.8722    1.4483   15.6916 C.2       1 RES1    0.0000
     15 C13       -2.5044    2.6243   15.7159 C.2       1 RES1    0.0000
     16 C14       -3.2154    3.2496   14.6430 C.2       1 RES1    0.0000
     17 C15       -2.9001    3.1482   13.3583 C.2       1 RES1    0.0000
     18 H1         1.1330   -1.1968   11.2284 H         1 RES1    0.0000
     19 H2         2.0691   -0.6233    9.1540 H         1 RES1    0.0000
     20 H3         1.4568    1.3269    8.0980 H         1 RES1    0.0000
     21 H4        -0.1638    2.7110    9.0329 H         1 RES1    0.0000
     22 H5        -0.9847    2.6941   13.3666 H         1 RES1    0.0000
     23 H6        -2.6465    0.5121   12.7200 H         1 RES1    0.0000
     24 H7        -2.7911   -0.0168   14.7678 H         1 RES1    0.0000
     25 H8        -1.3531    1.2839   16.4823 H         1 RES1    0.0000
     26 H9        -2.4090    3.0674   16.5633 H         1 RES1    0.0000
     27 H10       -3.9550    3.7923   14.9260 H         1 RES1    0.0000
     28 H11       -3.4803    3.5799   12.7269 H         1 RES1    0.0000
     29 H12       -1.2006    3.4605   11.2508 H         1 RES1    0.0000
     30 H13       -2.3259    2.4230   10.9115 H         1 RES1    0.0000
@<TRIPOS>BOND
     1    1    2 1
     2    2    3 2
     3    3    4 1
     4    4    5 ar
     5    5    6 ar
     6    6    7 ar
     7    7    8 ar
     8    8    9 ar
     9    9    4 ar
    10   10    9 1
    11   11   10 1
    12   12    3 1
    13   13    1 1
    14   14   13 1
    15   15   14 2
    16   16   15 1
    17   17   11 1
    18   18    5 1
    19   19    6 1
    20   20    7 1
    21   21    8 1
    22   22   11 1
    23   23   12 1
    24   24   13 1
    25   25   14 1
    26   26   15 1
    27   27   16 1
    28   28   17 1
    29   29   10 1
    30   30   10 1
    31   11   12 1
    32   12   13 1
    33   16   17 2
@<TRIPOS>SUBSTRUCTURE
     1 RES1 1

@<TRIPOS>CRYSIN
   5.1862   12.8392   17.1403  90.0000  90.0000  90.0000  19 1

