# MOL2 file generated by ConQuest
# Please check atom types

@<TRIPOS>MOLECULE
SALMAU
    32    35     1
SMALL
NO_CHARGES
****
Generated from CSD

@<TRIPOS>ATOM
      1 O1         1.2583    0.5950    3.7178 O.3       1 RES1    0.0000
      2 N1         1.1962    1.6225    4.6879 N.2       1 RES1    0.0000
      3 C1         2.3183   -0.3338    4.0693 C.3       1 RES1    0.0000
      4 C2         3.4146   -0.2487    3.0536 C.2       1 RES1    0.0000
      5 C3         4.5241   -0.9435    3.1915 C.2       1 RES1    0.0000
      6 C4         4.7728   -1.8064    4.4057 C.3       1 RES1    0.0000
      7 C5         5.0210   -1.0139    5.6970 C.3       1 RES1    0.0000
      8 C6         4.1987    0.2657    5.8299 C.3       1 RES1    0.0000
      9 C7         2.7148    0.0409    5.5001 C.3       1 RES1    0.0000
     10 C8         1.9753    1.3318    5.6609 C.2       1 RES1    0.0000
     11 C9         2.2129    2.2106    6.7964 C.ar      1 RES1    0.0000
     12 C10        1.3487    3.2518    7.1393 C.ar      1 RES1    0.0000
     13 C11        1.6264    4.0648    8.1928 C.ar      1 RES1    0.0000
     14 C12        2.7759    3.8672    8.9229 C.ar      1 RES1    0.0000
     15 C13        3.6399    2.8624    8.6079 C.ar      1 RES1    0.0000
     16 C14        3.3825    2.0051    7.5364 C.ar      1 RES1    0.0000
     17 C15        4.3148    0.8629    7.2247 C.3       1 RES1    0.0000
     18 H1         2.0214   -1.2455    4.0529 H         1 RES1    0.0000
     19 H2         3.3063    0.3508    2.3120 H         1 RES1    0.0000
     20 H3         5.2007   -0.9299    2.5105 H         1 RES1    0.0000
     21 H4         5.5378   -2.3514    4.2071 H         1 RES1    0.0000
     22 H5         4.0004   -2.3662    4.5123 H         1 RES1    0.0000
     23 H6         5.9569   -0.8027    5.7381 H         1 RES1    0.0000
     24 H7         4.7902   -1.5873    6.4305 H         1 RES1    0.0000
     25 H8         4.5453    0.8902    5.1884 H         1 RES1    0.0000
     26 H9         2.3794   -0.5881    6.1433 H         1 RES1    0.0000
     27 H10        0.5448    3.3881    6.6323 H         1 RES1    0.0000
     28 H11        1.0295    4.7778    8.4307 H         1 RES1    0.0000
     29 H12        2.9679    4.4519    9.6597 H         1 RES1    0.0000
     30 H13        4.4396    2.7477    9.1264 H         1 RES1    0.0000
     31 H14        4.1329    0.1680    7.8613 H         1 RES1    0.0000
     32 H15        5.2059    1.1933    7.3576 H         1 RES1    0.0000
@<TRIPOS>BOND
     1    1    2 1
     2    2   10 2
     3    3    1 1
     4    4    3 1
     5    5    4 2
     6    6    5 1
     7    7    6 1
     8    8    7 1
     9    9    3 1
    10   10    9 1
    11   11   10 1
    12   12   11 ar
    13   13   12 ar
    14   14   13 ar
    15   15   14 ar
    16   16   11 ar
    17   17    8 1
    18   18    3 1
    19   19    4 1
    20   20    5 1
    21   21    6 1
    22   22    6 1
    23   23    7 1
    24   24    7 1
    25   25    8 1
    26   26    9 1
    27   27   12 1
    28   28   13 1
    29   29   14 1
    30   30   15 1
    31   31   17 1
    32   32   17 1
    33    8    9 1
    34   15   16 ar
    35   16   17 1
@<TRIPOS>SUBSTRUCTURE
     1 RES1 1

@<TRIPOS>CRYSIN
   6.2281   11.3541   16.4274  90.0000  92.7490  90.0000 231 1

