# MOL2 file generated by ConQuest
# Please check atom types

@<TRIPOS>MOLECULE
SALOXM07
    17    17     1
SMALL
NO_CHARGES
****
Generated from CSD

@<TRIPOS>ATOM
      1 O1         4.3725    5.1873    7.6046 O.3       1 RES1    0.0000
      2 N1         4.2530    4.3465    6.5006 N.2       1 RES1    0.0000
      3 C1         5.1678    3.4850    6.4674 C.2       1 RES1    0.0000
      4 C2         5.2325    2.4923    5.3965 C.ar      1 RES1    0.0000
      5 C3         4.2269    2.4326    4.4150 C.ar      1 RES1    0.0000
      6 O2         3.2133    3.3276    4.3830 O.3       1 RES1    0.0000
      7 C4         4.2479    1.4102    3.4612 C.ar      1 RES1    0.0000
      8 C5         5.2676    0.5206    3.4578 C.ar      1 RES1    0.0000
      9 C6         6.2915    0.5877    4.3974 C.ar      1 RES1    0.0000
     10 C7         6.2209    1.5696    5.3822 C.ar      1 RES1    0.0000
     11 H1         5.8134    3.4549    7.1531 H         1 RES1    0.0000
     12 H2         3.5807    1.3722    2.8164 H         1 RES1    0.0000
     13 H3         5.2820   -0.1431    2.8131 H         1 RES1    0.0000
     14 H4         6.9855   -0.0380    4.3897 H         1 RES1    0.0000
     15 H5         6.8777    1.5696    6.0501 H         1 RES1    0.0000
     16 H6         3.8436    5.7878    7.4302 H         1 RES1    0.0000
     17 H7         3.3528    3.9720    4.8688 H         1 RES1    0.0000
@<TRIPOS>BOND
     1    1    2 1
     2    2    3 2
     3    3    4 1
     4    4    5 ar
     5    5    6 1
     6    6   17 1
     7    7    5 ar
     8    8    7 ar
     9    9    8 ar
    10   10    4 ar
    11   11    3 1
    12   12    7 1
    13   13    8 1
    14   14    9 1
    15   15   10 1
    16   16    1 1
    17    9   10 ar
@<TRIPOS>SUBSTRUCTURE
     1 RES1 1

@<TRIPOS>CRYSIN
   9.5728    4.9342   11.7537  90.0000 110.0640  90.0000 231 1

