# MOL2 file generated by ConQuest
# Please check atom types

@<TRIPOS>MOLECULE
SALOXM09
    17    17     1
SMALL
NO_CHARGES
****
Generated from CSD

@<TRIPOS>ATOM
      1 O1         2.7010    5.6605    6.8792 O.3       1 RES1    0.0000
      2 N1         2.6048    4.7241    5.8698 N.2       1 RES1    0.0000
      3 C1         3.3723    3.7219    6.0132 C.2       1 RES1    0.0000
      4 C2         3.5248    2.6874    5.0163 C.ar      1 RES1    0.0000
      5 C3         2.7174    2.5708    3.8567 C.ar      1 RES1    0.0000
      6 C4         2.9062    1.4594    3.0897 C.ar      1 RES1    0.0000
      7 C5         3.8174    0.5196    3.3002 C.ar      1 RES1    0.0000
      8 C6         4.7459    0.6535    4.3825 C.ar      1 RES1    0.0000
      9 C7         4.4777    1.7111    5.2382 C.ar      1 RES1    0.0000
     10 O2         1.8691    3.5395    3.5608 O.3       1 RES1    0.0000
     11 H1         3.8581    3.6451    6.8053 H         1 RES1    0.0000
     12 H2         2.3152    1.3411    2.3773 H         1 RES1    0.0000
     13 H3         3.8943   -0.2096    2.7346 H         1 RES1    0.0000
     14 H4         5.4607    0.0664    4.5088 H         1 RES1    0.0000
     15 H5         4.9974    1.7752    6.0075 H         1 RES1    0.0000
     16 H6         2.2097    6.2176    6.5322 H         1 RES1    0.0000
     17 H7         1.3562    3.4754    2.9247 H         1 RES1    0.0000
@<TRIPOS>BOND
     1    1    2 1
     2    2    3 2
     3    3    4 1
     4    4    5 ar
     5    5    6 ar
     6    6    7 ar
     7    7    8 ar
     8    8    9 ar
     9    9    4 ar
    10   10    5 1
    11   11    3 1
    12   12    6 1
    13   13    7 1
    14   14    8 1
    15   15    9 1
    16   16    1 1
    17   17   10 1
@<TRIPOS>SUBSTRUCTURE
     1 RES1 1

@<TRIPOS>CRYSIN
   7.6770    5.7731   12.1590  90.0000 110.6200  90.0000 231 1

