# MOL2 file generated by ConQuest
# Please check atom types

@<TRIPOS>MOLECULE
SALOXM08
    17    17     1
SMALL
NO_CHARGES
****
Generated from CSD

@<TRIPOS>ATOM
      1 O1         4.3838    5.1923    7.5453 O.3       1 RES1    0.0000
      2 N1         4.2550    4.3485    6.4482 N.2       1 RES1    0.0000
      3 C1         5.1945    3.4938    6.3913 C.2       1 RES1    0.0000
      4 C2         5.2550    2.4862    5.3336 C.ar      1 RES1    0.0000
      5 C3         4.2418    2.4221    4.3644 C.ar      1 RES1    0.0000
      6 O2         3.2030    3.3241    4.3458 O.3       1 RES1    0.0000
      7 C4         4.2486    1.3992    3.4237 C.ar      1 RES1    0.0000
      8 C5         5.2372    0.5075    3.4336 C.ar      1 RES1    0.0000
      9 C6         6.2991    0.5741    4.3600 C.ar      1 RES1    0.0000
     10 C7         6.2468    1.5590    5.3215 C.ar      1 RES1    0.0000
     11 H1         3.7712    5.7210    7.4162 H         1 RES1    0.0000
     12 H2         5.8674    3.4893    7.0487 H         1 RES1    0.0000
     13 H3         3.3290    3.9110    4.9004 H         1 RES1    0.0000
     14 H4         3.5672    1.3331    2.8002 H         1 RES1    0.0000
     15 H5         5.2389   -0.1726    2.7915 H         1 RES1    0.0000
     16 H6         7.0058   -0.0464    4.3447 H         1 RES1    0.0000
     17 H7         6.9099    1.5713    5.9877 H         1 RES1    0.0000
@<TRIPOS>BOND
     1    1    2 1
     2    2    3 2
     3    3    4 1
     4    4    5 ar
     5    5    6 1
     6    6   13 1
     7    7    5 ar
     8    8    7 ar
     9    9    8 ar
    10   10    4 ar
    11   11    1 1
    12   12    3 1
    13   14    7 1
    14   15    8 1
    15   16    9 1
    16   17   10 1
    17    9   10 ar
@<TRIPOS>SUBSTRUCTURE
     1 RES1 1

@<TRIPOS>CRYSIN
   9.5130    4.9319   11.6300  90.0000 109.8590  90.0000 231 1

