# MOL2 file generated by ConQuest
# Please check atom types

@<TRIPOS>MOLECULE
SALOXM04
    17    17     1
SMALL
NO_CHARGES
****
Generated from CSD

@<TRIPOS>ATOM
      1 O1         4.2308    5.1279    8.2611 O.3       1 RES1    0.0000
      2 N1         4.1586    4.3486    7.0976 N.2       1 RES1    0.0000
      3 C1         5.0550    3.4841    7.0566 C.2       1 RES1    0.0000
      4 C2         5.2043    2.5610    5.9173 C.ar      1 RES1    0.0000
      5 C3         4.2380    2.5425    4.8830 C.ar      1 RES1    0.0000
      6 O2         3.2100    3.4139    4.8565 O.3       1 RES1    0.0000
      7 C4         4.3760    1.6288    3.8451 C.ar      1 RES1    0.0000
      8 C5         5.4134    0.7445    3.8330 C.ar      1 RES1    0.0000
      9 C6         6.3893    0.7505    4.8384 C.ar      1 RES1    0.0000
     10 C7         6.2305    1.6502    5.8799 C.ar      1 RES1    0.0000
     11 H1         5.7073    3.4538    7.8061 H         1 RES1    0.0000
     12 H2         3.7001    1.5910    3.1415 H         1 RES1    0.0000
     13 H3         5.4631    0.0751    3.1282 H         1 RES1    0.0000
     14 H4         7.1275    0.1199    4.8287 H         1 RES1    0.0000
     15 H5         6.8952    1.6497    6.6089 H         1 RES1    0.0000
     16 H6         3.7178    5.7330    8.0378 H         1 RES1    0.0000
     17 H7         3.2412    3.9514    5.4792 H         1 RES1    0.0000
@<TRIPOS>BOND
     1    1    2 1
     2    2    3 2
     3    3    4 1
     4    4    5 ar
     5    5    6 1
     6    6   17 1
     7    7    5 ar
     8    8    7 ar
     9    9    8 ar
    10   10    4 ar
    11   11    3 1
    12   12    7 1
    13   13    8 1
    14   14    9 1
    15   15   10 1
    16   16    1 1
    17    9   10 ar
@<TRIPOS>SUBSTRUCTURE
     1 RES1 1

@<TRIPOS>CRYSIN
  10.1833    4.9766   13.0109  90.0000 111.9380  90.0000 231 1

