# MOL2 file generated by ConQuest
# Please check atom types

@<TRIPOS>MOLECULE
SALOXM02
    34    34     2
SMALL
NO_CHARGES
****
Generated from CSD

@<TRIPOS>ATOM
      1 O1         2.1558    3.5051    0.3292 O.3       1 RES1    0.0000
      2 N1         1.9234    2.8765    1.5586 N.2       1 RES1    0.0000
      3 C1         1.4019    1.7229    1.4152 C.2       1 RES1    0.0000
      4 C2         1.1020    0.8914    2.5704 C.ar      1 RES1    0.0000
      5 C3         1.3643    1.2959    3.8941 C.ar      1 RES1    0.0000
      6 O2         1.9071    2.5198    4.1727 O.3       1 RES1    0.0000
      7 C4         1.0898    0.4457    4.9557 C.ar      1 RES1    0.0000
      8 C5         0.5491   -0.8028    4.7267 C.ar      1 RES1    0.0000
      9 C6         0.2730   -1.2163    3.4291 C.ar      1 RES1    0.0000
     10 C7         0.5560   -0.3811    2.3705 C.ar      1 RES1    0.0000
     11 H1         2.4158    4.2396    0.5480 H         1 RES1    0.0000
     12 H2         1.2117    1.3937    0.5707 H         1 RES1    0.0000
     13 H3         2.0707    2.8624    3.4014 H         1 RES1    0.0000
     14 H4         1.2784    0.7286    5.8339 H         1 RES1    0.0000
     15 H5         0.3697   -1.3492    5.4677 H         1 RES1    0.0000
     16 H6        -0.1081   -2.0778    3.2852 H         1 RES1    0.0000
     17 H7         0.4172   -0.6651    1.4715 H         1 RES1    0.0000
     18 O3         6.0317    3.2634    6.4732 O.3       2 RES2    0.0000
     19 N2         5.4918    2.1057    5.8908 N.2       2 RES2    0.0000
     20 C8         5.5287    2.1701    4.6147 C.2       2 RES2    0.0000
     21 C9         5.0271    1.0804    3.7893 C.ar      2 RES2    0.0000
     22 C10        4.5179   -0.1053    4.3294 C.ar      2 RES2    0.0000
     23 O4         4.4925   -0.3169    5.6878 O.3       2 RES2    0.0000
     24 C11        4.0217   -1.1029    3.5074 C.ar      2 RES2    0.0000
     25 C12        4.0531   -0.9439    2.1323 C.ar      2 RES2    0.0000
     26 C13        4.5700    0.2154    1.5750 C.ar      2 RES2    0.0000
     27 C14        5.0440    1.2205    2.3926 C.ar      2 RES2    0.0000
     28 H8         5.8899    3.1803    7.3228 H         2 RES2    0.0000
     29 H9         5.8699    2.9311    4.1833 H         2 RES2    0.0000
     30 H10        4.7855    0.4107    6.0157 H         2 RES2    0.0000
     31 H11        3.6513   -1.8909    3.9066 H         2 RES2    0.0000
     32 H12        3.6743   -1.6022    1.5771 H         2 RES2    0.0000
     33 H13        4.5623    0.3306    0.6308 H         2 RES2    0.0000
     34 H14        5.3883    2.0104    2.0155 H         2 RES2    0.0000
@<TRIPOS>BOND
     1    1    2 1
     2    2    3 2
     3    3    4 1
     4    4    5 ar
     5    5    6 1
     6    6   13 1
     7    7    5 ar
     8    8    7 ar
     9    9    8 ar
    10   10    4 ar
    11   11    1 1
    12   12    3 1
    13   14    7 1
    14   15    8 1
    15   16    9 1
    16   17   10 1
    17   18   19 1
    18   19   20 2
    19   20   21 1
    20   21   22 ar
    21   22   23 1
    22   23   30 1
    23   24   22 ar
    24   25   24 ar
    25   26   25 ar
    26   27   21 ar
    27   28   18 1
    28   29   20 1
    29   31   24 1
    30   32   25 1
    31   33   26 1
    32   34   27 1
    33    9   10 ar
    34   26   27 ar
@<TRIPOS>SUBSTRUCTURE
     1 RES1 1
     2 RES2 18

@<TRIPOS>CRYSIN
   7.6691   12.7162   13.3652  90.0000  90.0000  90.0000  19 1

