# MOL2 file generated by ConQuest
# Please check atom types

@<TRIPOS>MOLECULE
SALTII
    53    57     1
SMALL
NO_CHARGES
****
Generated from CSD

@<TRIPOS>ATOM
      1 N1         5.1252    7.9837   11.2087 N.3       1 RES1    0.0000
      2 C1         4.1607    5.6925   13.0433 C.2       1 RES1    0.0000
      3 C2         5.4219    4.8060   11.0968 C.3       1 RES1    0.0000
      4 N2         3.6731    4.5145   13.5276 N.am      1 RES1    0.0000
      5 C3         4.6987    3.4519   13.5025 C.3       1 RES1    0.0000
      6 C4         5.9560    4.2980   13.5661 C.3       1 RES1    0.0000
      7 C5         5.5818    5.4365   12.5745 C.3       1 RES1    0.0000
      8 C6         6.6065    6.5719   12.5166 C.ar      1 RES1    0.0000
      9 C7         7.8803    6.3796   13.0144 C.ar      1 RES1    0.0000
     10 C8         8.9194    7.2894   12.8581 C.ar      1 RES1    0.0000
     11 C9         8.6693    8.4563   12.1520 C.ar      1 RES1    0.0000
     12 C10        7.3917    8.7083   11.6678 C.ar      1 RES1    0.0000
     13 C11        6.3738    7.7894   11.8086 C.ar      1 RES1    0.0000
     14 C12        4.0007    4.4042   10.6511 C.3       1 RES1    0.0000
     15 C13        3.4540    3.1159   11.3167 C.3       1 RES1    0.0000
     16 C14        4.5494    2.5624   12.2523 C.3       1 RES1    0.0000
     17 C15        5.8426    2.4430   11.4498 C.3       1 RES1    0.0000
     18 C16       -0.2656    2.7810   12.4279 C.3       1 RES1    0.0000
     19 C17        1.0382    2.6909   11.7353 C.2       1 RES1    0.0000
     20 C18        2.1685    3.2900   12.0864 C.2       1 RES1    0.0000
     21 C19        2.2771    4.1320   13.3501 C.3       1 RES1    0.0000
     22 C20       10.9494    9.1495   12.2292 C.3       1 RES1    0.0000
     23 C21        4.4457    9.4440    9.5804 C.3       1 RES1    0.0000
     24 O1         3.4724    6.7156   12.9642 O.2       1 RES1    0.0000
     25 O2         6.3215    3.7110   10.9405 O.3       1 RES1    0.0000
     26 O3         9.6077    9.4197   11.8800 O.3       1 RES1    0.0000
     27 O4         4.8829    9.3570   10.8710 O.3       1 RES1    0.0000
     28 H1         4.5416    7.3198   11.0408 H         1 RES1    0.0000
     29 H2         5.7127    5.4861   10.4852 H         1 RES1    0.0000
     30 H3         4.6347    2.9176   14.2973 H         1 RES1    0.0000
     31 H4         6.7131    3.8092   13.2362 H         1 RES1    0.0000
     32 H5         6.1441    4.6198   14.4516 H         1 RES1    0.0000
     33 H6         8.0489    5.5751   13.5102 H         1 RES1    0.0000
     34 H7         9.7958    7.1103   13.2073 H         1 RES1    0.0000
     35 H8         7.2249    9.5219   11.1855 H         1 RES1    0.0000
     36 H9         3.4026    5.1227   10.8691 H         1 RES1    0.0000
     37 H10        3.9823    4.2919    9.6981 H         1 RES1    0.0000
     38 H11        3.2872    2.4784   10.6183 H         1 RES1    0.0000
     39 H12        4.2877    1.6809   12.5302 H         1 RES1    0.0000
     40 H13        5.6865    1.8712   10.6955 H         1 RES1    0.0000
     41 H14        6.5260    2.0382   11.9900 H         1 RES1    0.0000
     42 H15       -0.9103    2.2517   11.9514 H         1 RES1    0.0000
     43 H16       -0.5613    3.6938   12.4588 H         1 RES1    0.0000
     44 H17       -0.1735    2.4440   13.3211 H         1 RES1    0.0000
     45 H18        1.0770    2.1545   10.9405 H         1 RES1    0.0000
     46 H19        1.9698    3.6371   14.1121 H         1 RES1    0.0000
     47 H20        1.7275    4.9133   13.2555 H         1 RES1    0.0000
     48 H21       11.4758    9.9196   12.0054 H         1 RES1    0.0000
     49 H22       11.2373    8.4006   11.7025 H         1 RES1    0.0000
     50 H23       11.0609    8.9451   13.1610 H         1 RES1    0.0000
     51 H24        4.2857   10.3578    9.3354 H         1 RES1    0.0000
     52 H25        3.6401    8.9349    9.4647 H         1 RES1    0.0000
     53 H26        5.1378    9.0797    9.0229 H         1 RES1    0.0000
@<TRIPOS>BOND
     1    1   13 1
     2    2    4 1
     3    3    7 1
     4    4    5 1
     5    5    6 1
     6    6    7 1
     7    7    2 1
     8    8    7 1
     9    9    8 ar
    10   10    9 ar
    11   11   10 ar
    12   12   11 ar
    13   13    8 ar
    14   14    3 1
    15   15   14 1
    16   16    5 1
    17   17   16 1
    18   18   19 1
    19   19   20 2
    20   20   15 1
    21   21    4 1
    22   22   26 1
    23   23   27 1
    24   24    2 2
    25   25    3 1
    26   26   11 1
    27   27    1 1
    28   28    1 1
    29   29    3 1
    30   30    5 1
    31   31    6 1
    32   32    6 1
    33   33    9 1
    34   34   10 1
    35   35   12 1
    36   36   14 1
    37   37   14 1
    38   38   15 1
    39   39   16 1
    40   40   17 1
    41   41   17 1
    42   42   18 1
    43   43   18 1
    44   44   18 1
    45   45   19 1
    46   46   21 1
    47   47   21 1
    48   48   22 1
    49   49   22 1
    50   50   22 1
    51   51   23 1
    52   52   23 1
    53   53   23 1
    54   12   13 ar
    55   15   16 1
    56   17   25 1
    57   20   21 1
@<TRIPOS>SUBSTRUCTURE
     1 RES1 1

@<TRIPOS>CRYSIN
   9.6940   10.1200   19.2920  90.0000  90.0000  90.0000  19 1

