# MOL2 file generated by ConQuest
# Please check atom types

@<TRIPOS>MOLECULE
SALXEJ
    50    52     2
SMALL
NO_CHARGES
****
Generated from CSD

@<TRIPOS>ATOM
      1 N1         3.6818    3.8847   -0.4483 N.pl3     1 RES1    0.0000
      2 N2         3.6845    4.8773    0.5399 N.2       1 RES1    0.0000
      3 N3         4.0786    2.7873    2.2686 N.pl3     1 RES1    0.0000
      4 N4         6.6282   -0.8299    0.3009 N.pl3     1 RES1    0.0000
      5 N5         4.0251    8.3232    4.4467 N.pl3     2 RES2    0.0000
      6 N6         5.1514    7.6936    4.9543 N.2       2 RES2    0.0000
      7 N7         6.2588   10.1436    5.1893 N.pl3     2 RES2    0.0000
      8 N8         3.1369   13.8316    5.0847 N.pl3     2 RES2    0.0000
      9 O1         2.8643    2.9014    2.3437 O.2       1 RES1    0.0000
     10 O2         4.8452    3.0649    3.1734 O.2       1 RES1    0.0000
     11 O3         6.6896   -1.3266    1.4181 O.2       1 RES1    0.0000
     12 O4         7.2174   -1.2838   -0.6832 O.2       1 RES1    0.0000
     13 O5         6.9139    9.9100    4.1807 O.2       2 RES2    0.0000
     14 O6         6.6746   10.0755    6.3130 O.2       2 RES2    0.0000
     15 O7         3.9881   14.5133    5.6517 O.2       2 RES2    0.0000
     16 O8         2.0838   14.2917    4.6727 O.2       2 RES2    0.0000
     17 C1         3.3533    4.4361   -1.7694 C.3       1 RES1    0.0000
     18 H1         2.7093    3.8806   -2.2356 H         1 RES1    0.0000
     19 H2         4.1455    4.5392   -2.3196 H         1 RES1    0.0000
     20 C2         2.7545    5.7882   -1.3910 C.3       1 RES1    0.0000
     21 H3         3.1206    6.5025   -1.9360 H         1 RES1    0.0000
     22 H4         1.7886    5.7836   -1.4749 H         1 RES1    0.0000
     23 C3         3.1711    5.9187    0.0181 C.2       1 RES1    0.0000
     24 H5         3.0656    6.7106    0.4934 H         1 RES1    0.0000
     25 C4         4.6420    2.2028    1.0448 C.ar      1 RES1    0.0000
     26 C5         5.3964    1.0664    1.2257 C.ar      1 RES1    0.0000
     27 H6         5.6062    0.7687    2.0819 H         1 RES1    0.0000
     28 C6         5.8391    0.3735    0.1098 C.ar      1 RES1    0.0000
     29 C7         5.5111    0.7974   -1.1637 C.ar      1 RES1    0.0000
     30 H7         5.7919    0.3075   -1.9024 H         1 RES1    0.0000
     31 C8         4.7737    1.9378   -1.3406 C.ar      1 RES1    0.0000
     32 H8         4.5509    2.2071   -2.2020 H         1 RES1    0.0000
     33 C9         4.3441    2.7141   -0.2415 C.ar      1 RES1    0.0000
     34 C10        2.9533    7.3448    4.1316 C.3       2 RES2    0.0000
     35 H9         2.5675    7.5103    3.2559 H         2 RES2    0.0000
     36 H10        2.2506    7.3587    4.7993 H         2 RES2    0.0000
     37 C11        3.7247    6.0393    4.1613 C.3       2 RES2    0.0000
     38 H11        3.2503    5.3623    4.6689 H         2 RES2    0.0000
     39 H12        3.8919    5.7074    3.2650 H         2 RES2    0.0000
     40 C12        4.9705    6.4287    4.8277 C.2       2 RES2    0.0000
     41 H13        5.5863    5.8037    5.1364 H         2 RES2    0.0000
     42 C13        4.8627   10.5621    4.9853 C.ar      2 RES2    0.0000
     43 C14        4.6362   11.9049    5.1700 C.ar      2 RES2    0.0000
     44 H14        5.3179   12.4654    5.4644 H         2 RES2    0.0000
     45 C15        3.3836   12.4038    4.9104 C.ar      2 RES2    0.0000
     46 C16        2.3566   11.5775    4.4855 C.ar      2 RES2    0.0000
     47 H15        1.5193   11.9336    4.2943 H         2 RES2    0.0000
     48 C17        2.5801   10.2282    4.3460 C.ar      2 RES2    0.0000
     49 H16        1.8801    9.6764    4.0799 H         2 RES2    0.0000
     50 C18        3.8418    9.6632    4.5978 C.ar      2 RES2    0.0000
@<TRIPOS>BOND
     1    1    2 1
     2    2   23 2
     3    3    9 2
     4    4   11 2
     5    5    6 1
     6    6   40 2
     7    7   13 2
     8    8   15 2
     9   10    3 2
    10   12    4 2
    11   14    7 2
    12   16    8 2
    13   17    1 1
    14   18   17 1
    15   19   17 1
    16   20   17 1
    17   21   20 1
    18   22   20 1
    19   23   20 1
    20   24   23 1
    21   25    3 1
    22   26   25 ar
    23   27   26 1
    24   28    4 1
    25   29   28 ar
    26   30   29 1
    27   31   29 ar
    28   32   31 1
    29   33    1 1
    30   34    5 1
    31   35   34 1
    32   36   34 1
    33   37   34 1
    34   38   37 1
    35   39   37 1
    36   40   37 1
    37   41   40 1
    38   42    7 1
    39   43   42 ar
    40   44   43 1
    41   45    8 1
    42   46   45 ar
    43   47   46 1
    44   48   46 ar
    45   49   48 1
    46   50    5 1
    47   25   33 ar
    48   26   28 ar
    49   31   33 ar
    50   42   50 ar
    51   43   45 ar
    52   48   50 ar
@<TRIPOS>SUBSTRUCTURE
     1 RES1 1
     2 RES2 5

@<TRIPOS>CRYSIN
   8.0211   10.3927   13.2960  76.2610  86.1330  75.2460   2 1

