# MOL2 file generated by ConQuest
# Please check atom types

@<TRIPOS>MOLECULE
SALXIN
    36    37     1
SMALL
NO_CHARGES
****
Generated from CSD

@<TRIPOS>ATOM
      1 N1         1.9059    3.3180    4.2989 N.pl3     1 RES1    0.0000
      2 N2         0.7658    3.4259    5.1140 N.2       1 RES1    0.0000
      3 N3         4.4336    4.3764    3.2053 N.pl3     1 RES1    0.0000
      4 N4         6.8332    2.1856    6.8049 N.pl3     1 RES1    0.0000
      5 N5         2.0049    1.8365    6.7873 N.pl3     1 RES1    0.0000
      6 O1         3.4804    5.1040    2.9687 O.2       1 RES1    0.0000
      7 O2         5.4949    4.4094    2.5825 O.2       1 RES1    0.0000
      8 O3         7.8651    2.3797    6.1650 O.2       1 RES1    0.0000
      9 O4         6.8074    1.7408    7.9469 O.2       1 RES1    0.0000
     10 O5         1.6772    2.2900    7.8762 O.2       1 RES1    0.0000
     11 O6         1.4500    0.9122    6.2087 O.2       1 RES1    0.0000
     12 C1        -0.2550    3.4598    4.3469 C.2       1 RES1    0.0000
     13 C2         0.0718    3.3728    2.8713 C.3       1 RES1    0.0000
     14 H1        -0.5039    2.6817    2.4352 H         1 RES1    0.0000
     15 C3         1.5166    2.8915    2.9159 C.3       1 RES1    0.0000
     16 H2         2.0713    3.3580    2.2274 H         1 RES1    0.0000
     17 C4        -1.6201    3.6931    4.9062 C.3       1 RES1    0.0000
     18 H3        -1.5701    3.7262    5.8841 H         1 RES1    0.0000
     19 H4        -2.2140    2.9637    4.6333 H         1 RES1    0.0000
     20 H5        -1.9690    4.5444    4.5670 H         1 RES1    0.0000
     21 C5        -0.1205    4.7158    2.1841 C.3       1 RES1    0.0000
     22 H6        -1.0742    4.9421    2.1700 H         1 RES1    0.0000
     23 H7         0.2175    4.6636    1.2661 H         1 RES1    0.0000
     24 H8         0.3720    5.4069    2.6749 H         1 RES1    0.0000
     25 C6         1.6496    1.3839    2.7948 C.3       1 RES1    0.0000
     26 H9         2.5950    1.1333    2.8585 H         1 RES1    0.0000
     27 H10        1.2925    1.0932    1.9303 H         1 RES1    0.0000
     28 H11        1.1480    0.9522    3.5177 H         1 RES1    0.0000
     29 C7         4.3540    3.4677    4.3625 C.ar      1 RES1    0.0000
     30 C8         5.5561    3.1639    4.9586 C.ar      1 RES1    0.0000
     31 H12        6.3748    3.4067    4.5415 H         1 RES1    0.0000
     32 C9         5.5603    2.5033    6.1682 C.ar      1 RES1    0.0000
     33 C10        4.3826    2.1438    6.8031 C.ar      1 RES1    0.0000
     34 H13        4.3912    1.7330    7.6589 H         1 RES1    0.0000
     35 C11        3.2033    2.4032    6.1502 C.ar      1 RES1    0.0000
     36 C12        3.1038    3.0682    4.9067 C.ar      1 RES1    0.0000
@<TRIPOS>BOND
     1    1    2 1
     2    2   12 2
     3    3    6 2
     4    4    8 2
     5    5   10 2
     6    7    3 2
     7    9    4 2
     8   11    5 2
     9   12   13 1
    10   13   14 1
    11   15    1 1
    12   16   15 1
    13   17   12 1
    14   18   17 1
    15   19   17 1
    16   20   17 1
    17   21   13 1
    18   22   21 1
    19   23   21 1
    20   24   21 1
    21   25   15 1
    22   26   25 1
    23   27   25 1
    24   28   25 1
    25   29    3 1
    26   30   29 ar
    27   31   30 1
    28   32    4 1
    29   33   32 ar
    30   34   33 1
    31   35    5 1
    32   36    1 1
    33   13   15 1
    34   29   36 ar
    35   30   32 ar
    36   33   35 ar
    37   35   36 ar
@<TRIPOS>SUBSTRUCTURE
     1 RES1 1

@<TRIPOS>CRYSIN
  12.7610    8.7040   13.8480  90.0000 112.9700  90.0000  14 1

