# MOL2 file generated by ConQuest
# Please check atom types

@<TRIPOS>MOLECULE
SALXAH
    42    45     1
SMALL
NO_CHARGES
****
Generated from CSD

@<TRIPOS>ATOM
      1 O1         5.3319    5.5573    3.4931 O.2       1 RES1    0.0000
      2 O2         3.6559    6.9162    3.6324 O.2       1 RES1    0.0000
      3 N1         8.8855   11.6591   -1.2536 N.3       1 RES1    0.0000
      4 N2         4.7998    6.6489    3.2748 N.pl3     1 RES1    0.0000
      5 C1         8.4997   10.4231   -0.7489 C.2       1 RES1    0.0000
      6 C2        10.2967    8.9628   -1.6795 C.ar      1 RES1    0.0000
      7 H1        10.9110    9.6392   -1.5052 H         1 RES1    0.0000
      8 C3         4.9696    8.8765    2.3051 C.ar      1 RES1    0.0000
      9 H2         4.1068    9.0511    2.6060 H         1 RES1    0.0000
     10 C4         5.5720    7.6610    2.5582 C.ar      1 RES1    0.0000
     11 C5         8.4556    6.9436   -2.2103 C.ar      1 RES1    0.0000
     12 H3         7.8434    6.2680   -2.3907 H         1 RES1    0.0000
     13 C6         6.8846    7.3925    2.1837 C.ar      1 RES1    0.0000
     14 H4         7.2866    6.5828    2.4015 H         1 RES1    0.0000
     15 C7         5.6740    9.8251    1.5988 C.ar      1 RES1    0.0000
     16 H5         5.2713   10.6431    1.4160 H         1 RES1    0.0000
     17 C8         7.6558   10.6201    0.3425 C.2       1 RES1    0.0000
     18 C9         7.5059   12.0440    0.5001 C.ar      1 RES1    0.0000
     19 C10        8.9487    9.1611   -1.3659 C.ar      1 RES1    0.0000
     20 N3        10.6890    4.5432   -3.5125 N.1       1 RES1    0.0000
     21 C11        8.2801   12.6524   -0.5134 C.ar      1 RES1    0.0000
     22 C12        6.9827    9.5944    1.1463 C.ar      1 RES1    0.0000
     23 C13        9.8126    6.7642   -2.5027 C.ar      1 RES1    0.0000
     24 C14       10.7298    7.7844   -2.2427 C.ar      1 RES1    0.0000
     25 H6        11.6287    7.6675   -2.4492 H         1 RES1    0.0000
     26 C15       10.2863    5.5327   -3.0812 C.1       1 RES1    0.0000
     27 C16        7.5764    8.3596    1.4807 C.ar      1 RES1    0.0000
     28 H7         8.4533    8.1929    1.2223 H         1 RES1    0.0000
     29 C17        8.0359    8.1338   -1.6518 C.ar      1 RES1    0.0000
     30 H8         7.1342    8.2567   -1.4621 H         1 RES1    0.0000
     31 C18        8.3584   14.0346   -0.6805 C.ar      1 RES1    0.0000
     32 H9         8.8847   14.4120   -1.3484 H         1 RES1    0.0000
     33 C19        7.6241   14.8193    0.1856 C.ar      1 RES1    0.0000
     34 H10        7.6373   15.7445    0.0892 H         1 RES1    0.0000
     35 C20        9.6480   11.9336   -2.4744 C.3       1 RES1    0.0000
     36 H11       10.5453   12.1830   -2.2416 H         1 RES1    0.0000
     37 H12        9.2317   12.6509   -2.9581 H         1 RES1    0.0000
     38 H13        9.6671   11.1461   -3.0242 H         1 RES1    0.0000
     39 C21        6.8046   12.8699    1.3931 C.ar      1 RES1    0.0000
     40 H14        6.3155   12.5020    2.0940 H         1 RES1    0.0000
     41 C22        6.8531   14.2383    1.2144 C.ar      1 RES1    0.0000
     42 H15        6.3662   14.7885    1.7850 H         1 RES1    0.0000
@<TRIPOS>BOND
     1    1    4 2
     2    2    4 2
     3    3    5 1
     4    4   10 1
     5    5   17 2
     6    6    7 1
     7    8    9 1
     8   10    8 ar
     9   11   12 1
    10   13   10 ar
    11   14   13 1
    12   15    8 ar
    13   16   15 1
    14   17   18 1
    15   18   21 ar
    16   19    5 1
    17   20   26 3
    18   21    3 1
    19   22   15 ar
    20   23   11 ar
    21   24    6 ar
    22   25   24 1
    23   26   23 1
    24   27   13 ar
    25   28   27 1
    26   29   11 ar
    27   30   29 1
    28   31   21 ar
    29   32   31 1
    30   33   31 ar
    31   34   33 1
    32   35    3 1
    33   36   35 1
    34   37   35 1
    35   38   35 1
    36   39   18 ar
    37   40   39 1
    38   41   33 ar
    39   42   41 1
    40    6   19 ar
    41   17   22 1
    42   19   29 ar
    43   22   27 ar
    44   23   24 ar
    45   39   41 ar
@<TRIPOS>SUBSTRUCTURE
     1 RES1 1

@<TRIPOS>CRYSIN
  10.5280   10.6346   15.9644  90.0000 105.6230  90.0000  14 1

