# MOL2 file generated by ConQuest
# Please check atom types

@<TRIPOS>MOLECULE
SALXOS
    45    48     2
SMALL
NO_CHARGES
****
Generated from CSD

@<TRIPOS>ATOM
      1 N1        12.2864    2.2139    6.8499 N.am      1 RES1    0.0000
      2 C1        11.3264    3.0643    7.3232 C.2       1 RES1    0.0000
      3 O1        11.3160    3.4949    8.4507 O.2       1 RES1    0.0000
      4 C2         8.6950    4.8630    8.6700 C.2       1 RES1    0.0000
      5 C3        11.0354    2.6215    4.9960 C.ar      1 RES1    0.0000
      6 O2         8.1189    2.4789    5.4103 O.3       1 RES1    0.0000
      7 C4        10.2987    3.2477    6.1538 C.3       1 RES1    0.0000
      8 C5        12.1857    1.9983    5.4684 C.ar      1 RES1    0.0000
      9 N2         9.2239    5.7163    7.8858 N.2       1 RES1    0.0000
     10 C6         8.7720    5.3795    6.4994 C.3       1 RES1    0.0000
     11 C7        10.7280    2.5718    3.6311 C.ar      1 RES1    0.0000
     12 O3        13.3968    1.8598    7.5979 O.3       1 RES1    0.0000
     13 O4         8.4764    4.0835   10.8550 O.2       1 RES1    0.0000
     14 C8        13.0487    1.3012    4.6586 C.ar      1 RES1    0.0000
     15 C9         9.0677    2.3447    6.4553 C.3       1 RES1    0.0000
     16 C10        7.1701    3.5408    5.5497 C.3       1 RES1    0.0000
     17 C11        7.7617    3.8491    8.0423 C.3       1 RES1    0.0000
     18 C12       11.5978    1.9117    2.7736 C.ar      1 RES1    0.0000
     19 C13       12.7300    1.3147    3.2723 C.ar      1 RES1    0.0000
     20 C14        9.0592    4.8420   10.1464 C.2       1 RES1    0.0000
     21 C15        8.4283    2.4645    7.8275 C.3       1 RES1    0.0000
     22 C16       13.1327    0.6119    8.3181 C.3       1 RES1    0.0000
     23 C17        7.4945    4.5181    6.6677 C.3       1 RES1    0.0000
     24 C18        9.9295    4.7125    5.7903 C.3       1 RES1    0.0000
     25 C19       10.1221    5.8104   10.6132 C.3       1 RES1    0.0000
     26 H1         8.6587    6.1459    5.9175 H         1 RES1    0.0000
     27 H2         9.8264    3.0397    3.2422 H         1 RES1    0.0000
     28 H3        13.9082    0.7844    5.0778 H         1 RES1    0.0000
     29 H4         9.4444    1.3928    6.2777 H         1 RES1    0.0000
     30 H5         7.1138    4.1153    4.6267 H         1 RES1    0.0000
     31 H6         6.1886    3.1211    5.7540 H         1 RES1    0.0000
     32 H7         6.9313    3.7962    8.5653 H         1 RES1    0.0000
     33 H8        11.3912    1.8621    1.7097 H         1 RES1    0.0000
     34 H9        13.3802    0.8421    2.5614 H         1 RES1    0.0000
     35 H10        9.1940    2.3293    8.6085 H         1 RES1    0.0000
     36 H11        7.6612    1.6978    7.9249 H         1 RES1    0.0000
     37 H12       14.0152    0.3260    8.9116 H         1 RES1    0.0000
     38 H13       12.8958   -0.1793    7.6025 H         1 RES1    0.0000
     39 H14       12.2885    0.7565    8.9760 H         1 RES1    0.0000
     40 H15        6.6512    5.0321    6.6415 H         1 RES1    0.0000
     41 H16       10.4736    5.2630    5.0493 H         1 RES1    0.0000
     42 H17       10.2916    5.6909   11.6871 H         1 RES1    0.0000
     43 H18        9.7946    6.8250   10.3954 H         1 RES1    0.0000
     44 H19       11.0467    5.6026   10.0940 H         1 RES1    0.0000
     45 H20       10.7359    5.4280    5.8348 Du        2 SUP2    0.0000
@<TRIPOS>BOND
     1    1    2 1
     2    2    3 2
     3    4    9 2
     4    5    7 1
     5    6   15 1
     6    7    2 1
     7    8    1 1
     8    9   10 1
     9   10   23 1
    10   11    5 ar
    11   12    1 1
    12   13   20 2
    13   14    8 ar
    14   15    7 1
    15   16    6 1
    16   17    4 1
    17   18   11 ar
    18   19   14 ar
    19   20    4 1
    20   21   15 1
    21   22   12 1
    22   23   16 1
    23   24    7 1
    24   25   20 1
    25   26   10 1
    26   27   11 1
    27   28   14 1
    28   29   15 1
    29   30   16 1
    30   31   16 1
    31   32   17 1
    32   33   18 1
    33   34   19 1
    34   35   21 1
    35   36   21 1
    36   37   22 1
    37   38   22 1
    38   39   22 1
    39   40   23 1
    40   41   24 1
    41   42   25 1
    42   43   25 1
    43   44   25 1
    44    5    8 ar
    45   10   24 1
    46   17   21 1
    47   17   23 1
    48   18   19 ar
@<TRIPOS>SUBSTRUCTURE
     1 RES1 1
     2 SUP2 45

@<TRIPOS>CRYSIN
  13.6445    6.7910    9.1878  90.0000  89.3800  90.0000   4 1

