# MOL2 file generated by ConQuest
# Please check atom types

@<TRIPOS>MOLECULE
SALYAI
    41    44     1
SMALL
NO_CHARGES
****
Generated from CSD

@<TRIPOS>ATOM
      1 O1         0.1616    7.1076    4.3566 O.3       1 RES1    0.0000
      2 O2        -4.1168    7.4709   -0.3987 O.3       1 RES1    0.0000
      3 C1        -0.9969    8.5476    1.0913 C.ar      1 RES1    0.0000
      4 H1        -0.3236    9.1919    0.9050 H         1 RES1    0.0000
      5 N1         4.4693   14.2420    5.5922 N.pl3     1 RES1    0.0000
      6 C2        -3.0755    7.5070    0.5025 C.ar      1 RES1    0.0000
      7 C3         0.3157    7.8665    3.1409 C.3       1 RES1    0.0000
      8 H2         1.1387    7.5603    2.6617 H         1 RES1    0.0000
      9 C4        -2.9646    6.6898    1.6033 C.ar      1 RES1    0.0000
     10 H3        -3.6361    6.0426    1.7837 H         1 RES1    0.0000
     11 C5        -1.8722    6.8100    2.4499 C.ar      1 RES1    0.0000
     12 H4        -1.8057    6.2394    3.2066 H         1 RES1    0.0000
     13 C6        -0.8777    7.7413    2.2161 C.ar      1 RES1    0.0000
     14 C7         0.5172    9.2873    3.6186 C.3       1 RES1    0.0000
     15 H5         0.3559   10.0457    2.9875 H         1 RES1    0.0000
     16 O3         5.3718   14.2235    6.4154 O.2       1 RES1    0.0000
     17 O4         4.2072   15.2091    4.8939 O.2       1 RES1    0.0000
     18 C8         1.4202    9.4888    4.8019 C.3       1 RES1    0.0000
     19 H6         1.9460    8.6749    5.0487 H         1 RES1    0.0000
     20 C9         4.1366   11.8371    5.8836 C.ar      1 RES1    0.0000
     21 H7         4.9711   11.7864    6.3350 H         1 RES1    0.0000
     22 C10        2.1513   10.7621    5.0290 C.ar      1 RES1    0.0000
     23 C11       -0.9134   10.4244    5.4249 C.1       1 RES1    0.0000
     24 C12        3.3715   10.7092    5.6762 C.ar      1 RES1    0.0000
     25 H8         3.6927    9.8702    5.9866 H         1 RES1    0.0000
     26 C13        3.6546   13.0366    5.4183 C.ar      1 RES1    0.0000
     27 C14        2.4426   13.1414    4.7836 C.ar      1 RES1    0.0000
     28 H9         2.1267   13.9847    4.4775 H         1 RES1    0.0000
     29 C15       -0.0868    9.3304    5.0035 C.3       1 RES1    0.0000
     30 C16       -2.0732    8.4309    0.2403 C.ar      1 RES1    0.0000
     31 H10       -2.1295    8.9856   -0.5296 H         1 RES1    0.0000
     32 C17        1.6879   11.9958    4.5988 C.ar      1 RES1    0.0000
     33 H11        0.8418   12.0567    4.1708 H         1 RES1    0.0000
     34 C18       -0.5404    7.9161    5.2978 C.3       1 RES1    0.0000
     35 H12       -0.3087    7.6576    6.2255 H         1 RES1    0.0000
     36 H13       -1.5194    7.8283    5.1766 H         1 RES1    0.0000
     37 C19       -5.1496    6.5043   -0.1797 C.3       1 RES1    0.0000
     38 H14       -4.7505    5.6133   -0.0979 H         1 RES1    0.0000
     39 H15       -5.7726    6.5145   -0.9364 H         1 RES1    0.0000
     40 H16       -5.6320    6.7232    0.6442 H         1 RES1    0.0000
     41 N2        -1.6065   11.2800    5.7266 N.1       1 RES1    0.0000
@<TRIPOS>BOND
     1    1    7 1
     2    2    6 1
     3    3    4 1
     4    5   16 2
     5    6    9 ar
     6    7    8 1
     7    9   10 1
     8   11    9 ar
     9   12   11 1
    10   13    3 ar
    11   14    7 1
    12   15   14 1
    13   17    5 2
    14   18   14 1
    15   19   18 1
    16   20   21 1
    17   22   18 1
    18   23   29 1
    19   24   20 ar
    20   25   24 1
    21   26    5 1
    22   27   26 ar
    23   28   27 1
    24   29   14 1
    25   30    3 ar
    26   31   30 1
    27   32   22 ar
    28   33   32 1
    29   34    1 1
    30   35   34 1
    31   36   34 1
    32   37    2 1
    33   38   37 1
    34   39   37 1
    35   40   37 1
    36   41   23 3
    37    6   30 ar
    38    7   13 1
    39   11   13 ar
    40   18   29 1
    41   20   26 ar
    42   22   24 ar
    43   27   32 ar
    44   29   34 1
@<TRIPOS>SUBSTRUCTURE
     1 RES1 1

@<TRIPOS>CRYSIN
   9.4652   23.7150    7.4848  90.0000 102.6080  90.0000  14 1

