# MOL2 file generated by ConQuest
# Please check atom types

@<TRIPOS>MOLECULE
SALYEL
    18    18     1
SMALL
NO_CHARGES
****
Generated from CSD

@<TRIPOS>ATOM
      1 O1         1.0458   11.2904    2.2263 O.3       1 RES1    0.0000
      2 O2         0.6643    7.9085    2.1240 O.3       1 RES1    0.0000
      3 N1         0.2870   10.1356    1.8911 N.2       1 RES1    0.0000
      4 N2         2.2710    9.5232    2.8207 N.2       1 RES1    0.0000
      5 N3         3.0474   11.8072    3.1511 N.2       1 RES1    0.0000
      6 N4         4.6622   10.2290    3.9114 N.3       1 RES1    0.0000
      7 N5         4.9779   12.4976    4.1292 N.3       1 RES1    0.0000
      8 C1         1.0710    9.1695    2.2795 C.2       1 RES1    0.0000
      9 C2         2.2154   10.8434    2.7717 C.2       1 RES1    0.0000
     10 C3         4.2214   11.4722    3.7262 C.2       1 RES1    0.0000
     11 C4         1.5579    6.8886    2.6113 C.3       1 RES1    0.0000
     12 H1         2.4113    6.9462    2.1337 H         1 RES1    0.0000
     13 H2         1.1589    6.0056    2.4620 H         1 RES1    0.0000
     14 H3         1.7110    7.0192    3.5707 H         1 RES1    0.0000
     15 H4         5.4174   10.1882    4.3061 H         1 RES1    0.0000
     16 H5         4.1822    9.5679    3.6564 H         1 RES1    0.0000
     17 H6         4.7283   13.2978    3.9882 H         1 RES1    0.0000
     18 H7         5.7066   12.3788    4.4098 H         1 RES1    0.0000
@<TRIPOS>BOND
     1    1    3 1
     2    2    8 1
     3    3    8 2
     4    4    8 1
     5    5    9 1
     6    6   10 1
     7    7   10 1
     8    9    1 1
     9   10    5 2
    10   11    2 1
    11   12   11 1
    12   13   11 1
    13   14   11 1
    14   15    6 1
    15   16    6 1
    16   17    7 1
    17   18    7 1
    18    4    9 2
@<TRIPOS>SUBSTRUCTURE
     1 RES1 1

@<TRIPOS>CRYSIN
   7.1290   13.5140    6.9150  90.0000  91.7150  90.0000  14 1

