# MOL2 file generated by ConQuest
# Please check atom types

@<TRIPOS>MOLECULE
SAMCUH
    38    39     1
SMALL
NO_CHARGES
****
Generated from CSD

@<TRIPOS>ATOM
      1 N1        10.2023    2.8338    1.9591 N.am      1 RES1    0.0000
      2 H1         9.9770    1.9445    1.9882 H         1 RES1    0.0000
      3 N2        19.8961    0.9034    1.8279 N.pl3     1 RES1    0.0000
      4 O1         9.3964    4.9532    1.7781 O.2       1 RES1    0.0000
      5 O2        15.5261    4.1441    3.0842 O.3       1 RES1    0.0000
      6 O3        20.8677    0.9537    2.5817 O.2       1 RES1    0.0000
      7 O4        19.8475    0.1769    0.8424 O.2       1 RES1    0.0000
      8 C1         9.2078    3.7391    1.7615 C.2       1 RES1    0.0000
      9 C2         7.8412    3.1528    1.4957 C.3       1 RES1    0.0000
     10 H2         7.6519    3.2207    0.5269 H         1 RES1    0.0000
     11 H3         7.8611    2.1908    1.7282 H         1 RES1    0.0000
     12 C3         6.7325    3.7919    2.2359 C.3       1 RES1    0.0000
     13 H4         6.7537    4.7676    2.0679 H         1 RES1    0.0000
     14 H5         6.8684    3.6487    3.2068 H         1 RES1    0.0000
     15 C4         5.3617    3.2510    1.8414 C.3       1 RES1    0.0000
     16 H6         4.6686    3.7034    2.3661 H         1 RES1    0.0000
     17 H7         5.3274    2.2875    2.0159 H         1 RES1    0.0000
     18 H8         5.2081    3.4152    0.8875 H         1 RES1    0.0000
     19 C5        11.5711    3.1592    2.1998 C.ar      1 RES1    0.0000
     20 C6        12.2668    2.4585    3.1581 C.ar      1 RES1    0.0000
     21 H9        11.8338    1.7608    3.6349 H         1 RES1    0.0000
     22 C7        13.5913    2.7566    3.4366 C.ar      1 RES1    0.0000
     23 H10       14.0648    2.2768    4.1064 H         1 RES1    0.0000
     24 C8        14.2080    3.7567    2.7289 C.ar      1 RES1    0.0000
     25 C9        13.5536    4.4368    1.7433 C.ar      1 RES1    0.0000
     26 H11       14.0047    5.1071    1.2428 H         1 RES1    0.0000
     27 C10       12.2252    4.1417    1.4763 C.ar      1 RES1    0.0000
     28 H12       11.7613    4.6151    0.7956 H         1 RES1    0.0000
     29 C11       16.5656    3.3013    2.7388 C.ar      1 RES1    0.0000
     30 C12       16.4688    2.3691    1.7268 C.ar      1 RES1    0.0000
     31 H13       15.6573    2.2660    1.2446 H         1 RES1    0.0000
     32 C13       17.5677    1.5864    1.4212 C.ar      1 RES1    0.0000
     33 H14       17.5201    0.9405    0.7263 H         1 RES1    0.0000
     34 C14       18.7411    1.7574    2.1437 C.ar      1 RES1    0.0000
     35 C15       18.8405    2.6867    3.1553 C.ar      1 RES1    0.0000
     36 H15       19.6487    2.7849    3.6436 H         1 RES1    0.0000
     37 C16       17.7458    3.4718    3.4474 C.ar      1 RES1    0.0000
     38 H16       17.7988    4.1280    4.1324 H         1 RES1    0.0000
@<TRIPOS>BOND
     1    1    2 1
     2    3    6 2
     3    4    8 2
     4    5   24 1
     5    7    3 2
     6    8    1 1
     7    9    8 1
     8   10    9 1
     9   11    9 1
    10   12    9 1
    11   13   12 1
    12   14   12 1
    13   15   12 1
    14   16   15 1
    15   17   15 1
    16   18   15 1
    17   19    1 1
    18   20   19 ar
    19   21   20 1
    20   22   20 ar
    21   23   22 1
    22   24   22 ar
    23   25   24 ar
    24   26   25 1
    25   27   19 ar
    26   28   27 1
    27   29    5 1
    28   30   29 ar
    29   31   30 1
    30   32   30 ar
    31   33   32 1
    32   34    3 1
    33   35   34 ar
    34   36   35 1
    35   37   29 ar
    36   38   37 1
    37   25   27 ar
    38   32   34 ar
    39   35   37 ar
@<TRIPOS>SUBSTRUCTURE
     1 RES1 1

@<TRIPOS>CRYSIN
  17.9122    4.8858   18.9291  90.0000 113.6910  90.0000 231 1

