# MOL2 file generated by ConQuest
# Please check atom types

@<TRIPOS>MOLECULE
SAMROP
    28    28     1
SMALL
NO_CHARGES
****
Generated from CSD

@<TRIPOS>ATOM
      1 O1        -0.3486  -16.9255   -1.9220 O.3       1 RES1    0.0000
      2 O2        -4.3736  -21.8316    2.1043 O.2       1 RES1    0.0000
      3 O3        -4.4425  -22.6004    0.0989 O.2       1 RES1    0.0000
      4 N1        -1.2748  -19.5979    0.8217 N.3       1 RES1    0.0000
      5 N2        -2.9555  -21.0686    0.4890 N.2       1 RES1    0.0000
      6 N3        -2.4893  -20.1719    2.6752 N.pl3     1 RES1    0.0000
      7 C1        -1.4486  -18.7705   -2.9204 C.3       1 RES1    0.0000
      8 C2        -1.6908  -19.3501    3.5501 C.3       1 RES1    0.0000
      9 C3        -0.9397  -19.6383   -0.5964 C.3       1 RES1    0.0000
     10 C4        -1.4941  -17.2346   -1.1345 C.3       1 RES1    0.0000
     11 N4        -3.9490  -21.8388    0.9424 N.pl3     1 RES1    0.0000
     12 C5        -1.7931  -18.6957   -1.4253 C.3       1 RES1    0.0000
     13 C6        -2.2732  -20.2883    1.3782 C.2       1 RES1    0.0000
     14 C7        -0.4284  -17.6875   -3.1239 C.3       1 RES1    0.0000
     15 H1        -1.0535  -19.6234   -3.1155 H         1 RES1    0.0000
     16 H2        -2.2321  -18.5740   -3.4395 H         1 RES1    0.0000
     17 H3         0.4262  -18.0837   -3.3094 H         1 RES1    0.0000
     18 H4        -0.7056  -17.1184   -3.8460 H         1 RES1    0.0000
     19 H5        -2.2342  -16.6937   -1.4199 H         1 RES1    0.0000
     20 H6        -1.2808  -17.1306   -0.2043 H         1 RES1    0.0000
     21 H7        -2.6900  -18.9620   -1.2101 H         1 RES1    0.0000
     22 H8        -1.0427  -20.5347   -0.9241 H         1 RES1    0.0000
     23 H9        -0.0131  -19.4168   -0.7127 H         1 RES1    0.0000
     24 H10       -0.8033  -19.0786    1.2498 H         1 RES1    0.0000
     25 H11       -1.9176  -19.5408    4.4633 H         1 RES1    0.0000
     26 H12       -0.7608  -19.5386    3.4054 H         1 RES1    0.0000
     27 H13       -1.8626  -18.4241    3.3644 H         1 RES1    0.0000
     28 H14       -3.0941  -20.5974    2.9600 H         1 RES1    0.0000
@<TRIPOS>BOND
     1    1   10 1
     2    2   11 2
     3    3   11 2
     4    4    9 1
     5    5   11 1
     6    6    8 1
     7    7   12 1
     8    8   25 1
     9    9   12 1
    10   10   12 1
    11   12   21 1
    12   13    4 1
    13   14    1 1
    14   15    7 1
    15   16    7 1
    16   17   14 1
    17   18   14 1
    18   19   10 1
    19   20   10 1
    20   22    9 1
    21   23    9 1
    22   24    4 1
    23   26    8 1
    24   27    8 1
    25   28    6 1
    26    5   13 2
    27    6   13 1
    28    7   14 1
@<TRIPOS>SUBSTRUCTURE
     1 RES1 1

@<TRIPOS>CRYSIN
   5.5250   17.1231   10.1868  90.0000  90.8580  90.0000  14 1

