# MOL2 file generated by ConQuest
# Please check atom types

@<TRIPOS>MOLECULE
SANQAA
    24    25     1
SMALL
NO_CHARGES
****
Generated from CSD

@<TRIPOS>ATOM
      1 O1         7.4320    4.7891   16.6320 O.2       1 RES1    0.0000
      2 O2         8.2814    4.0366   14.8130 O.2       1 RES1    0.0000
      3 N1         4.2059    2.0217   12.6054 N.3       1 RES1    0.0000
      4 N2         3.3926    2.5437   14.6233 N.2       1 RES1    0.0000
      5 N3         7.3282    4.2060   15.5559 N.pl3     1 RES1    0.0000
      6 C1         4.4488    2.5575   13.7961 C.2       1 RES1    0.0000
      7 C2         2.4212    1.9477   13.8804 C.ar      1 RES1    0.0000
      8 C3         2.8906    1.5928   12.5962 C.ar      1 RES1    0.0000
      9 C4         2.1457    0.9662   11.6439 C.ar      1 RES1    0.0000
     10 C5         0.8061    0.6792   12.0430 C.ar      1 RES1    0.0000
     11 C6         0.3224    1.0700   13.3167 C.ar      1 RES1    0.0000
     12 C7         1.0808    1.6836   14.2110 C.ar      1 RES1    0.0000
     13 C8         5.7666    3.0818   14.1096 C.2       1 RES1    0.0000
     14 C9         6.0220    3.6840   15.2687 C.2       1 RES1    0.0000
     15 C10        5.0854    1.9477   11.4357 C.3       1 RES1    0.0000
     16 H1         2.5373    0.6869   10.7350 H         1 RES1    0.0000
     17 H2         0.2787    0.2442   11.2750 H         1 RES1    0.0000
     18 H3        -0.5949    0.9158   13.4352 H         1 RES1    0.0000
     19 H4         0.7599    1.9080   15.1475 H         1 RES1    0.0000
     20 H5         6.4940    2.9765   13.4616 H         1 RES1    0.0000
     21 H6         5.2772    3.7397   15.8983 H         1 RES1    0.0000
     22 H7         5.9241    2.2438   11.4331 H         1 RES1    0.0000
     23 H8         5.0248    0.9922   11.0643 H         1 RES1    0.0000
     24 H9         4.6301    2.4499   10.6165 H         1 RES1    0.0000
@<TRIPOS>BOND
     1    1    5 2
     2    2    5 2
     3    3    6 1
     4    4    6 2
     5    5   14 1
     6    6   13 1
     7    7    4 1
     8    8    3 1
     9    9    8 ar
    10   10    9 ar
    11   11   10 ar
    12   12    7 ar
    13   13   14 2
    14   14   21 1
    15   15    3 1
    16   16    9 1
    17   17   10 1
    18   18   11 1
    19   19   12 1
    20   20   13 1
    21   22   15 1
    22   23   15 1
    23   24   15 1
    24    7    8 ar
    25   11   12 ar
@<TRIPOS>SUBSTRUCTURE
     1 RES1 1

@<TRIPOS>CRYSIN
   9.7150    7.6320   13.2610  90.0000  96.6500  90.0000  14 1

