# MOL2 file generated by ConQuest
# Please check atom types

@<TRIPOS>MOLECULE
SANWEL
    69    70     2
SMALL
NO_CHARGES
****
Generated from CSD

@<TRIPOS>ATOM
      1 C1        11.3055    9.0658    5.4102 C.ar      1 RES1    0.0000
      2 C2        10.7427   10.2039    6.0022 C.ar      1 RES1    0.0000
      3 H1        11.1893   11.0416    5.9904 H         1 RES1    0.0000
      4 C3         9.5091   10.0557    6.6045 C.ar      1 RES1    0.0000
      5 H2         9.1097   10.8063    7.0246 H         1 RES1    0.0000
      6 C4         8.8310    8.8373    6.6133 C.ar      1 RES1    0.0000
      7 H3         7.9722    8.7802    7.0158 H         1 RES1    0.0000
      8 C5         9.3907    7.7169    6.0477 C.ar      1 RES1    0.0000
      9 H4         8.9322    6.8847    6.0595 H         1 RES1    0.0000
     10 C6        10.6450    7.8352    5.4557 C.ar      1 RES1    0.0000
     11 C7        11.5219    6.8928    4.7722 C.ar      1 RES1    0.0000
     12 C8        11.4594    5.5167    4.5494 C.ar      1 RES1    0.0000
     13 H5        10.7148    5.0054    4.8447 H         1 RES1    0.0000
     14 C9        12.5049    4.9266    3.8903 C.ar      1 RES1    0.0000
     15 C10       13.5976    5.6622    3.4153 C.ar      1 RES1    0.0000
     16 H6        14.2931    5.2189    2.9438 H         1 RES1    0.0000
     17 C11       13.6707    7.0220    3.6254 C.ar      1 RES1    0.0000
     18 H7        14.4077    7.5265    3.3008 H         1 RES1    0.0000
     19 C12       12.6351    7.6407    4.3270 C.ar      1 RES1    0.0000
     20 C13       13.4223   10.0312    4.4510 C.3       1 RES1    0.0000
     21 H8        14.3340    9.6627    4.3261 H         1 RES1    0.0000
     22 H9        13.4490   10.6513    5.2222 H         1 RES1    0.0000
     23 C14       13.0287   10.7927    3.2214 C.3       1 RES1    0.0000
     24 H10       13.0766   10.1999    2.4414 H         1 RES1    0.0000
     25 H11       13.6386   11.5488    3.0951 H         1 RES1    0.0000
     26 H12       12.1123   11.1259    3.3228 H         1 RES1    0.0000
     27 C15       12.8612    2.5999    4.7195 C.2       1 RES1    0.0000
     28 C16       12.5537    1.2796    4.6336 C.2       1 RES1    0.0000
     29 C17       11.5933    0.7452    3.5847 C.3       1 RES1    0.0000
     30 H13       11.8774   -0.1809    3.3375 H         1 RES1    0.0000
     31 C18       11.7151    1.6250    2.3612 C.2       1 RES1    0.0000
     32 C19       12.0470    2.9181    2.4925 C.2       1 RES1    0.0000
     33 C20       13.0711    0.3535    5.5718 C.1       1 RES1    0.0000
     34 C21       11.4268    1.0797    1.0297 C.2       1 RES1    0.0000
     35 C22       10.8366   -0.8744   -0.1572 C.3       1 RES1    0.0000
     36 H14        9.9855   -0.5303   -0.5009 H         1 RES1    0.0000
     37 H15       10.7650   -1.8412   -0.0132 H         1 RES1    0.0000
     38 H16       11.5481   -0.6921   -0.8065 H         1 RES1    0.0000
     39 C23       12.0277    3.8999    1.3586 C.2       1 RES1    0.0000
     40 C24       13.3909    5.0394   -0.1851 C.3       1 RES1    0.0000
     41 H17       14.3370    5.1169   -0.4245 H         1 RES1    0.0000
     42 H18       13.0731    5.8947    0.1748 H         1 RES1    0.0000
     43 H19       12.8697    4.8055   -0.9813 H         1 RES1    0.0000
     44 C25       10.1584    0.6867    4.1049 C.ar      1 RES1    0.0000
     45 C26        9.4863   -0.5235    4.2101 C.ar      1 RES1    0.0000
     46 H20        9.9112   -1.3258    3.9310 H         1 RES1    0.0000
     47 C27        8.1947   -0.5684    4.7242 C.ar      1 RES1    0.0000
     48 H21        7.7449   -1.4020    4.8035 H         1 RES1    0.0000
     49 C28        7.5663    0.5834    5.1164 C.ar      1 RES1    0.0000
     50 H22        6.6827    0.5589    5.4616 H         1 RES1    0.0000
     51 C29        8.2396    1.7759    4.9989 C.ar      1 RES1    0.0000
     52 C30        9.5192    1.8493    4.4980 C.ar      1 RES1    0.0000
     53 H23        9.9585    2.6897    4.4216 H         1 RES1    0.0000
     54 N1        12.5030    8.9404    4.7461 N.3       1 RES1    0.0000
     55 N2        12.4767    3.4716    3.6984 N.pl3     1 RES1    0.0000
     56 N3        13.5822    3.1547    5.7243 N.3       1 RES1    0.0000
     57 N4        13.4903   -0.4392    6.2873 N.1       1 RES1    0.0000
     58 H24       13.7977    4.0033    5.7437 H         1 RES1    0.0000
     59 H25       13.6802    2.6244    6.4062 H         1 RES1    0.0000
     60 N5         7.5901    3.0378    5.3882 N.pl3     1 RES1    0.0000
     61 O1        11.0522    4.5340    1.0461 O.2       1 RES1    0.0000
     62 O2        13.2308    4.0076    0.8163 O.3       1 RES1    0.0000
     63 O3        11.4347    1.7049   -0.0088 O.2       1 RES1    0.0000
     64 O4        11.1484   -0.2215    1.0970 O.3       1 RES1    0.0000
     65 O5         8.2369    4.0712    5.3852 O.2       1 RES1    0.0000
     66 O6         6.4130    2.9834    5.7216 O.2       1 RES1    0.0000
     67 H26       12.5164    5.4270   -0.3966 Du        2 SUP2    0.0000
     68 H27       13.7803    4.6505   -0.9960 Du        2 SUP2    0.0000
     69 H28       13.9837    5.7397    0.1601 Du        2 SUP2    0.0000
@<TRIPOS>BOND
     1    1    2 ar
     2    2    3 1
     3    4    2 ar
     4    5    4 1
     5    6    4 ar
     6    7    6 1
     7    8    6 ar
     8    9    8 1
     9   10    1 ar
    10   11   10 1
    11   12   11 ar
    12   13   12 1
    13   14   12 ar
    14   15   14 ar
    15   16   15 1
    16   17   15 ar
    17   18   17 1
    18   19   11 ar
    19   20   21 1
    20   22   20 1
    21   23   20 1
    22   24   23 1
    23   25   23 1
    24   26   23 1
    25   27   28 2
    26   28   29 1
    27   29   30 1
    28   31   29 1
    29   32   31 2
    30   33   28 1
    31   34   31 1
    32   35   36 1
    33   37   35 1
    34   38   35 1
    35   39   32 1
    36   40   41 1
    37   42   40 1
    38   43   40 1
    39   44   29 1
    40   45   44 ar
    41   46   45 1
    42   47   45 ar
    43   48   47 1
    44   49   47 ar
    45   50   49 1
    46   51   49 ar
    47   52   44 ar
    48   53   52 1
    49   54    1 1
    50   55   14 1
    51   56   27 1
    52   57   33 3
    53   58   56 1
    54   59   56 1
    55   60   51 1
    56   61   39 2
    57   62   39 1
    58   63   34 2
    59   64   34 1
    60   65   60 2
    61   66   60 2
    62    8   10 ar
    63   17   19 ar
    64   19   54 1
    65   20   54 1
    66   27   55 1
    67   32   55 1
    68   35   64 1
    69   40   62 1
    70   51   52 ar
@<TRIPOS>SUBSTRUCTURE
     1 RES1 1
     2 SUP2 67

@<TRIPOS>CRYSIN
  13.1470   13.5980   15.9070  90.0000 112.5610  90.0000 231 1

