# MOL2 file generated by ConQuest
# Please check atom types

@<TRIPOS>MOLECULE
SANXEM
    35    36     1
SMALL
NO_CHARGES
****
Generated from CSD

@<TRIPOS>ATOM
      1 O1         4.1139    7.0167    2.9253 O.2       1 RES1    0.0000
      2 O2         4.9985    5.9718    1.1443 O.3       1 RES1    0.0000
      3 O3         2.6359    4.1326   -0.3130 O.2       1 RES1    0.0000
      4 O4         2.1891    6.3199   -0.0392 O.3       1 RES1    0.0000
      5 O5         3.3885    0.2910    5.8173 O.2       1 RES1    0.0000
      6 O6         4.8324   -0.3913    4.3579 O.2       1 RES1    0.0000
      7 N1         1.7035    4.6831    3.8682 N.3       1 RES1    0.0000
      8 N2         4.0103    0.4280    4.7696 N.pl3     1 RES1    0.0000
      9 C1         0.4832    4.5175    4.6295 C.3       1 RES1    0.0000
     10 H1         0.6664    3.9795    5.4278 H         1 RES1    0.0000
     11 H2        -0.1870    4.0641    4.0776 H         1 RES1    0.0000
     12 H3         0.1444    5.3964    4.8988 H         1 RES1    0.0000
     13 C2         1.6502    5.5492    2.6909 C.3       1 RES1    0.0000
     14 H4         1.6677    6.5033    2.9561 H         1 RES1    0.0000
     15 H5         0.8281    5.3781    2.1672 H         1 RES1    0.0000
     16 C3         2.9139    5.1848    1.8653 C.3       1 RES1    0.0000
     17 C4         3.3438    3.8646    2.4762 C.ar      1 RES1    0.0000
     18 C5         4.3504    3.0038    2.0971 C.ar      1 RES1    0.0000
     19 H6         4.8824    3.1881    1.3315 H         1 RES1    0.0000
     20 C6         4.5727    1.8579    2.8576 C.ar      1 RES1    0.0000
     21 H7         5.2578    1.2423    2.6235 H         1 RES1    0.0000
     22 C7         3.7663    1.6408    3.9667 C.ar      1 RES1    0.0000
     23 C8         2.7665    2.4911    4.3897 C.ar      1 RES1    0.0000
     24 H8         2.2409    2.3040    5.1586 H         1 RES1    0.0000
     25 C9         2.5681    3.6410    3.6263 C.ar      1 RES1    0.0000
     26 C10        4.0537    6.1873    2.0617 C.2       1 RES1    0.0000
     27 C11        6.1909    6.7770    1.2786 C.3       1 RES1    0.0000
     28 H9         6.8318    6.5316    0.5790 H         1 RES1    0.0000
     29 H10        6.5931    6.6208    2.1589 H         1 RES1    0.0000
     30 H11        5.9572    7.7241    1.1891 H         1 RES1    0.0000
     31 C12        2.5758    5.1131    0.3772 C.2       1 RES1    0.0000
     32 C13        1.8013    6.4210   -1.4281 C.3       1 RES1    0.0000
     33 H12        1.7030    7.3657   -1.6714 H         1 RES1    0.0000
     34 H13        0.9479    5.9583   -1.5633 H         1 RES1    0.0000
     35 H14        2.4894    6.0084   -1.9905 H         1 RES1    0.0000
@<TRIPOS>BOND
     1    1   26 2
     2    2   26 1
     3    3   31 2
     4    4   31 1
     5    5    8 2
     6    6    8 2
     7    7    9 1
     8    8   22 1
     9    9   10 1
    10   11    9 1
    11   12    9 1
    12   13    7 1
    13   14   13 1
    14   15   13 1
    15   16   13 1
    16   17   16 1
    17   18   17 ar
    18   19   18 1
    19   20   18 ar
    20   21   20 1
    21   22   20 ar
    22   23   22 ar
    23   24   23 1
    24   25    7 1
    25   26   16 1
    26   27    2 1
    27   28   27 1
    28   29   27 1
    29   30   27 1
    30   31   16 1
    31   32    4 1
    32   33   32 1
    33   34   32 1
    34   35   32 1
    35   17   25 ar
    36   23   25 ar
@<TRIPOS>SUBSTRUCTURE
     1 RES1 1

@<TRIPOS>CRYSIN
   7.9087    8.4151   10.9627  78.6260  73.0000  74.7550   2 1

