# MOL2 file generated by ConQuest
# Please check atom types

@<TRIPOS>MOLECULE
SANXAI
    74    76     2
SMALL
NO_CHARGES
****
Generated from CSD

@<TRIPOS>ATOM
      1 O1         2.6263    9.6214    9.3950 O.2       1 RES1    0.0000
      2 O2         1.5354   10.1261   11.2855 O.3       1 RES1    0.0000
      3 O3         0.9818   12.3211    8.9201 O.2       1 RES1    0.0000
      4 O4         2.1462   14.0110    9.8550 O.3       1 RES1    0.0000
      5 O5         0.5062   12.6948   11.8138 O.2       1 RES1    0.0000
      6 O6         0.5153   12.8735   13.9397 O.2       1 RES1    0.0000
      7 O7         4.4711   13.3365   16.3900 O.2       1 RES1    0.0000
      8 O8         6.4113   13.1844   15.4494 O.2       1 RES1    0.0000
      9 N1         5.2151   11.7410   10.6826 N.3       1 RES1    0.0000
     10 N2         1.0868   12.7121   12.8774 N.pl3     1 RES1    0.0000
     11 N3         5.1891   13.1371   15.4229 N.pl3     1 RES1    0.0000
     12 C1         4.2450   11.9308    9.6109 C.3       1 RES1    0.0000
     13 H1         4.3312   11.2220    8.9226 H         1 RES1    0.0000
     14 H2         4.3579   12.8140    9.1801 H         1 RES1    0.0000
     15 C2         2.8769   11.8357   10.3419 C.3       1 RES1    0.0000
     16 C3         3.2603   12.2516   11.7667 C.ar      1 RES1    0.0000
     17 C4         2.5450   12.5980   12.8855 C.ar      1 RES1    0.0000
     18 C5         3.1666   12.8900   14.0957 C.ar      1 RES1    0.0000
     19 H3         2.6620   13.1264   14.8644 H         1 RES1    0.0000
     20 C6         4.5461   12.8229   14.1350 C.ar      1 RES1    0.0000
     21 C7         5.3299   12.4668   13.0504 C.ar      1 RES1    0.0000
     22 H4         6.2770   12.4298   13.1165 H         1 RES1    0.0000
     23 C8         4.6737   12.1661   11.8606 C.ar      1 RES1    0.0000
     24 C9         6.6405   11.8307   10.3952 C.3       1 RES1    0.0000
     25 H5         7.1462   11.3965   11.1136 H         1 RES1    0.0000
     26 H6         6.9029   12.7734   10.3338 H         1 RES1    0.0000
     27 H7         6.8310   11.3830    9.5440 H         1 RES1    0.0000
     28 C10        2.3519   10.3918   10.2682 C.2       1 RES1    0.0000
     29 C11        0.9213    8.8077   11.2436 C.3       1 RES1    0.0000
     30 H8         0.3027    8.7117   11.9975 H         1 RES1    0.0000
     31 H9         1.6175    8.1207   11.3018 H         1 RES1    0.0000
     32 H10        0.4292    8.7036   10.4031 H         1 RES1    0.0000
     33 C12        1.8718   12.7370    9.6383 C.2       1 RES1    0.0000
     34 C13        1.2467   14.9618    9.2407 C.3       1 RES1    0.0000
     35 H11        1.4760   15.8666    9.5366 H         1 RES1    0.0000
     36 H12        0.3253   14.7562    9.5019 H         1 RES1    0.0000
     37 H13        1.3294   14.9063    8.2665 H         1 RES1    0.0000
     38 O9         2.5952   12.6082   19.1975 O.2       2 RES2    0.0000
     39 O10        1.5339   12.1058   17.2835 O.3       2 RES2    0.0000
     40 O11        1.0969    9.7752   19.5772 O.2       2 RES2    0.0000
     41 O12        2.3557    8.1946   18.5686 O.3       2 RES2    0.0000
     42 O13        0.6462    9.5278   16.6445 O.2       2 RES2    0.0000
     43 O14        0.7046    9.6111   14.5158 O.2       2 RES2    0.0000
     44 O15        4.7321    8.9406   12.1876 O.2       2 RES2    0.0000
     45 O16        6.6412    9.2629   13.1492 O.2       2 RES2    0.0000
     46 N4         5.3316   10.5386   17.9229 N.3       2 RES2    0.0000
     47 N5         1.2496    9.6270   15.6009 N.pl3     2 RES2    0.0000
     48 N6         5.4247    9.2111   13.1653 N.pl3     2 RES2    0.0000
     49 C14        4.3142   10.3794   18.9511 C.3       2 RES2    0.0000
     50 H14        4.3730   11.1084   19.6178 H         2 RES2    0.0000
     51 H15        4.4172    9.5111   19.4148 H         2 RES2    0.0000
     52 C15        3.3984   10.0555   16.7796 C.ar      2 RES2    0.0000
     53 C16        2.9688   10.4386   18.1891 C.3       2 RES2    0.0000
     54 C17        2.7091    9.7315   15.6230 C.ar      2 RES2    0.0000
     55 C18        3.3716    9.4475   14.4309 C.ar      2 RES2    0.0000
     56 H16        2.8919    9.2176   13.6439 H         2 RES2    0.0000
     57 C19        4.7465    9.5136   14.4354 C.ar      2 RES2    0.0000
     58 C20        4.8124   10.1354   16.7140 C.ar      2 RES2    0.0000
     59 C21        5.5016    9.8441   15.5410 C.ar      2 RES2    0.0000
     60 H17        6.4504    9.8722   15.5031 H         2 RES2    0.0000
     61 C22        6.7271   10.3199   18.2725 C.3       2 RES2    0.0000
     62 H18        7.3023   10.7256   17.5902 H         2 RES2    0.0000
     63 H19        6.9055    9.3582   18.3205 H         2 RES2    0.0000
     64 H20        6.9141   10.7297   19.1425 H         2 RES2    0.0000
     65 C23        2.3652   11.8530   18.3082 C.2       2 RES2    0.0000
     66 C24        0.8774   13.3956   17.3384 C.3       2 RES2    0.0000
     67 H21        0.2104   13.4537   16.6222 H         2 RES2    0.0000
     68 H22        1.5427   14.1056   17.2238 H         2 RES2    0.0000
     69 H23        0.4346   13.5011   18.2067 H         2 RES2    0.0000
     70 C25        1.9982    9.4452   18.8513 C.2       2 RES2    0.0000
     71 C26        1.5671    7.1549   19.1883 C.3       2 RES2    0.0000
     72 H24        1.7116    6.3096   18.7142 H         2 RES2    0.0000
     73 H25        0.6180    7.3957   19.1450 H         2 RES2    0.0000
     74 H26        1.8368    7.0562   20.1254 H         2 RES2    0.0000
@<TRIPOS>BOND
     1    1   28 2
     2    2   28 1
     3    3   33 2
     4    4   33 1
     5    5   10 2
     6    6   10 2
     7    7   11 2
     8    8   11 2
     9    9   12 1
    10   10   17 1
    11   11   20 1
    12   12   13 1
    13   14   12 1
    14   15   12 1
    15   16   15 1
    16   17   16 ar
    17   18   17 ar
    18   19   18 1
    19   20   18 ar
    20   21   20 ar
    21   22   21 1
    22   23    9 1
    23   24    9 1
    24   25   24 1
    25   26   24 1
    26   27   24 1
    27   28   15 1
    28   29    2 1
    29   30   29 1
    30   31   29 1
    31   32   29 1
    32   33   15 1
    33   34    4 1
    34   35   34 1
    35   36   34 1
    36   37   34 1
    37   38   65 2
    38   39   65 1
    39   40   70 2
    40   41   70 1
    41   42   47 2
    42   43   47 2
    43   44   48 2
    44   45   48 2
    45   46   49 1
    46   47   54 1
    47   48   57 1
    48   49   50 1
    49   51   49 1
    50   52   53 1
    51   53   49 1
    52   54   52 ar
    53   55   54 ar
    54   56   55 1
    55   57   55 ar
    56   58   46 1
    57   59   57 ar
    58   60   59 1
    59   61   46 1
    60   62   61 1
    61   63   61 1
    62   64   61 1
    63   65   53 1
    64   66   39 1
    65   67   66 1
    66   68   66 1
    67   69   66 1
    68   70   53 1
    69   71   41 1
    70   72   71 1
    71   73   71 1
    72   74   71 1
    73   16   23 ar
    74   21   23 ar
    75   52   58 ar
    76   58   59 ar
@<TRIPOS>SUBSTRUCTURE
     1 RES1 1
     2 RES2 38

@<TRIPOS>CRYSIN
   8.6174   13.5254   24.8580  90.0000  95.1540  90.0000   9 1

