# MOL2 file generated by ConQuest
# Please check atom types

@<TRIPOS>MOLECULE
SANYAJ
    70    73     1
SMALL
NO_CHARGES
****
Generated from CSD

@<TRIPOS>ATOM
      1 O1         7.2216   -0.9665    0.4394 O.3       1 RES1    0.0000
      2 O2         8.4211    6.6371    2.8171 O.3       1 RES1    0.0000
      3 O3         5.8551   -0.0278    1.9406 O.2       1 RES1    0.0000
      4 O4         8.7643    7.3611    4.9372 O.2       1 RES1    0.0000
      5 O5         9.2265    4.0711    2.5073 O.2       1 RES1    0.0000
      6 O6         6.4237    2.6702    8.9368 O.3       1 RES1    0.0000
      7 O7        11.0778   -0.3827    3.8363 O.2       1 RES1    0.0000
      8 O8         9.7680   -1.7191    4.9056 O.2       1 RES1    0.0000
      9 N1         8.5472    5.1313    4.4691 N.am      1 RES1    0.0000
     10 C1         7.9459    3.3010    5.7272 C.ar      1 RES1    0.0000
     11 C2         6.5962   -1.8736   -1.6683 C.3       1 RES1    0.0000
     12 H1         7.2874   -1.3272   -2.0968 H         1 RES1    0.0000
     13 H2         5.8571   -2.0146   -2.2947 H         1 RES1    0.0000
     14 H3         6.9764   -2.7390   -1.4116 H         1 RES1    0.0000
     15 C3         6.0886   -1.1696   -0.4483 C.3       1 RES1    0.0000
     16 H4         5.6878   -0.2987   -0.6970 H         1 RES1    0.0000
     17 H5         5.3956   -1.7171    0.0000 H         1 RES1    0.0000
     18 C4         6.9487   -0.3851    1.6039 C.2       1 RES1    0.0000
     19 C5         8.1906   -0.2403    2.4462 C.3       1 RES1    0.0000
     20 H6         8.8506    0.3182    1.9639 H         1 RES1    0.0000
     21 H7         8.5935   -1.1328    2.5929 H         1 RES1    0.0000
     22 C6         7.8793    0.3971    3.7908 C.3       1 RES1    0.0000
     23 H8         7.1551   -0.1227    4.2438 H         1 RES1    0.0000
     24 C7         7.4289    1.8784    3.6310 C.3       1 RES1    0.0000
     25 H9         7.4203    2.1308    2.6727 H         1 RES1    0.0000
     26 H10        6.5161    1.9983    3.9957 H         1 RES1    0.0000
     27 C8         8.4329    2.7671    4.4077 C.3       1 RES1    0.0000
     28 C9         8.7856    4.0424    3.6275 C.2       1 RES1    0.0000
     29 C10        8.6109    6.5081    4.1074 C.2       1 RES1    0.0000
     30 C11        8.3504    7.9874    2.1895 C.3       1 RES1    0.0000
     31 C12        8.0615    7.6391    0.7513 C.3       1 RES1    0.0000
     32 H11        8.7948    7.0963    0.3928 H         1 RES1    0.0000
     33 H12        7.9771    8.4626    0.2274 H         1 RES1    0.0000
     34 H13        7.2241    7.1321    0.6999 H         1 RES1    0.0000
     35 C13        8.0775    4.6909    5.7402 C.ar      1 RES1    0.0000
     36 C14        7.2051    8.7683    2.8009 C.3       1 RES1    0.0000
     37 H14        6.3889    8.2269    2.7701 H         1 RES1    0.0000
     38 H15        7.0673    9.5953    2.2947 H         1 RES1    0.0000
     39 H16        7.4185    8.9871    3.7329 H         1 RES1    0.0000
     40 C15        9.6871    8.6882    2.3342 C.3       1 RES1    0.0000
     41 H17        9.8426    8.9046    3.2781 H         1 RES1    0.0000
     42 H18        9.6814    9.5139    1.8074 H         1 RES1    0.0000
     43 H19       10.4019    8.0987    2.0141 H         1 RES1    0.0000
     44 C16        7.7026    5.4368    6.8400 C.ar      1 RES1    0.0000
     45 H20        7.8072    6.3806    6.8456 H         1 RES1    0.0000
     46 C17        7.1661    4.7693    7.9427 C.ar      1 RES1    0.0000
     47 H21        6.9200    5.2609    8.7180 H         1 RES1    0.0000
     48 C18        6.9883    3.3865    7.9165 C.ar      1 RES1    0.0000
     49 C19        5.7606    3.4164    9.9512 C.3       1 RES1    0.0000
     50 H22        6.4196    3.9315   10.4633 H         1 RES1    0.0000
     51 H23        5.2890    2.8031   10.5519 H         1 RES1    0.0000
     52 H24        5.1166    4.0293    9.5390 H         1 RES1    0.0000
     53 C20        7.3843    2.6435    6.8049 C.ar      1 RES1    0.0000
     54 H25        7.2698    1.7008    6.7895 H         1 RES1    0.0000
     55 C21        9.7096    1.8723    4.4954 C.3       1 RES1    0.0000
     56 H26       10.1279    1.8593    3.5882 H         1 RES1    0.0000
     57 C22        9.1019    0.5006    4.7329 C.3       1 RES1    0.0000
     58 H27        8.7860    0.4453    5.6791 H         1 RES1    0.0000
     59 N2        10.0774   -0.6129    4.4801 N.pl3     1 RES1    0.0000
     60 C23       10.7622    2.3514    5.4712 C.ar      1 RES1    0.0000
     61 C24       11.6297    3.3593    5.0672 C.ar      1 RES1    0.0000
     62 H28       11.5644    3.7132    4.1877 H         1 RES1    0.0000
     63 C25       12.5924    3.8534    5.9393 C.ar      1 RES1    0.0000
     64 H29       13.1796    4.5430    5.6525 H         1 RES1    0.0000
     65 C26       12.6982    3.3487    7.2157 C.ar      1 RES1    0.0000
     66 H30       13.3584    3.6861    7.8084 H         1 RES1    0.0000
     67 C27       11.8369    2.3469    7.6300 C.ar      1 RES1    0.0000
     68 H31       11.8999    2.0005    8.5112 H         1 RES1    0.0000
     69 C28       10.8808    1.8484    6.7552 C.ar      1 RES1    0.0000
     70 H32       10.2997    1.1534    7.0405 H         1 RES1    0.0000
@<TRIPOS>BOND
     1    1   15 1
     2    2   29 1
     3    3   18 2
     4    4   29 2
     5    5   28 2
     6    6   48 1
     7    7   59 2
     8    8   59 2
     9    9   28 1
    10   10   27 1
    11   11   12 1
    12   13   11 1
    13   14   11 1
    14   15   11 1
    15   16   15 1
    16   17   15 1
    17   18    1 1
    18   19   18 1
    19   20   19 1
    20   21   19 1
    21   22   19 1
    22   23   22 1
    23   24   22 1
    24   25   24 1
    25   26   24 1
    26   27   24 1
    27   28   27 1
    28   29    9 1
    29   30    2 1
    30   31   30 1
    31   32   31 1
    32   33   31 1
    33   34   31 1
    34   35    9 1
    35   36   30 1
    36   37   36 1
    37   38   36 1
    38   39   36 1
    39   40   30 1
    40   41   40 1
    41   42   40 1
    42   43   40 1
    43   44   35 ar
    44   45   44 1
    45   46   44 ar
    46   47   46 1
    47   48   46 ar
    48   49    6 1
    49   50   49 1
    50   51   49 1
    51   52   49 1
    52   53   10 ar
    53   54   53 1
    54   55   27 1
    55   56   55 1
    56   57   22 1
    57   58   57 1
    58   59   57 1
    59   60   55 1
    60   61   60 ar
    61   62   61 1
    62   63   61 ar
    63   64   63 1
    64   65   63 ar
    65   66   65 1
    66   67   65 ar
    67   68   67 1
    68   69   60 ar
    69   70   69 1
    70   10   35 ar
    71   48   53 ar
    72   55   57 1
    73   67   69 ar
@<TRIPOS>SUBSTRUCTURE
     1 RES1 1

@<TRIPOS>CRYSIN
  12.5407   12.5407   29.5324  90.0000  90.0000 120.0000 169 1

