# MOL2 file generated by ConQuest
# Please check atom types

@<TRIPOS>MOLECULE
SAPDAQ
    24    27     1
SMALL
NO_CHARGES
****
Generated from CSD

@<TRIPOS>ATOM
      1 N1        -2.8806    7.6693    1.5017 N.2       1 RES1    0.0000
      2 N2        -3.9101    8.3476    2.0527 N.2       1 RES1    0.0000
      3 N3        -3.8317    8.3110    3.3468 N.2       1 RES1    0.0000
      4 N4        -2.7376    7.6001    3.6547 N.pl3     1 RES1    0.0000
      5 H1        -2.4509    7.4230    4.4677 H         1 RES1    0.0000
      6 C1        -2.1581    7.2070    2.5206 C.2       1 RES1    0.0000
      7 C2        -0.9364    6.4455    2.3077 C.2       1 RES1    0.0000
      8 N5        -0.5549    6.3047    1.0693 N.2       1 RES1    0.0000
      9 O1         0.6001    5.5586    1.1110 O.3       1 RES1    0.0000
     10 N6         0.9335    5.2304    2.3881 N.2       1 RES1    0.0000
     11 C3         0.0113    5.7620    3.1426 C.2       1 RES1    0.0000
     12 N7         0.1798    5.5449    4.5232 N.2       1 RES1    0.0000
     13 N8        -0.6857    6.1241    5.2223 N.2       1 RES1    0.0000
     14 C4        -0.4640    5.9103    6.6090 C.2       1 RES1    0.0000
     15 N9         0.5310    5.2551    7.1324 N.2       1 RES1    0.0000
     16 O2         0.3452    5.3458    8.4889 O.3       1 RES1    0.0000
     17 N10       -0.7863    6.0682    8.7994 N.2       1 RES1    0.0000
     18 C5        -1.2903    6.4165    7.6483 C.2       1 RES1    0.0000
     19 C6        -2.5004    7.1985    7.5543 C.2       1 RES1    0.0000
     20 N11       -3.0288    7.6468    6.4287 N.2       1 RES1    0.0000
     21 N12       -4.1322    8.3515    6.7953 N.2       1 RES1    0.0000
     22 N13       -4.2752    8.3305    8.0846 N.2       1 RES1    0.0000
     23 N14       -3.2572    7.6135    8.5751 N.pl3     1 RES1    0.0000
     24 H2        -3.1107    7.4436    9.4251 H         1 RES1    0.0000
@<TRIPOS>BOND
     1    1    2 1
     2    2    3 2
     3    3    4 1
     4    4    5 1
     5    6    1 2
     6    7    6 1
     7    8    7 2
     8    9    8 1
     9   10    9 1
    10   11    7 1
    11   12   11 1
    12   13   12 2
    13   14   13 1
    14   15   14 2
    15   16   15 1
    16   17   16 1
    17   18   14 1
    18   19   18 1
    19   20   19 2
    20   21   20 1
    21   22   21 2
    22   23   19 1
    23   24   23 1
    24    4    6 1
    25   10   11 2
    26   17   18 2
    27   22   23 1
@<TRIPOS>SUBSTRUCTURE
     1 RES1 1

@<TRIPOS>CRYSIN
   5.8169    9.8110   19.7730  90.0000  92.7090  90.0000  14 1

