# MOL2 file generated by ConQuest
# Please check atom types

@<TRIPOS>MOLECULE
SAPGAS
    26    26     1
SMALL
NO_CHARGES
****
Generated from CSD

@<TRIPOS>ATOM
      1 O1         1.6296    5.4168   13.6607 O.2       1 RES1    0.0000
      2 O2         2.4441    5.5012   11.2457 O.3       1 RES1    0.0000
      3 C1         5.5692    7.3617   11.2348 C.ar      1 RES1    0.0000
      4 H1         6.2022    7.6730   10.6288 H         1 RES1    0.0000
      5 O3         2.9269    6.2673   15.2731 O.3       1 RES1    0.0000
      6 C2         4.7559    7.1860   13.4866 C.ar      1 RES1    0.0000
      7 H2         4.8597    7.3818   14.3901 H         1 RES1    0.0000
      8 O4         7.7088    8.6760   12.2327 O.2       1 RES1    0.0000
      9 C3         3.6755    6.4681   13.0622 C.ar      1 RES1    0.0000
     10 C4         2.6510    5.9902   14.0163 C.2       1 RES1    0.0000
     11 N1         6.8409    8.4009   13.0287 N.pl3     1 RES1    0.0000
     12 C5         5.6915    7.6197   12.5752 C.ar      1 RES1    0.0000
     13 N2         4.3968    6.3546    9.3682 N.pl3     1 RES1    0.0000
     14 C6         4.4819    6.6277   10.8112 C.ar      1 RES1    0.0000
     15 O5         6.8745    8.7312   14.2034 O.2       1 RES1    0.0000
     16 C7         3.5059    6.1659   11.6901 C.ar      1 RES1    0.0000
     17 O6         3.8395    5.3546    8.9968 O.2       1 RES1    0.0000
     18 C8         2.3006    6.4641   17.5470 C.3       1 RES1    0.0000
     19 H3         3.2033    6.2301   17.7758 H         1 RES1    0.0000
     20 H4         1.7067    6.1588   18.2353 H         1 RES1    0.0000
     21 H5         2.2285    7.4179   17.4614 H         1 RES1    0.0000
     22 O7         4.9062    7.1719    8.6231 O.2       1 RES1    0.0000
     23 C9         1.9390    5.8315   16.2751 C.3       1 RES1    0.0000
     24 H6         1.0469    6.1016   16.0061 H         1 RES1    0.0000
     25 H7         1.9552    4.8656   16.3625 H         1 RES1    0.0000
     26 H8         2.0192    5.5022   11.9670 H         1 RES1    0.0000
@<TRIPOS>BOND
     1    1   10 2
     2    2   16 1
     3    3    4 1
     4    5   10 1
     5    6    7 1
     6    8   11 2
     7    9    6 ar
     8   10    9 1
     9   11   12 1
    10   12    3 ar
    11   13   14 1
    12   14    3 ar
    13   15   11 2
    14   16    9 ar
    15   17   13 2
    16   18   19 1
    17   20   18 1
    18   21   18 1
    19   22   13 2
    20   23    5 1
    21   24   23 1
    22   25   23 1
    23   26    2 1
    24    6   12 ar
    25   14   16 ar
    26   18   23 1
@<TRIPOS>SUBSTRUCTURE
     1 RES1 1

@<TRIPOS>CRYSIN
   6.2128   10.0405   17.4701  90.0000  90.0000  90.0000  19 1

