# MOL2 file generated by ConQuest
# Please check atom types

@<TRIPOS>MOLECULE
SAPGUO
    49    51     1
SMALL
USER_CHARGES
****
Generated from CSD

@<TRIPOS>ATOM
      1 N1         4.6129    8.2413   11.9087 N.4       1 RES1    1.0000
      2 C1         4.6932    7.5025   10.5661 C.3       1 RES1    0.0000
      3 C2         4.3216    8.4153    9.3930 C.3       1 RES1    0.0000
      4 C3         4.1822    7.5694    8.1314 C.3       1 RES1    0.0000
      5 C4         5.4687    6.8224    7.8204 C.3       1 RES1    0.0000
      6 C5         5.9230    5.9929    9.0176 C.3       1 RES1    0.0000
      7 C6         6.0498    6.8558   10.2730 C.3       1 RES1    0.0000
      8 O1         3.8780    8.3799    7.0081 O.3       1 RES1    0.0000
      9 O2         3.1083    9.1241    9.6072 O.3       1 RES1    0.0000
     10 C7         4.9207    7.3093   13.0741 C.3       1 RES1    0.0000
     11 C8         3.9789    6.1412   13.1904 C.ar      1 RES1    0.0000
     12 C9         4.2327    4.9163   12.5771 C.ar      1 RES1    0.0000
     13 C10        3.3630    3.8436   12.7334 C.ar      1 RES1    0.0000
     14 C11        2.2444    3.9715   13.5297 C.ar      1 RES1    0.0000
     15 C12        1.9873    5.1739   14.1608 C.ar      1 RES1    0.0000
     16 C13        2.8456    6.2488   13.9900 C.ar      1 RES1    0.0000
     17 C14        5.5967    9.4080   11.9429 C.3       1 RES1    0.0000
     18 C15        5.5027   10.2373   13.1916 C.ar      1 RES1    0.0000
     19 C16        4.4600   11.1356   13.3812 C.ar      1 RES1    0.0000
     20 C17        4.4238   11.9475   14.5109 C.ar      1 RES1    0.0000
     21 C18        5.4290   11.8610   15.4552 C.ar      1 RES1    0.0000
     22 C19        6.4738   10.9872   15.2675 C.ar      1 RES1    0.0000
     23 C20        6.5156   10.1805   14.1378 C.ar      1 RES1    0.0000
     24 O3         3.3057    8.7090   12.0816 O.2       1 RES1   -1.0000
     25 H1         4.0312    6.7794   10.6360 H         1 RES1    0.0000
     26 H2         5.0317    9.0683    9.2442 H         1 RES1    0.0000
     27 H3         3.4462    6.9112    8.2692 H         1 RES1    0.0000
     28 H4         5.3095    6.2503    7.0418 H         1 RES1    0.0000
     29 H5         6.1656    7.4984    7.5953 H         1 RES1    0.0000
     30 H6         5.2804    5.2755    9.1807 H         1 RES1    0.0000
     31 H7         6.8083    5.5817    8.8242 H         1 RES1    0.0000
     32 H8         6.3418    6.3201   11.0397 H         1 RES1    0.0000
     33 H9         6.7179    7.5585   10.0988 H         1 RES1    0.0000
     34 H10        4.8436    7.8647   13.8753 H         1 RES1    0.0000
     35 H11        5.8408    6.9887   12.9767 H         1 RES1    0.0000
     36 H12        5.0025    4.8103   12.0538 H         1 RES1    0.0000
     37 H13        3.5360    3.0370   12.2817 H         1 RES1    0.0000
     38 H14        1.6632    3.2385   13.6343 H         1 RES1    0.0000
     39 H15        1.2198    5.2716   14.6957 H         1 RES1    0.0000
     40 H16        2.6483    7.0876   14.4027 H         1 RES1    0.0000
     41 H17        6.4773    9.0315   11.8617 H         1 RES1    0.0000
     42 H18        5.4121    9.9482   11.1617 H         1 RES1    0.0000
     43 H19        3.7729   11.1866   12.7309 H         1 RES1    0.0000
     44 H20        3.6939   12.5394   14.6159 H         1 RES1    0.0000
     45 H21        5.3913   12.4134   16.2242 H         1 RES1    0.0000
     46 H22        7.1734   10.9288   15.9100 H         1 RES1    0.0000
     47 H23        7.2396    9.5974   14.0104 H         1 RES1    0.0000
     48 H24        3.0248    9.1303   10.4537 H         1 RES1    0.0000
     49 H25        3.2000    8.8570    7.1460 H         1 RES1    0.0000
@<TRIPOS>BOND
     1    1    2 1
     2    2    3 1
     3    3    4 1
     4    4    5 1
     5    5    6 1
     6    6    7 1
     7    7    2 1
     8    8    4 1
     9    9    3 1
    10   10    1 1
    11   11   10 1
    12   12   11 ar
    13   13   12 ar
    14   14   13 ar
    15   15   14 ar
    16   16   11 ar
    17   17    1 1
    18   18   17 1
    19   19   18 ar
    20   20   19 ar
    21   21   20 ar
    22   22   21 ar
    23   23   18 ar
    24   24    1 1
    25   25    2 1
    26   26    3 1
    27   27    4 1
    28   28    5 1
    29   29    5 1
    30   30    6 1
    31   31    6 1
    32   32    7 1
    33   33    7 1
    34   34   10 1
    35   35   10 1
    36   36   12 1
    37   37   13 1
    38   38   14 1
    39   39   15 1
    40   40   16 1
    41   41   17 1
    42   42   17 1
    43   43   19 1
    44   44   20 1
    45   45   21 1
    46   46   22 1
    47   47   23 1
    48   48    9 1
    49   49    8 1
    50   15   16 ar
    51   22   23 ar
@<TRIPOS>SUBSTRUCTURE
     1 RES1 1

@<TRIPOS>CRYSIN
   5.5677   19.3808   16.2860  90.0000  91.8100  90.0000  14 1

