# MOL2 file generated by ConQuest
# Please check atom types

@<TRIPOS>MOLECULE
SAPWEL
    31    31     2
SMALL
NO_CHARGES
****
Generated from CSD

@<TRIPOS>ATOM
      1 O1         8.1982    1.8714    6.0343 O.3       1 RES1    0.0000
      2 N1         8.9001    0.7000    6.3541 N.2       1 RES1    0.0000
      3 C1         8.7889   -0.1229    5.3764 C.2       1 RES1    0.0000
      4 C2         7.8837    0.3571    4.2831 C.3       1 RES1    0.0000
      5 C3         6.4945   -0.2686    4.4555 C.3       1 RES1    0.0000
      6 C4         5.3903    0.5943    3.8458 C.3       1 RES1    0.0000
      7 C5         5.3954    1.9742    4.4972 C.3       1 RES1    0.0000
      8 C6         6.7250    2.6828    4.2504 C.3       1 RES1    0.0000
      9 C7         7.9395    1.8414    4.5885 C.3       1 RES1    0.0000
     10 C8         9.4242   -1.4600    5.4395 C.2       1 RES1    0.0000
     11 O2         9.3437   -2.1878    4.4721 O.2       1 RES1    0.0000
     12 C9        10.1215   -1.8685    6.6974 C.3       1 RES1    0.0000
     13 C10        4.2640    2.8649    4.0272 C.2       1 RES1    0.0000
     14 O3         4.3326    4.0571    3.8965 O.2       1 RES1    0.0000
     15 O4         3.1464    2.1650    3.7948 O.3       1 RES1    0.0000
     16 C11        2.0312    2.9171    3.2653 C.3       1 RES1    0.0000
     17 H1         8.2184    0.2000    3.4039 H         1 RES1    0.0000
     18 H2         6.4850   -1.1500    4.1140 H         1 RES1    0.0000
     19 H3         6.3034   -0.4071    5.4328 H         1 RES1    0.0000
     20 H4         5.5599    0.6857    2.8742 H         1 RES1    0.0000
     21 H5         4.5222    0.1357    3.9900 H         1 RES1    0.0000
     22 H6         5.2514    1.8857    5.4215 H         1 RES1    0.0000
     23 H7         6.7391    3.4785    4.7452 H         1 RES1    0.0000
     24 H8         6.7753    2.8857    3.3025 H         1 RES1    0.0000
     25 H9         8.7768    2.2428    4.1704 H         1 RES1    0.0000
     26 H10       10.5765   -2.6499    6.5824 H         1 RES1    0.0000
     27 H11        9.5216   -1.9357    7.4390 H         1 RES1    0.0000
     28 H12       10.8199   -1.2071    6.9995 H         1 RES1    0.0000
     29 H13        1.7055    3.5856    3.8660 H         1 RES1    0.0000
     30 H14        2.3026    3.3285    2.4684 Du        2 SUP2    0.0000
     31 H15        1.3080    2.2642    3.1334 H         1 RES1    0.0000
@<TRIPOS>BOND
     1    1    2 1
     2    2    3 2
     3    3    4 1
     4    4    5 1
     5    5    6 1
     6    6    7 1
     7    7    8 1
     8    8    9 1
     9    9    1 1
    10   10    3 1
    11   11   10 2
    12   12   10 1
    13   13    7 1
    14   14   13 2
    15   15   13 1
    16   16   15 1
    17   17    4 1
    18   18    5 1
    19   19    5 1
    20   20    6 1
    21   21    6 1
    22   22    7 1
    23   23    8 1
    24   24    8 1
    25   25    9 1
    26   26   12 1
    27   27   12 1
    28   28   12 1
    29   29   16 1
    30   31   16 1
    31    4    9 1
@<TRIPOS>SUBSTRUCTURE
     1 RES1 1
     2 SUP2 30

@<TRIPOS>CRYSIN
  13.5528    7.1427   12.3891  90.0000 114.5260  90.0000 231 1

