# MOL2 file generated by ConQuest
# Please check atom types

@<TRIPOS>MOLECULE
SAPYEN
    27    27     1
SMALL
NO_CHARGES
****
Generated from CSD

@<TRIPOS>ATOM
      1 O1         1.0923    3.6177    9.3038 O.3       1 RES1    0.0000
      2 O2         0.5232    1.6446    7.9770 O.2       1 RES1    0.0000
      3 O3         5.8158   -2.4822   12.9961 O.2       1 RES1    0.0000
      4 O4         4.4744   -1.9754   14.6137 O.2       1 RES1    0.0000
      5 N1         4.8282   -1.8999   13.4465 N.pl3     1 RES1    0.0000
      6 C1         2.4586    3.5750   11.2162 C.3       1 RES1    0.0000
      7 C2         1.7740    2.8381   10.1045 C.2       1 RES1    0.0000
      8 C3         1.8546    1.4762    9.9056 C.2       1 RES1    0.0000
      9 C4         1.1978    0.9122    8.7655 C.2       1 RES1    0.0000
     10 C5         1.2686   -0.5487    8.4585 C.3       1 RES1    0.0000
     11 C6         2.6209    0.5960   10.8389 C.ar      1 RES1    0.0000
     12 C7         3.7816   -0.0389   10.4128 C.ar      1 RES1    0.0000
     13 C8         4.5011   -0.8642   11.2581 C.ar      1 RES1    0.0000
     14 C9         4.0495   -1.0281   12.5457 C.ar      1 RES1    0.0000
     15 C10        2.9071   -0.4260   13.0069 C.ar      1 RES1    0.0000
     16 C11        2.1918    0.3955   12.1548 C.ar      1 RES1    0.0000
     17 H1         3.1529    3.0896   11.6679 H         1 RES1    0.0000
     18 H2         1.8096    3.8760   11.8573 H         1 RES1    0.0000
     19 H3         2.8385    4.3333   10.7658 H         1 RES1    0.0000
     20 H4         1.1273   -1.0631    9.2564 H         1 RES1    0.0000
     21 H5         2.1247   -0.7682    8.0838 H         1 RES1    0.0000
     22 H6         0.5791   -0.7507    7.8215 H         1 RES1    0.0000
     23 H7         4.0903    0.0998    9.5148 H         1 RES1    0.0000
     24 H8         5.2945   -1.3100   10.9538 H         1 RES1    0.0000
     25 H9         2.6107   -0.5739   13.9077 H         1 RES1    0.0000
     26 H10        1.3943    0.8292   12.4686 H         1 RES1    0.0000
     27 H11        0.6009    2.8815    8.5843 H         1 RES1    0.0000
@<TRIPOS>BOND
     1    1    7 1
     2    2    9 2
     3    3    5 2
     4    4    5 2
     5    5   14 1
     6    6    7 1
     7    7    8 2
     8    8    9 1
     9    9   10 1
    10   10   20 1
    11   11    8 1
    12   12   11 ar
    13   13   12 ar
    14   14   13 ar
    15   15   14 ar
    16   16   11 ar
    17   17    6 1
    18   18    6 1
    19   19    6 1
    20   21   10 1
    21   22   10 1
    22   23   12 1
    23   24   13 1
    24   25   15 1
    25   26   16 1
    26   27    1 1
    27   15   16 ar
@<TRIPOS>SUBSTRUCTURE
     1 RES1 1

@<TRIPOS>CRYSIN
  10.2490    7.6210   13.5250  90.0000  90.2100  90.0000  14 1

