# MOL2 file generated by ConQuest
# Please check atom types

@<TRIPOS>MOLECULE
SAQMIG
   102   106     2
SMALL
NO_CHARGES
****
Generated from CSD

@<TRIPOS>ATOM
      1 O1         6.3898    3.8993    8.7518 O.3       1 RES1    0.0000
      2 O2         7.8631    3.5430    7.0057 O.3       1 RES1    0.0000
      3 O3         8.1088    7.2205    6.0656 O.2       1 RES1    0.0000
      4 O4         6.8850    5.6716    5.1796 O.2       1 RES1    0.0000
      5 O5         6.4530    6.7971    9.3863 O.2       1 RES1    0.0000
      6 O6         5.3262    6.8720    7.5274 O.2       1 RES1    0.0000
      7 O7         3.4285    0.7648    7.8047 O.2       1 RES1    0.0000
      8 O8         5.0636   -0.2752    8.7377 O.2       1 RES1    0.0000
      9 N1         6.7071    4.2634    7.3840 N.3       1 RES1    0.0000
     10 N2         7.4428    6.2138    6.1220 N.pl3     1 RES1    0.0000
     11 N3         6.2655    6.5148    8.2160 N.pl3     1 RES1    0.0000
     12 N4         4.5982    0.6868    8.1455 N.pl3     1 RES1    0.0000
     13 C1         8.6066    5.4551    8.2301 C.3       1 RES1    0.0000
     14 C2         9.0618    4.0561    7.7483 C.3       1 RES1    0.0000
     15 C3        10.1607    4.1365    6.6907 C.3       1 RES1    0.0000
     16 C4         5.5045    1.8206    7.8446 C.3       1 RES1    0.0000
     17 C5         5.2257    3.0124    8.8082 C.3       1 RES1    0.0000
     18 C6         3.9789    3.7801    8.3899 C.3       1 RES1    0.0000
     19 C7         7.2781    5.6000    7.5321 C.3       1 RES1    0.0000
     20 C8         9.4218    3.0847    8.8505 C.ar      1 RES1    0.0000
     21 C9         9.7760    3.5120   10.1266 C.ar      1 RES1    0.0000
     22 C10       10.0897    2.5748   11.1207 C.ar      1 RES1    0.0000
     23 C11       10.0701    1.2315   10.8340 C.ar      1 RES1    0.0000
     24 C12        9.7514    0.8034    9.5532 C.ar      1 RES1    0.0000
     25 C13        9.4326    1.7282    8.5638 C.ar      1 RES1    0.0000
     26 C14        5.2265    2.5117   10.2535 C.ar      1 RES1    0.0000
     27 C15        6.4143    2.0102   10.7987 C.ar      1 RES1    0.0000
     28 C16        6.4144    1.4523   12.0772 C.ar      1 RES1    0.0000
     29 C17        5.2532    1.4034   12.8222 C.ar      1 RES1    0.0000
     30 C18        4.0827    1.9045   12.2910 C.ar      1 RES1    0.0000
     31 C19        4.0675    2.4678   11.0102 C.ar      1 RES1    0.0000
     32 H1         8.5031    5.4821    9.2148 H         1 RES1    0.0000
     33 H2         9.2427    6.1598    7.9480 H         1 RES1    0.0000
     34 H3        10.9885    4.4618    7.1044 H         1 RES1    0.0000
     35 H4         9.8879    4.7535    5.9810 H         1 RES1    0.0000
     36 H5        10.3140    3.2469    6.3100 H         1 RES1    0.0000
     37 H6         5.3702    2.1127    6.9093 H         1 RES1    0.0000
     38 H7         6.4456    1.5283    7.9433 H         1 RES1    0.0000
     39 H8         3.2066    3.1775    8.3969 H         1 RES1    0.0000
     40 H9         4.1052    4.1403    7.4874 H         1 RES1    0.0000
     41 H10        3.8240    4.5171    9.0173 H         1 RES1    0.0000
     42 H11        9.8065    4.4409   10.3264 H         1 RES1    0.0000
     43 H12       10.3158    2.8689   11.9949 H         1 RES1    0.0000
     44 H13       10.2758    0.5967   11.5108 H         1 RES1    0.0000
     45 H14        9.7510   -0.1245    9.3511 H         1 RES1    0.0000
     46 H15        9.2218    1.4280    7.6895 H         1 RES1    0.0000
     47 H16        7.2211    2.0512   10.2982 H         1 RES1    0.0000
     48 H17        7.2207    1.1022   12.4367 H         1 RES1    0.0000
     49 H18        5.2603    1.0289   13.6941 H         1 RES1    0.0000
     50 H19        3.2807    1.8661   12.7963 H         1 RES1    0.0000
     51 H20        3.2597    2.8221   10.6601 H         1 RES1    0.0000
     52 O9         7.4037    0.6547    3.1068 O.3       2 RES2    0.0000
     53 O10        8.9020    1.0689    4.8224 O.3       2 RES2    0.0000
     54 O11        8.4656   -2.7286    6.0069 O.2       2 RES2    0.0000
     55 O12        7.7239   -0.8521    6.7988 O.2       2 RES2    0.0000
     56 O13        7.5701   -2.2580    2.5851 O.2       2 RES2    0.0000
     57 O14        6.1745   -2.1372    4.2466 O.2       2 RES2    0.0000
     58 O15        4.4315    3.4102    4.8036 O.2       2 RES2    0.0000
     59 O16        5.0945    4.4721    3.0316 O.2       2 RES2    0.0000
     60 N5         7.7118    0.3677    4.4957 N.3       2 RES2    0.0000
     61 N6         8.1106   -1.5665    5.9035 N.pl3     2 RES2    0.0000
     62 N7         7.2302   -1.8922    3.6920 N.pl3     2 RES2    0.0000
     63 N8         5.2332    3.6214    3.8965 N.pl3     2 RES2    0.0000
     64 C20        6.4606    2.7606    3.8518 C.3       2 RES2    0.0000
     65 C21        6.1923    1.5000    3.0105 C.3       2 RES2    0.0000
     66 C22        4.9972    0.7235    3.5111 C.3       2 RES2    0.0000
     67 C23        9.6186   -1.0078    3.9458 C.3       2 RES2    0.0000
     68 C24       10.0729    0.4390    4.1385 C.3       2 RES2    0.0000
     69 C25       11.2123    0.5564    5.1467 C.3       2 RES2    0.0000
     70 C26        8.2043   -1.0122    4.4699 C.3       2 RES2    0.0000
     71 C27       10.3972    1.2130    2.8624 C.ar      2 RES2    0.0000
     72 C28       10.4009    2.5907    2.9094 C.ar      2 RES2    0.0000
     73 C29       10.6863    3.3467    1.7720 C.ar      2 RES2    0.0000
     74 C30       10.9846    2.6981    0.5711 C.ar      2 RES2    0.0000
     75 C31       11.0034    1.3356    0.5170 C.ar      2 RES2    0.0000
     76 C32       10.7179    0.5812    1.6615 C.ar      2 RES2    0.0000
     77 C33        6.1546    1.8343    1.5158 C.ar      2 RES2    0.0000
     78 C34        7.2922    2.3136    0.8907 C.ar      2 RES2    0.0000
     79 C35        7.2729    2.6895   -0.4512 C.ar      2 RES2    0.0000
     80 C36        6.0989    2.5651   -1.1774 C.ar      2 RES2    0.0000
     81 C37        4.9756    2.0845   -0.5758 C.ar      2 RES2    0.0000
     82 C38        4.9861    1.7067    0.7708 C.ar      2 RES2    0.0000
     83 H21        6.7168    2.4989    4.7707 H         2 RES2    0.0000
     84 H22        7.2122    3.2711    3.4570 H         2 RES2    0.0000
     85 H23        4.1947    1.2814    3.4476 H         2 RES2    0.0000
     86 H24        5.1426    0.4658    4.4440 H         2 RES2    0.0000
     87 H25        4.8796   -0.0823    2.9658 H         2 RES2    0.0000
     88 H26        9.6425   -1.2639    2.9893 H         2 RES2    0.0000
     89 H27       10.1892   -1.6312    4.4605 H         2 RES2    0.0000
     90 H28       12.0056    0.0992    4.7966 H         2 RES2    0.0000
     91 H29       10.9437    0.1445    5.9928 H         2 RES2    0.0000
     92 H30       11.4202    1.5031    5.2948 H         2 RES2    0.0000
     93 H31       10.2069    3.0315    3.7273 H         2 RES2    0.0000
     94 H32       10.6775    4.2949    1.8143 H         2 RES2    0.0000
     95 H33       11.1744    3.2064   -0.2092 H         2 RES2    0.0000
     96 H34       11.2102    0.8965   -0.2985 H         2 RES2    0.0000
     97 H35       10.7434   -0.3670    1.6216 H         2 RES2    0.0000
     98 H36        8.1008    2.3875    1.3842 H         2 RES2    0.0000
     99 H37        8.0585    3.0275   -0.8648 H         2 RES2    0.0000
    100 H38        6.0776    2.8153   -2.0939 H         2 RES2    0.0000
    101 H39        4.1725    2.0046   -1.0787 H         2 RES2    0.0000
    102 H40        4.1987    1.3636    1.1751 H         2 RES2    0.0000
@<TRIPOS>BOND
     1    1    9 1
     2    2    9 1
     3    3   10 2
     4    4   10 2
     5    5   11 2
     6    6   11 2
     7    7   12 2
     8    8   12 2
     9    9   19 1
    10   10   19 1
    11   11   19 1
    12   12   16 1
    13   13   14 1
    14   14    2 1
    15   15   14 1
    16   16   17 1
    17   17    1 1
    18   18   17 1
    19   19   13 1
    20   20   14 1
    21   21   20 ar
    22   22   21 ar
    23   23   22 ar
    24   24   23 ar
    25   25   20 ar
    26   26   17 1
    27   27   26 ar
    28   28   27 ar
    29   29   28 ar
    30   30   29 ar
    31   31   26 ar
    32   32   13 1
    33   33   13 1
    34   34   15 1
    35   35   15 1
    36   36   15 1
    37   37   16 1
    38   38   16 1
    39   39   18 1
    40   40   18 1
    41   41   18 1
    42   42   21 1
    43   43   22 1
    44   44   23 1
    45   45   24 1
    46   46   25 1
    47   47   27 1
    48   48   28 1
    49   49   29 1
    50   50   30 1
    51   51   31 1
    52   52   60 1
    53   53   60 1
    54   54   61 2
    55   55   61 2
    56   56   62 2
    57   57   62 2
    58   58   63 2
    59   59   63 2
    60   60   70 1
    61   61   70 1
    62   62   70 1
    63   63   64 1
    64   64   65 1
    65   65   52 1
    66   66   65 1
    67   67   68 1
    68   68   53 1
    69   69   68 1
    70   70   67 1
    71   71   68 1
    72   72   71 ar
    73   73   72 ar
    74   74   73 ar
    75   75   74 ar
    76   76   71 ar
    77   77   65 1
    78   78   77 ar
    79   79   78 ar
    80   80   79 ar
    81   81   80 ar
    82   82   77 ar
    83   83   64 1
    84   84   64 1
    85   85   66 1
    86   86   66 1
    87   87   66 1
    88   88   67 1
    89   89   67 1
    90   90   69 1
    91   91   69 1
    92   92   69 1
    93   93   72 1
    94   94   73 1
    95   95   74 1
    96   96   75 1
    97   97   76 1
    98   98   78 1
    99   99   79 1
   100  100   80 1
   101  101   81 1
   102  102   82 1
   103   24   25 ar
   104   30   31 ar
   105   75   76 ar
   106   81   82 ar
@<TRIPOS>SUBSTRUCTURE
     1 RES1 1
     2 RES2 52

@<TRIPOS>CRYSIN
   9.6356    9.7619   23.7100  87.9100  82.4900  64.6310   2 1

