# MOL2 file generated by ConQuest
# Please check atom types

@<TRIPOS>MOLECULE
SAQSUA
    68    72     1
SMALL
USER_CHARGES
****
Generated from CSD

@<TRIPOS>ATOM
      1 C1         9.6301    1.8485    6.7077 C.ar      1 RES1    0.0000
      2 C2         8.6996    2.4547    5.8358 C.ar      1 RES1    0.0000
      3 H1         7.7894    2.2970    5.9411 H         1 RES1    0.0000
      4 C3         9.1401    3.2631    4.8487 C.ar      1 RES1    0.0000
      5 H2         8.5132    3.6681    4.2939 H         1 RES1    0.0000
      6 C4        10.4660    3.5126    4.6283 C.ar      1 RES1    0.0000
      7 H3        10.7268    4.0728    3.9335 H         1 RES1    0.0000
      8 C5        11.4036    2.9355    5.4321 C.ar      1 RES1    0.0000
      9 H4        12.3059    3.0988    5.2797 H         1 RES1    0.0000
     10 C6        11.0095    2.0863    6.4984 C.ar      1 RES1    0.0000
     11 C7        11.9356    1.4980    7.3282 C.ar      1 RES1    0.0000
     12 H5        12.8411    1.6583    7.1945 H         1 RES1    0.0000
     13 C8        12.5628    0.1401    9.2429 C.3       1 RES1    0.0000
     14 H6        12.2223   -0.6865    9.6182 H         1 RES1    0.0000
     15 H7        13.3703   -0.0694    8.7463 H         1 RES1    0.0000
     16 C9        12.8990    1.0777   10.3489 C.ar      1 RES1    0.0000
     17 C10       12.0484    2.1012   10.7651 C.ar      1 RES1    0.0000
     18 H8        11.2070    2.1942   10.3786 H         1 RES1    0.0000
     19 C11       12.4581    2.9789   11.7583 C.ar      1 RES1    0.0000
     20 H9        11.9122    3.6827   12.0246 H         1 RES1    0.0000
     21 C12       13.6918    2.7862   12.3429 C.ar      1 RES1    0.0000
     22 C13       14.4977    1.8133   11.9837 C.ar      1 RES1    0.0000
     23 H10       15.3149    1.7048   12.4147 H         1 RES1    0.0000
     24 C14       14.1402    0.9569   10.9781 C.ar      1 RES1    0.0000
     25 H11       14.7288    0.2883   10.7106 H         1 RES1    0.0000
     26 C15       10.2319    0.4322    8.5506 C.ar      1 RES1    0.0000
     27 H12       10.0057   -0.1564    9.2343 H         1 RES1    0.0000
     28 C16        9.2302    1.0169    7.7914 C.ar      1 RES1    0.0000
     29 C17        7.7820    0.7599    8.1060 C.3       1 RES1    0.0000
     30 H13        7.3574    0.5220    7.2551 H         1 RES1    0.0000
     31 C18        7.5722   -0.4259    9.0274 C.ar      1 RES1    0.0000
     32 C19        7.3953   -1.6859    8.4813 C.ar      1 RES1    0.0000
     33 H14        7.4034   -1.7820    7.5561 H         1 RES1    0.0000
     34 C20        7.2077   -2.8107    9.2739 C.ar      1 RES1    0.0000
     35 H15        7.1009   -3.6431    8.8739 H         1 RES1    0.0000
     36 C21        7.1765   -2.7018   10.6610 C.ar      1 RES1    0.0000
     37 C22        7.3552   -1.4617   11.1948 C.ar      1 RES1    0.0000
     38 H16        7.3589   -1.3680   12.1212 H         1 RES1    0.0000
     39 C23        7.5321   -0.3402   10.4121 C.ar      1 RES1    0.0000
     40 H17        7.6261    0.4901   10.8208 H         1 RES1    0.0000
     41 C24        6.9477   -3.9722   11.5243 C.3       1 RES1    0.0000
     42 H18        7.5106   -4.6815   11.2047 H         1 RES1    0.0000
     43 H19        6.0274   -4.2403   11.4611 H         1 RES1    0.0000
     44 H20        7.1632   -3.7806   12.4395 H         1 RES1    0.0000
     45 C25        7.0932    2.0550    8.5828 C.2       1 RES1   -1.0000
     46 C26        5.7983    2.2892    8.1048 C.2       1 RES1    0.0000
     47 C27        5.0701    3.5600    8.4788 C.3       1 RES1    0.0000
     48 H21        4.4658    3.3603    9.2107 H         1 RES1    0.0000
     49 H22        4.5291    3.8352    7.7221 H         1 RES1    0.0000
     50 C28        5.9472    4.7277    8.8900 C.3       1 RES1    0.0000
     51 C29        6.9923    4.2209    9.8597 C.3       1 RES1    0.0000
     52 H23        6.5609    4.0461   10.7106 H         1 RES1    0.0000
     53 H24        7.6440    4.9239   10.0021 H         1 RES1    0.0000
     54 C30        7.7291    2.9651    9.4300 C.2       1 RES1    0.0000
     55 C31        6.6434    5.3077    7.6577 C.3       1 RES1    0.0000
     56 H25        7.2249    6.0237    7.9264 H         1 RES1    0.0000
     57 H26        5.9856    5.6427    7.0458 H         1 RES1    0.0000
     58 H27        7.1596    4.6212    7.2291 H         1 RES1    0.0000
     59 C32        5.1150    5.8279    9.5513 C.3       1 RES1    0.0000
     60 H28        4.6162    5.4558   10.2820 H         1 RES1    0.0000
     61 H29        4.5083    6.2019    8.9073 H         1 RES1    0.0000
     62 H30        5.6983    6.5169    9.8795 H         1 RES1    0.0000
     63 N1        11.5495    0.7090    8.3128 N.pl3     1 RES1    1.0000
     64 N2        14.1190    3.7183   13.3969 N.pl3     1 RES1    0.0000
     65 O1        13.4339    4.6799   13.6433 O.2       1 RES1    0.0000
     66 O2        15.0926    3.4887   14.0384 O.2       1 RES1    0.0000
     67 O3         8.8797    2.7908    9.9192 O.2       1 RES1    0.0000
     68 O4         5.1926    1.4766    7.3406 O.2       1 RES1    0.0000
@<TRIPOS>BOND
     1    1    2 ar
     2    2    3 1
     3    4    2 ar
     4    5    4 1
     5    6    4 ar
     6    7    6 1
     7    8    6 ar
     8    9    8 1
     9   10    1 ar
    10   11   10 ar
    11   12   11 1
    12   13   14 1
    13   15   13 1
    14   16   13 1
    15   17   16 ar
    16   18   17 1
    17   19   17 ar
    18   20   19 1
    19   21   19 ar
    20   22   21 ar
    21   23   22 1
    22   24   16 ar
    23   25   24 1
    24   26   27 1
    25   28    1 ar
    26   29   28 1
    27   30   29 1
    28   31   29 1
    29   32   31 ar
    30   33   32 1
    31   34   32 ar
    32   35   34 1
    33   36   34 ar
    34   37   36 ar
    35   38   37 1
    36   39   31 ar
    37   40   39 1
    38   41   36 1
    39   42   41 1
    40   43   41 1
    41   44   41 1
    42   45   29 1
    43   46   45 1
    44   47   46 1
    45   48   47 1
    46   49   47 1
    47   50   47 1
    48   51   50 1
    49   52   51 1
    50   53   51 1
    51   54   45 1
    52   55   50 1
    53   56   55 1
    54   57   55 1
    55   58   55 1
    56   59   50 1
    57   60   59 1
    58   61   59 1
    59   62   59 1
    60   63   11 ar
    61   64   21 1
    62   65   64 2
    63   66   64 2
    64   67   54 2
    65   68   46 2
    66    8   10 ar
    67   13   63 1
    68   22   24 ar
    69   26   28 ar
    70   26   63 ar
    71   37   39 ar
    72   51   54 1
@<TRIPOS>SUBSTRUCTURE
     1 RES1 1

@<TRIPOS>CRYSIN
   9.8220   12.2030   12.7630  86.6130  76.1680  84.0750   2 1

