# MOL2 file generated by ConQuest
# Please check atom types

@<TRIPOS>MOLECULE
SAQTEL
    66    70     2
SMALL
NO_CHARGES
****
Generated from CSD

@<TRIPOS>ATOM
      1 C1         3.6376   -0.9720   13.2747 C.2       1 RES1    0.0000
      2 H1         3.0447   -1.3835   13.8614 H         1 RES1    0.0000
      3 C2         4.9567   -1.1371   13.4787 C.2       1 RES1    0.0000
      4 H2         5.2602   -1.6745   14.1735 H         1 RES1    0.0000
      5 C3         5.8976   -0.4713   12.6065 C.ar      1 RES1    0.0000
      6 C4         7.2752   -0.3756   12.9159 C.ar      1 RES1    0.0000
      7 H3         7.6143   -0.7735   13.6854 H         1 RES1    0.0000
      8 C5         8.1119    0.3150   12.0637 C.ar      1 RES1    0.0000
      9 H4         9.0228    0.3461   12.2518 H         1 RES1    0.0000
     10 C6         7.6440    0.9497   10.9582 C.ar      1 RES1    0.0000
     11 H5         8.2258    1.4217   10.4061 H         1 RES1    0.0000
     12 C7         6.2828    0.8891   10.6555 C.ar      1 RES1    0.0000
     13 H6         5.9533    1.3332    9.9086 H         1 RES1    0.0000
     14 C8         5.4224    0.1682   11.4663 C.ar      1 RES1    0.0000
     15 C9         3.9636    0.0159   11.0635 C.3       1 RES1    0.0000
     16 H7         3.6685    0.8468   10.6368 H         1 RES1    0.0000
     17 C10        3.7445   -1.1618   10.0673 C.3       1 RES1    0.0000
     18 H8         4.1710   -1.9552   10.4514 H         1 RES1    0.0000
     19 C11        4.3906   -0.9066    8.7231 C.ar      1 RES1    0.0000
     20 C12        5.6444   -1.4305    8.4710 C.ar      1 RES1    0.0000
     21 H9         6.0400   -1.9863    9.1032 H         1 RES1    0.0000
     22 C13        6.3256   -1.1498    7.3055 C.ar      1 RES1    0.0000
     23 H10        7.1861   -1.4744    7.1654 H         1 RES1    0.0000
     24 C14        5.6999   -0.3811    6.3626 C.ar      1 RES1    0.0000
     25 C15        4.4277    0.1364    6.5560 C.ar      1 RES1    0.0000
     26 H11        4.0176    0.6499    5.8972 H         1 RES1    0.0000
     27 C16        3.7832   -0.1284    7.7495 C.ar      1 RES1    0.0000
     28 H12        2.9333    0.2193    7.9016 H         1 RES1    0.0000
     29 C17        1.9078   -2.7526   10.2034 C.2       1 RES1    0.0000
     30 H13        2.5620   -3.4136   10.2300 H         1 RES1    0.0000
     31 C18        0.6295   -3.0986   10.3647 C.2       1 RES1    0.0000
     32 H14        0.4159   -3.9845   10.5501 H         1 RES1    0.0000
     33 C19       -0.4238   -2.1242   10.2554 C.ar      1 RES1    0.0000
     34 C20       -1.7496   -2.4695   10.0967 C.ar      1 RES1    0.0000
     35 H15       -1.9976   -3.3649   10.1220 H         1 RES1    0.0000
     36 C21       -2.6987   -1.5094    9.9046 C.ar      1 RES1    0.0000
     37 H16       -3.5893   -1.7614    9.8193 H         1 RES1    0.0000
     38 C22       -2.3685   -0.1874    9.8326 C.ar      1 RES1    0.0000
     39 H17       -3.0299    0.4505    9.6899 H         1 RES1    0.0000
     40 C23       -1.0132    0.2145    9.9767 C.ar      1 RES1    0.0000
     41 H18       -0.7723    1.1108    9.9193 H         1 RES1    0.0000
     42 C24       -0.0550   -0.7719   10.2074 C.ar      1 RES1    0.0000
     43 C25        1.3914   -0.3843   10.4994 C.3       1 RES1    0.0000
     44 H19        1.5917    0.4521   10.0287 H         1 RES1    0.0000
     45 C26        1.6704   -0.1754   12.0371 C.3       1 RES1    0.0000
     46 H20        1.2724   -0.9321   12.5172 H         1 RES1    0.0000
     47 C27        1.0627    1.0900   12.5945 C.ar      1 RES1    0.0000
     48 C28        1.8192    2.2327   12.7599 C.ar      1 RES1    0.0000
     49 H21        2.7205    2.2199   12.5345 H         1 RES1    0.0000
     50 C29        1.2543    3.4040   13.2573 C.ar      1 RES1    0.0000
     51 H22        1.7724    4.1703   13.3600 H         1 RES1    0.0000
     52 C30       -0.0710    3.4136   13.5934 C.ar      1 RES1    0.0000
     53 C31       -0.8491    2.2805   13.4854 C.ar      1 RES1    0.0000
     54 H23       -1.7427    2.2957   13.7401 H         1 RES1    0.0000
     55 C32       -0.2790    1.1227   12.9919 C.ar      1 RES1    0.0000
     56 H24       -0.7946    0.3524   12.9239 H         1 RES1    0.0000
     57 N1        -0.6896    4.6687   14.0615 N.pl3     1 RES1    0.0000
     58 N2         3.1225   -0.2288   12.2491 N.3       1 RES1    0.0000
     59 N3         6.4093   -0.0837    5.1077 N.pl3     1 RES1    0.0000
     60 N4         2.2930   -1.4313    9.9980 N.3       1 RES1    0.0000
     61 O1         0.0698    5.5920   14.3095 O.2       1 RES1    0.0000
     62 H25       -0.3639    6.2419   14.5616 Du        2 SUP2    0.0000
     63 O2        -1.8937    4.7285   14.1962 O.2       1 RES1    0.0000
     64 O3         7.5908   -0.3620    5.0210 O.2       1 RES1    0.0000
     65 O4         5.7848    0.4226    4.2102 O.2       1 RES1    0.0000
     66 H26        5.1216   -0.0311    4.0501 Du        2 SUP2    0.0000
@<TRIPOS>BOND
     1    1    2 1
     2    3    1 2
     3    4    3 1
     4    5    3 1
     5    6    5 ar
     6    7    6 1
     7    8    6 ar
     8    9    8 1
     9   10    8 ar
    10   11   10 1
    11   12   10 ar
    12   13   12 1
    13   14    5 ar
    14   15   14 1
    15   16   15 1
    16   17   15 1
    17   18   17 1
    18   19   17 1
    19   20   19 ar
    20   21   20 1
    21   22   20 ar
    22   23   22 1
    23   24   22 ar
    24   25   24 ar
    25   26   25 1
    26   27   19 ar
    27   28   27 1
    28   29   30 1
    29   31   29 2
    30   32   31 1
    31   33   31 1
    32   34   33 ar
    33   35   34 1
    34   36   34 ar
    35   37   36 1
    36   38   36 ar
    37   39   38 1
    38   40   38 ar
    39   41   40 1
    40   42   33 ar
    41   43   42 1
    42   44   43 1
    43   45   43 1
    44   46   45 1
    45   47   45 1
    46   48   47 ar
    47   49   48 1
    48   50   48 ar
    49   51   50 1
    50   52   50 ar
    51   53   52 ar
    52   54   53 1
    53   55   47 ar
    54   56   55 1
    55   57   52 1
    56   58    1 1
    57   59   24 1
    58   60   17 1
    59   61   57 2
    60   63   57 2
    61   64   59 2
    62   65   59 2
    63   12   14 ar
    64   15   58 1
    65   25   27 ar
    66   29   60 1
    67   40   42 ar
    68   43   60 1
    69   45   58 1
    70   53   55 ar
@<TRIPOS>SUBSTRUCTURE
     1 RES1 1
     2 SUP2 62

@<TRIPOS>CRYSIN
  24.7540    7.9738   13.3360  90.0000  90.0000  90.0000  33 1

