# MOL2 file generated by ConQuest
# Please check atom types

@<TRIPOS>MOLECULE
SAQVEK
    46    48     1
SMALL
NO_CHARGES
****
Generated from CSD

@<TRIPOS>ATOM
      1 N1        -3.1036    3.5011    2.5430 N.am      1 RES1    0.0000
      2 N2        -2.2141    9.9577    2.6752 N.pl3     1 RES1    0.0000
      3 O1        -3.9108    4.5532    4.3802 O.2       1 RES1    0.0000
      4 O2         0.8397    0.8472    5.9889 O.2       1 RES1    0.0000
      5 O3        -0.6178    3.8689    4.6314 O.3       1 RES1    0.0000
      6 O4        -4.0128    4.2533    0.5998 O.2       1 RES1    0.0000
      7 O5        -1.3103   10.1990    3.4508 O.2       1 RES1    0.0000
      8 O6        -2.8357   10.8062    2.1399 O.2       1 RES1    0.0000
      9 C1        -2.6389    2.6057    4.8296 C.3       1 RES1    0.0000
     10 H1        -3.3196    2.3656    5.4920 H         1 RES1    0.0000
     11 C2        -3.2846    3.6205    3.9135 C.2       1 RES1    0.0000
     12 C3        -2.6627    2.2287    1.9056 C.3       1 RES1    0.0000
     13 H2        -2.2093    2.4644    1.0695 H         1 RES1    0.0000
     14 C4        -1.6389    1.5543    2.7974 C.3       1 RES1    0.0000
     15 H3        -1.3640    0.7155    2.3949 H         1 RES1    0.0000
     16 H4        -0.8548    2.1212    2.8739 H         1 RES1    0.0000
     17 C5        -2.1984    1.2891    4.1710 C.3       1 RES1    0.0000
     18 H5        -3.0113    0.7573    4.0414 H         1 RES1    0.0000
     19 C6        -1.2816    0.4660    5.0824 C.3       1 RES1    0.0000
     20 H6        -1.8398   -0.0418    5.6934 H         1 RES1    0.0000
     21 H7        -0.8029   -0.1722    4.5313 H         1 RES1    0.0000
     22 C7        -0.2917    1.2132    5.8814 C.2       1 RES1    0.0000
     23 C8        -0.8253    2.4150    6.5855 C.3       1 RES1    0.0000
     24 H8        -0.0953    2.8899    7.0133 H         1 RES1    0.0000
     25 H9        -1.4490    2.1377    7.2745 H         1 RES1    0.0000
     26 C9        -1.5307    3.3446    5.6011 C.3       1 RES1    0.0000
     27 H10       -1.9293    4.0892    6.0961 H         1 RES1    0.0000
     28 C10       -3.8329    1.3310    1.5461 C.3       1 RES1    0.0000
     29 H11       -4.3042    1.0840    2.3459 H         1 RES1    0.0000
     30 H12       -3.5066    0.5395    1.1104 H         1 RES1    0.0000
     31 H13       -4.4268    1.7996    0.9552 H         1 RES1    0.0000
     32 C11        0.2345    4.8718    5.1545 C.3       1 RES1    0.0000
     33 H14       -0.2926    5.5405    5.5981 H         1 RES1    0.0000
     34 H15        0.7286    5.2771    4.4387 H         1 RES1    0.0000
     35 H16        0.8450    4.4780    5.7832 H         1 RES1    0.0000
     36 C12       -3.5239    4.5286    1.6666 C.2       1 RES1    0.0000
     37 C13       -3.2129    5.9399    2.0153 C.ar      1 RES1    0.0000
     38 C14       -2.0906    6.2710    2.7653 C.ar      1 RES1    0.0000
     39 H17       -1.5590    5.6000    3.1270 H         1 RES1    0.0000
     40 C15       -1.7669    7.5857    2.9700 C.ar      1 RES1    0.0000
     41 H18       -1.0205    7.8150    3.4753 H         1 RES1    0.0000
     42 C16       -2.5549    8.5558    2.4219 C.ar      1 RES1    0.0000
     43 C17       -3.6721    8.2696    1.6721 C.ar      1 RES1    0.0000
     44 H19       -4.1995    8.9496    1.3172 H         1 RES1    0.0000
     45 C18       -3.9852    6.9505    1.4650 C.ar      1 RES1    0.0000
     46 H20       -4.7260    6.7309    0.9471 H         1 RES1    0.0000
@<TRIPOS>BOND
     1    1   11 1
     2    2    7 2
     3    3   11 2
     4    4   22 2
     5    5   26 1
     6    6   36 2
     7    8    2 2
     8    9   10 1
     9   11    9 1
    10   12    1 1
    11   13   12 1
    12   14   12 1
    13   15   14 1
    14   16   14 1
    15   17    9 1
    16   18   17 1
    17   19   17 1
    18   20   19 1
    19   21   19 1
    20   22   19 1
    21   23   22 1
    22   24   23 1
    23   25   23 1
    24   26    9 1
    25   27   26 1
    26   28   12 1
    27   29   28 1
    28   30   28 1
    29   31   28 1
    30   32    5 1
    31   33   32 1
    32   34   32 1
    33   35   32 1
    34   36    1 1
    35   37   36 1
    36   38   37 ar
    37   39   38 1
    38   40   38 ar
    39   41   40 1
    40   42    2 1
    41   43   42 ar
    42   44   43 1
    43   45   37 ar
    44   46   45 1
    45   14   17 1
    46   23   26 1
    47   40   42 ar
    48   43   45 ar
@<TRIPOS>SUBSTRUCTURE
     1 RES1 1

