# MOL2 file generated by ConQuest
# Please check atom types

@<TRIPOS>MOLECULE
SAQVIS
    34    36     1
SMALL
NO_CHARGES
****
Generated from CSD

@<TRIPOS>ATOM
      1 O1         1.3984    0.2955   -6.6890 O.3       1 RES1    0.0000
      2 C1         0.0617    0.6503   -6.5988 C.2       1 RES1    0.0000
      3 N1        -0.7007    0.1218   -7.5128 N.2       1 RES1    0.0000
      4 C2         0.1801   -0.6604   -8.2828 C.ar      1 RES1    0.0000
      5 C3        -0.0536   -1.4656   -9.3871 C.ar      1 RES1    0.0000
      6 H1        -0.8992   -1.5649   -9.7607 H         1 RES1    0.0000
      7 C4         1.0610   -2.1105   -9.8933 C.ar      1 RES1    0.0000
      8 C5         2.3355   -1.9776   -9.3883 C.ar      1 RES1    0.0000
      9 H2         3.0434   -2.4337   -9.7834 H         1 RES1    0.0000
     10 C6         2.5627   -1.1643   -8.2876 C.ar      1 RES1    0.0000
     11 H3         3.4107   -1.0470   -7.9246 H         1 RES1    0.0000
     12 C7         1.4548   -0.5443   -7.7703 C.ar      1 RES1    0.0000
     13 N2         0.8816   -3.0091  -11.0465 N.pl3     1 RES1    0.0000
     14 O2        -0.2554   -3.1712  -11.4770 O.2       1 RES1    0.0000
     15 O3         1.8676   -3.5662  -11.5163 O.2       1 RES1    0.0000
     16 C8        -0.2944    1.5453   -5.5247 C.ar      1 RES1    0.0000
     17 C9         0.6507    2.0153   -4.6201 C.ar      1 RES1    0.0000
     18 H4         1.5351    1.7388   -4.7037 H         1 RES1    0.0000
     19 C10        0.3124    2.8780   -3.6066 C.ar      1 RES1    0.0000
     20 H5         0.9701    3.1655   -3.0156 H         1 RES1    0.0000
     21 C11       -1.0025    3.3353   -3.4455 C.ar      1 RES1    0.0000
     22 C12       -1.9577    2.8398   -4.3587 C.ar      1 RES1    0.0000
     23 H6        -2.8446    3.1092   -4.2763 H         1 RES1    0.0000
     24 C13       -1.6146    1.9745   -5.3615 C.ar      1 RES1    0.0000
     25 H7        -2.2708    1.6668   -5.9441 H         1 RES1    0.0000
     26 N3        -1.3357    4.2270   -2.4600 N.3       1 RES1    0.0000
     27 C14       -2.7245    4.6063   -2.2384 C.3       1 RES1    0.0000
     28 H8        -3.1044    4.9235   -3.0610 H         1 RES1    0.0000
     29 H9        -2.7647    5.3016   -1.5782 H         1 RES1    0.0000
     30 H10       -3.2190    3.8436   -1.9304 H         1 RES1    0.0000
     31 C15       -0.3720    4.5730   -1.4290 C.3       1 RES1    0.0000
     32 H11       -0.1597    3.7910   -0.9133 H         1 RES1    0.0000
     33 H12       -0.7469    5.2433   -0.8524 H         1 RES1    0.0000
     34 H13        0.4264    4.9133   -1.8385 H         1 RES1    0.0000
@<TRIPOS>BOND
     1    1    2 1
     2    2    3 2
     3    3    4 1
     4    4    5 ar
     5    5    6 1
     6    7    5 ar
     7    8    7 ar
     8    9    8 1
     9   10    8 ar
    10   11   10 1
    11   12    1 1
    12   13    7 1
    13   14   13 2
    14   15   13 2
    15   16    2 1
    16   17   16 ar
    17   18   17 1
    18   19   17 ar
    19   20   19 1
    20   21   19 ar
    21   22   21 ar
    22   23   22 1
    23   24   16 ar
    24   25   24 1
    25   26   21 1
    26   27   26 1
    27   28   27 1
    28   29   27 1
    29   30   27 1
    30   31   26 1
    31   32   31 1
    32   33   31 1
    33   34   31 1
    34    4   12 ar
    35   10   12 ar
    36   22   24 ar
@<TRIPOS>SUBSTRUCTURE
     1 RES1 1

@<TRIPOS>CRYSIN
   6.4187    8.7402   12.1440  79.9930  85.0300  80.3350   2 1

