# MOL2 file generated by ConQuest
# Please check atom types

@<TRIPOS>MOLECULE
SAQVAG
    31    32     1
SMALL
NO_CHARGES
****
Generated from CSD

@<TRIPOS>ATOM
      1 N1         4.0176    1.6800   14.0968 N.am      1 RES1    0.0000
      2 N2         8.6725    2.7568    9.7014 N.pl3     1 RES1    0.0000
      3 O1         5.7615    3.0936   14.4734 O.2       1 RES1    0.0000
      4 O2         9.7011    2.1345    9.5602 O.2       1 RES1    0.0000
      5 O3         4.5039   -0.4107   13.3600 O.2       1 RES1    0.0000
      6 O4         8.4493    3.8296    9.1528 O.2       1 RES1    0.0000
      7 C1         4.5709    2.8785   14.5619 C.2       1 RES1    0.0000
      8 C2         3.6411    3.8658   15.1430 C.2       1 RES1    0.0000
      9 H1         3.9395    4.7304   15.3122 H         1 RES1    0.0000
     10 C3         2.3518    3.5310   15.4351 C.2       1 RES1    0.0000
     11 H2         1.8515    4.0306   16.0394 H         1 RES1    0.0000
     12 C4         1.7660    2.3335   14.7550 C.3       1 RES1    0.0000
     13 H3         1.4956    2.5768   13.8561 H         1 RES1    0.0000
     14 H4         0.9755    2.0450   15.2365 H         1 RES1    0.0000
     15 C5         2.7489    1.1974   14.6873 C.3       1 RES1    0.0000
     16 H5         2.3790    0.5148   14.0884 H         1 RES1    0.0000
     17 C6         3.0104    0.5429   16.0351 C.3       1 RES1    0.0000
     18 H6         3.6765   -0.1408   15.9351 H         1 RES1    0.0000
     19 H7         2.1978    0.1528   16.3643 H         1 RES1    0.0000
     20 H8         3.3236    1.2045   16.6572 H         1 RES1    0.0000
     21 C7         4.7573    0.7802   13.3292 C.2       1 RES1    0.0000
     22 C8         5.7763    1.3201   12.3902 C.ar      1 RES1    0.0000
     23 C9         5.4993    2.4089   11.5862 C.ar      1 RES1    0.0000
     24 H9         4.6755    2.8362   11.6508 H         1 RES1    0.0000
     25 C10        6.4379    2.8604   10.6948 C.ar      1 RES1    0.0000
     26 H10        6.2589    3.5933   10.1509 H         1 RES1    0.0000
     27 C11        7.6396    2.2159   10.6165 C.ar      1 RES1    0.0000
     28 C12        7.9151    1.1110   11.3648 C.ar      1 RES1    0.0000
     29 H11        8.7300    0.6716   11.2788 H         1 RES1    0.0000
     30 C13        6.9691    0.6575   12.2472 C.ar      1 RES1    0.0000
     31 H12        7.1378   -0.1046   12.7534 H         1 RES1    0.0000
@<TRIPOS>BOND
     1    1    7 1
     2    2    4 2
     3    3    7 2
     4    5   21 2
     5    6    2 2
     6    7    8 1
     7    8    9 1
     8   10    8 2
     9   11   10 1
    10   12   10 1
    11   13   12 1
    12   14   12 1
    13   15    1 1
    14   16   15 1
    15   17   15 1
    16   18   17 1
    17   19   17 1
    18   20   17 1
    19   21    1 1
    20   22   21 1
    21   23   22 ar
    22   24   23 1
    23   25   23 ar
    24   26   25 1
    25   27    2 1
    26   28   27 ar
    27   29   28 1
    28   30   22 ar
    29   31   30 1
    30   12   15 1
    31   25   27 ar
    32   28   30 ar
@<TRIPOS>SUBSTRUCTURE
     1 RES1 1

@<TRIPOS>CRYSIN
   7.3677   10.0540   16.8340  90.0000  90.0000  90.0000  19 1

