# MOL2 file generated by ConQuest
# Please check atom types

@<TRIPOS>MOLECULE
SAQYAK
    35    38     1
SMALL
NO_CHARGES
****
Generated from CSD

@<TRIPOS>ATOM
      1 O1        21.1584   -1.4643    2.7184 O.2       1 RES1    0.0000
      2 O2        17.5150    1.3989    4.2322 O.2       1 RES1    0.0000
      3 O3        16.7041    2.7259    2.7542 O.2       1 RES1    0.0000
      4 O4        19.9082    4.6217   -0.5666 O.2       1 RES1    0.0000
      5 O5        22.5690   -0.6341    1.3476 O.2       1 RES1    0.0000
      6 C1        20.1780    2.5756    0.5701 C.ar      1 RES1    0.0000
      7 C2        18.7728    1.8238    2.3324 C.ar      1 RES1    0.0000
      8 O6        21.4970    3.2881   -1.2082 O.3       1 RES1    0.0000
      9 C3        19.5405    0.7125    2.5326 C.ar      1 RES1    0.0000
     10 C4        19.0450    2.7848    1.3583 C.ar      1 RES1    0.0000
     11 N1        17.5528    1.9807    3.1617 N.pl3     1 RES1    0.0000
     12 N2        21.5221   -0.6210    1.9642 N.pl3     1 RES1    0.0000
     13 C5        21.0093    1.4904    0.7560 C.ar      1 RES1    0.0000
     14 C6        20.5128    3.6215   -0.4629 C.2       1 RES1    0.0000
     15 C7        20.6408    0.5753    1.7497 C.ar      1 RES1    0.0000
     16 C8        21.8494    4.1314   -2.3985 C.3       1 RES1    0.0000
     17 C9        22.8519    5.1054   -1.9839 C.3       1 RES1    0.0000
     18 C10       23.3783    4.2687   -4.2001 C.3       1 RES1    0.0000
     19 C11       24.5180    3.4058   -2.1000 C.2       1 RES1    0.0000
     20 C12       23.8326    3.0397   -3.2707 C.3       1 RES1    0.0000
     21 C13       23.3802    5.4780   -3.4584 C.3       1 RES1    0.0000
     22 C14       22.4561    3.3273   -3.4423 C.3       1 RES1    0.0000
     23 C15       24.0187    4.5301   -1.3601 C.2       1 RES1    0.0000
     24 H1        19.2926    0.0307    3.2171 H         1 RES1    0.0000
     25 H2        18.4644    3.5770    1.2243 H         1 RES1    0.0000
     26 H3        21.8414    1.3721    0.2323 H         1 RES1    0.0000
     27 H4        21.0278    4.5857   -2.8060 H         1 RES1    0.0000
     28 H5        25.3587    2.8972   -1.7748 H         1 RES1    0.0000
     29 H6        21.7046    2.6612   -3.6532 H         1 RES1    0.0000
     30 H7        24.4297    4.8844   -0.5058 H         1 RES1    0.0000
     31 H8        23.5488    4.7354   -5.0991 H         1 RES1    0.0000
     32 H9        24.3736    2.1664   -3.3404 H         1 RES1    0.0000
     33 H10       22.4105    5.7114   -1.2529 H         1 RES1    0.0000
     34 H11       24.3285    5.8911   -3.3690 H         1 RES1    0.0000
     35 H12       22.8095    6.2213   -3.8676 H         1 RES1    0.0000
@<TRIPOS>BOND
     1    1   12 2
     2    2   11 2
     3    3   11 2
     4    4   14 2
     5    5   12 2
     6    6   10 ar
     7    7    9 ar
     8    8   14 1
     9    9   15 ar
    10   10    7 ar
    11   11    7 1
    12   12   15 1
    13   13    6 ar
    14   14    6 1
    15   15   13 ar
    16   16    8 1
    17   17   16 1
    18   18   20 1
    19   19   20 1
    20   20   22 1
    21   21   17 1
    22   22   16 1
    23   23   17 1
    24   24    9 1
    25   25   10 1
    26   26   13 1
    27   27   16 1
    28   28   19 1
    29   29   22 1
    30   30   23 1
    31   31   18 1
    32   32   20 1
    33   33   17 1
    34   34   21 1
    35   35   21 1
    36   18   21 1
    37   18   22 1
    38   19   23 2
@<TRIPOS>SUBSTRUCTURE
     1 RES1 1

@<TRIPOS>CRYSIN
  24.5810    6.5370   18.0550  90.0000  98.1500  90.0000  15 1

