# MOL2 file generated by ConQuest
# Please check atom types

@<TRIPOS>MOLECULE
SARBOX
    22    21     1
SMALL
NO_CHARGES
****
Generated from CSD

@<TRIPOS>ATOM
      1 O1         6.8242    0.9331    8.3764 O.3       1 RES1    0.0000
      2 O2         4.1275    2.4116    5.5837 O.3       1 RES1    0.0000
      3 O3         6.5201    2.7134    4.0960 O.3       1 RES1    0.0000
      4 O4         4.1510    0.4236    2.6410 O.3       1 RES1    0.0000
      5 O5         6.6077    0.8633    1.2067 O.3       1 RES1    0.0000
      6 N1         5.9354    1.5671    7.4679 N.2       1 RES1    0.0000
      7 C1         5.8393    0.8919    6.4043 C.2       1 RES1    0.0000
      8 C2         4.9359    1.2913    5.2751 C.3       1 RES1    0.0000
      9 C3         5.7720    1.5116    3.9977 C.3       1 RES1    0.0000
     10 C4         4.8902    1.6441    2.7600 C.3       1 RES1    0.0000
     11 C5         5.6863    1.9092    1.4963 C.3       1 RES1    0.0000
     12 H1         6.3746    0.0806    6.3267 H         1 RES1    0.0000
     13 H2         6.3746    0.7522    3.8615 H         1 RES1    0.0000
     14 H3         5.0611    2.0149    0.7758 H         1 RES1    0.0000
     15 H4         7.1420    1.5224    8.8264 H         1 RES1    0.0000
     16 H5         7.1797    2.6059    4.5683 H         1 RES1    0.0000
     17 H6         6.1628    0.2060    0.8792 H         1 RES1    0.0000
     18 H7         5.5554    0.5463    5.1200 H         1 RES1    0.0000
     19 H8         4.2466    2.3999    2.8962 H         1 RES1    0.0000
     20 H9         6.2334    2.7492    1.5860 H         1 RES1    0.0000
     21 H10        4.6233    3.0268    5.6372 H         1 RES1    0.0000
     22 H11        3.4839    0.6358    2.1894 H         1 RES1    0.0000
@<TRIPOS>BOND
     1    1    6 1
     2    2    8 1
     3    3    9 1
     4    4   10 1
     5    5   11 1
     6    6    7 2
     7    7    8 1
     8    8    9 1
     9    9   10 1
    10   10   11 1
    11   11   14 1
    12   12    7 1
    13   13    9 1
    14   15    1 1
    15   16    3 1
    16   17    5 1
    17   18    8 1
    18   19   10 1
    19   20   11 1
    20   21    2 1
    21   22    4 1
@<TRIPOS>SUBSTRUCTURE
     1 RES1 1

@<TRIPOS>CRYSIN
   4.7080    8.9550   17.2390  90.0000  90.0000  90.0000  19 1

