# MOL2 file generated by ConQuest
# Please check atom types

@<TRIPOS>MOLECULE
SARNEG
    65    69     1
SMALL
NO_CHARGES
****
Generated from CSD

@<TRIPOS>ATOM
      1 C1         2.8143    0.9657   10.7797 C.ar      1 RES1    0.0000
      2 C2         2.3784    2.1875   10.3559 C.ar      1 RES1    0.0000
      3 H1         2.0414    2.8074   10.9607 H         1 RES1    0.0000
      4 C3         3.2664    0.0229    9.9129 C.ar      1 RES1    0.0000
      5 H2         3.5334   -0.8119   10.2254 H         1 RES1    0.0000
      6 C4         2.4483    2.4865    9.0017 C.ar      1 RES1    0.0000
      7 H3         2.1736    3.3204    8.6947 H         1 RES1    0.0000
      8 C5         3.3253    0.3114    8.5774 C.ar      1 RES1    0.0000
      9 H4         3.6366   -0.3276    7.9774 H         1 RES1    0.0000
     10 C6         2.9218    1.5503    8.1167 C.ar      1 RES1    0.0000
     11 C7         3.0523    1.9439    6.6842 C.2       1 RES1    0.0000
     12 C8         3.8891    1.2494    4.5535 C.3       1 RES1    0.0000
     13 H5         4.8378    1.4472    4.5169 H         1 RES1    0.0000
     14 H6         3.4072    2.0346    4.2498 H         1 RES1    0.0000
     15 C9         3.5812    0.0841    3.6397 C.3       1 RES1    0.0000
     16 H7         3.7637   -0.7451    4.1298 H         1 RES1    0.0000
     17 C10        4.5068    0.1347    2.4226 C.3       1 RES1    0.0000
     18 H8         4.4104    0.9820    1.9808 H         1 RES1    0.0000
     19 H9         4.2747   -0.5712    1.8158 H         1 RES1    0.0000
     20 H10        5.4170    0.0239    2.7072 H         1 RES1    0.0000
     21 C11        2.1386    0.0334    3.1309 C.3       1 RES1    0.0000
     22 H11        2.0550   -0.7317    2.5241 H         1 RES1    0.0000
     23 C12        1.1858   -1.1635    5.1580 C.ar      1 RES1    0.0000
     24 C13        0.8403   -0.9094    6.4774 C.ar      1 RES1    0.0000
     25 H12        0.5144   -0.0745    6.7259 H         1 RES1    0.0000
     26 C14        1.6439   -2.4263    4.7933 C.ar      1 RES1    0.0000
     27 H13        1.8495   -2.6049    3.9047 H         1 RES1    0.0000
     28 C15        0.9861   -1.9152    7.4252 C.ar      1 RES1    0.0000
     29 H14        0.7592   -1.7576    8.3135 H         1 RES1    0.0000
     30 C16        1.7923   -3.4025    5.7363 C.ar      1 RES1    0.0000
     31 H15        2.1139   -4.2384    5.4863 H         1 RES1    0.0000
     32 C17        1.4750   -3.1628    7.0392 C.ar      1 RES1    0.0000
     33 H16        1.5842   -3.8343    7.6743 H         1 RES1    0.0000
     34 C18        0.0768    0.7747    4.0547 C.2       1 RES1    0.0000
     35 C19        0.4462    1.7557    2.9527 C.3       1 RES1    0.0000
     36 C20       -0.5485    1.7567    1.7726 C.3       1 RES1    0.0000
     37 H17       -1.0578    0.9313    1.7437 H         1 RES1    0.0000
     38 H18       -1.1627    2.5056    1.8338 H         1 RES1    0.0000
     39 C21        0.3694    1.8885    0.5462 C.3       1 RES1    0.0000
     40 H19       -0.0580    1.5408   -0.2521 H         1 RES1    0.0000
     41 H20        0.6244    2.8122    0.3962 H         1 RES1    0.0000
     42 C22        1.5611    1.0479    0.9388 C.3       1 RES1    0.0000
     43 H21        1.4007    0.1127    0.7383 H         1 RES1    0.0000
     44 H22        2.3553    1.3373    0.4622 H         1 RES1    0.0000
     45 C23        0.5664    3.1580    3.6105 C.3       1 RES1    0.0000
     46 H23       -0.2892    3.3892    4.0037 H         1 RES1    0.0000
     47 H24        1.2165    3.1083    4.3278 H         1 RES1    0.0000
     48 C24        0.9751    4.2603    2.6696 C.ar      1 RES1    0.0000
     49 C25        2.2803    4.4275    2.2474 C.ar      1 RES1    0.0000
     50 H25        2.9499    3.8696    2.5721 H         1 RES1    0.0000
     51 C26        2.5848    5.4162    1.3482 C.ar      1 RES1    0.0000
     52 H26        3.4575    5.5308    1.0474 H         1 RES1    0.0000
     53 C27        1.5722    6.2386    0.8974 C.ar      1 RES1    0.0000
     54 H27        1.7394    6.9111    0.2761 H         1 RES1    0.0000
     55 C28        0.3267    6.0342    1.3881 C.ar      1 RES1    0.0000
     56 H28       -0.3455    6.6083    1.0985 H         1 RES1    0.0000
     57 N1         2.8544    0.6820   12.2116 N.pl3     1 RES1    0.0000
     58 N2         1.1235   -0.1060    4.1946 N.am      1 RES1    0.0000
     59 N3         1.7232    1.2523    2.3998 N.3       1 RES1    0.0000
     60 N4        -0.0145    5.0761    2.2531 N.ar      1 RES1    0.0000
     61 O1         2.7486    1.6201   13.0003 O.2       1 RES1    0.0000
     62 O2         3.0540   -0.4776   12.5682 O.2       1 RES1    0.0000
     63 O3         2.7895    3.0405    6.2595 O.2       1 RES1    0.0000
     64 O4         3.5078    0.9466    5.9221 O.3       1 RES1    0.0000
     65 O5        -0.9563    0.7651    4.7036 O.2       1 RES1    0.0000
@<TRIPOS>BOND
     1    1    2 ar
     2    2    3 1
     3    4    1 ar
     4    5    4 1
     5    6    2 ar
     6    7    6 1
     7    8    4 ar
     8    9    8 1
     9   10    6 ar
    10   11   10 1
    11   12   13 1
    12   14   12 1
    13   15   12 1
    14   16   15 1
    15   17   15 1
    16   18   17 1
    17   19   17 1
    18   20   17 1
    19   21   15 1
    20   22   21 1
    21   23   24 ar
    22   24   25 1
    23   26   23 ar
    24   27   26 1
    25   28   24 ar
    26   29   28 1
    27   30   26 ar
    28   31   30 1
    29   32   28 ar
    30   33   32 1
    31   34   35 1
    32   35   36 1
    33   36   37 1
    34   38   36 1
    35   39   36 1
    36   40   39 1
    37   41   39 1
    38   42   39 1
    39   43   42 1
    40   44   42 1
    41   45   35 1
    42   46   45 1
    43   47   45 1
    44   48   45 1
    45   49   48 ar
    46   50   49 1
    47   51   49 ar
    48   52   51 1
    49   53   51 ar
    50   54   53 1
    51   55   53 ar
    52   56   55 1
    53   57    1 1
    54   58   21 1
    55   59   21 1
    56   60   48 ar
    57   61   57 2
    58   62   57 2
    59   63   11 2
    60   64   11 1
    61   65   34 2
    62    8   10 ar
    63   12   64 1
    64   23   58 1
    65   30   32 ar
    66   34   58 1
    67   35   59 1
    68   42   59 1
    69   55   60 ar
@<TRIPOS>SUBSTRUCTURE
     1 RES1 1

@<TRIPOS>CRYSIN
   8.5307    9.5523   30.0128  90.0000  90.0000  90.0000  19 1

