# MOL2 file generated by ConQuest
# Please check atom types

@<TRIPOS>MOLECULE
SARXUE
    34    35     1
SMALL
NO_CHARGES
****
Generated from CSD

@<TRIPOS>ATOM
      1 C1         6.4213    4.6951    3.8678 C.3       1 RES1    0.0000
      2 C2         7.8495    5.0313    3.7342 C.1       1 RES1    0.0000
      3 C3         5.8318    4.6010    2.4308 C.2       1 RES1    0.0000
      4 C4         5.8121    5.6774    0.3003 C.3       1 RES1    0.0000
      5 C5         6.6810    4.8979   -0.5887 C.3       1 RES1    0.0000
      6 C6         5.6756    5.7996    4.6341 C.ar      1 RES1    0.0000
      7 C7         4.2972    5.9114    4.5123 C.ar      1 RES1    0.0000
      8 C8         3.6161    6.8656    5.2422 C.ar      1 RES1    0.0000
      9 C9         4.3294    7.7039    6.0719 C.ar      1 RES1    0.0000
     10 C10        5.6809    7.6501    6.1717 C.ar      1 RES1    0.0000
     11 C11        6.3654    6.6981    5.4486 C.ar      1 RES1    0.0000
     12 N1         8.9315    5.3239    3.5921 N.1       1 RES1    0.0000
     13 N2         3.5862    8.6746    6.9067 N.pl3     1 RES1    0.0000
     14 O1         6.2964    5.5844    1.6882 O.3       1 RES1    0.0000
     15 O2         5.0276    3.8008    2.0984 O.2       1 RES1    0.0000
     16 O3         2.3851    8.7427    6.7595 O.2       1 RES1    0.0000
     17 O4         4.2401    9.3578    7.6950 O.2       1 RES1    0.0000
     18 C1A        6.2766    3.2580    4.5901 C.3       1 RES1    0.0000
     19 C2A        4.8484    2.9218    4.7237 C.1       1 RES1    0.0000
     20 C3A        6.8661    3.3521    6.0271 C.2       1 RES1    0.0000
     21 C6A        7.0223    2.1535    3.8238 C.ar      1 RES1    0.0000
     22 N1A        3.7664    2.6292    4.8658 N.1       1 RES1    0.0000
     23 O1A        6.4016    2.3687    6.7697 O.3       1 RES1    0.0000
     24 O2A        7.6703    4.1523    6.3595 O.2       1 RES1    0.0000
     25 C7A        8.4007    2.0417    3.9456 C.ar      1 RES1    0.0000
     26 C11A       6.3325    1.2550    3.0093 C.ar      1 RES1    0.0000
     27 C4A        6.8858    2.2757    8.1576 C.3       1 RES1    0.0000
     28 C8A        9.0818    1.0875    3.2157 C.ar      1 RES1    0.0000
     29 C10A       7.0170    0.3030    2.2862 C.ar      1 RES1    0.0000
     30 C5A        6.0169    3.0552    9.0466 C.3       1 RES1    0.0000
     31 C9A        8.3685    0.2492    2.3860 C.ar      1 RES1    0.0000
     32 N2A        9.1117   -0.7215    1.5512 N.pl3     1 RES1    0.0000
     33 O3A       10.3128   -0.7896    1.6983 O.2       1 RES1    0.0000
     34 O4A        8.4578   -1.4047    0.7629 O.2       1 RES1    0.0000
@<TRIPOS>BOND
     1    1    2 1
     2    2   12 3
     3    3    1 1
     4    4    5 1
     5    6    1 1
     6    7    6 ar
     7    8    7 ar
     8    9    8 ar
     9   10    9 ar
    10   11    6 ar
    11   13    9 1
    12   14    3 1
    13   15    3 2
    14   16   13 2
    15   17   13 2
    16   18    1 1
    17   19   18 1
    18   20   18 1
    19   21   18 1
    20   22   19 3
    21   23   20 1
    22   24   20 2
    23   25   21 ar
    24   26   21 ar
    25   27   23 1
    26   28   25 ar
    27   29   26 ar
    28   30   27 1
    29   31   28 ar
    30   32   31 1
    31   33   32 2
    32   34   32 2
    33    4   14 1
    34   10   11 ar
    35   29   31 ar
@<TRIPOS>SUBSTRUCTURE
     1 RES1 1

@<TRIPOS>CRYSIN
   7.8600    8.3500    9.3030  89.2900  65.4900  83.2700   2 1

