# MOL2 file generated by ConQuest
# Please check atom types

@<TRIPOS>MOLECULE
SASCEW
    58    61     1
SMALL
NO_CHARGES
****
Generated from CSD

@<TRIPOS>ATOM
      1 O1         3.8467    3.2949    5.4336 O.3       1 RES1    0.0000
      2 H1         3.6308    3.5606    6.2006 H         1 RES1    0.0000
      3 O2         5.7799   -0.8216    3.2780 O.2       1 RES1    0.0000
      4 O3         5.6621    1.4834    8.1096 O.2       1 RES1    0.0000
      5 O4         6.4007    3.2415    7.0885 O.2       1 RES1    0.0000
      6 O5         8.0463    0.1558   -0.0965 O.2       1 RES1    0.0000
      7 O6         7.7286   -1.3493    1.5713 O.3       1 RES1    0.0000
      8 N1         5.8914    2.1260    7.0957 N.pl3     1 RES1    0.0000
      9 N2         6.6043    0.5967    1.6236 N.am      1 RES1    0.0000
     10 C1         6.2619    2.0310    4.6061 C.3       1 RES1    0.0000
     11 H2         6.2365    3.0299    4.6488 H         1 RES1    0.0000
     12 C2         5.4658    1.5077    5.7956 C.3       1 RES1    0.0000
     13 H3         5.5574    0.5135    5.8497 H         1 RES1    0.0000
     14 C3         3.9915    1.8803    5.4454 C.3       1 RES1    0.0000
     15 C4         3.9356    1.4067    3.9825 C.3       1 RES1    0.0000
     16 H4         3.2752    1.9424    3.4757 H         1 RES1    0.0000
     17 H5         3.6656    0.4551    3.9414 H         1 RES1    0.0000
     18 C5         5.3483    1.5872    3.3754 C.3       1 RES1    0.0000
     19 C6         5.9165    0.2845    2.8020 C.2       1 RES1    0.0000
     20 C7         6.2948    1.9471    1.2382 C.ar      1 RES1    0.0000
     21 C8         5.5192    2.5339    2.2318 C.ar      1 RES1    0.0000
     22 C9         5.0446    3.8296    2.0874 C.ar      1 RES1    0.0000
     23 H6         4.5055    4.2272    2.7616 H         1 RES1    0.0000
     24 C10        5.3763    4.5346    0.9322 C.ar      1 RES1    0.0000
     25 H7         5.0757    5.4285    0.8199 H         1 RES1    0.0000
     26 C11        6.1461    3.9342   -0.0564 C.ar      1 RES1    0.0000
     27 H8         6.3582    4.4286   -0.8400 H         1 RES1    0.0000
     28 C12        6.6179    2.6227    0.0683 C.ar      1 RES1    0.0000
     29 H9         7.1347    2.2133   -0.6149 H         1 RES1    0.0000
     30 C13        7.7126    1.6257    4.4714 C.ar      1 RES1    0.0000
     31 C14        8.5652    2.4781    3.7679 C.ar      1 RES1    0.0000
     32 H10        8.2550    3.3320    3.4902 H         1 RES1    0.0000
     33 C15        9.8695    2.0858    3.4694 C.ar      1 RES1    0.0000
     34 H11       10.4416    2.6664    2.9822 H         1 RES1    0.0000
     35 C16       10.3293    0.8438    3.8861 C.ar      1 RES1    0.0000
     36 H12       11.2111    0.5669    3.6651 H         1 RES1    0.0000
     37 C17        9.5081    0.0065    4.6225 C.ar      1 RES1    0.0000
     38 H13        9.8328   -0.8327    4.9262 H         1 RES1    0.0000
     39 C18        8.2009    0.3990    4.9174 C.ar      1 RES1    0.0000
     40 H14        7.6400   -0.1752    5.4264 H         1 RES1    0.0000
     41 C19        2.9560    1.2334    6.3525 C.3       1 RES1    0.0000
     42 H15        3.0962    1.5336    7.2745 H         1 RES1    0.0000
     43 H16        3.0468    0.2588    6.3087 H         1 RES1    0.0000
     44 H17        2.0575    1.4913    6.0580 H         1 RES1    0.0000
     45 C20        7.5342   -0.2145    0.9237 C.2       1 RES1    0.0000
     46 C21        8.6309   -2.3868    0.9929 C.3       1 RES1    0.0000
     47 C22        8.0421   -2.8602   -0.3301 C.3       1 RES1    0.0000
     48 H18        7.1063   -3.1175   -0.1972 H         1 RES1    0.0000
     49 H19        8.5498   -3.6321   -0.6562 H         1 RES1    0.0000
     50 H20        8.0917   -2.1357   -0.9881 H         1 RES1    0.0000
     51 C23       10.0457   -1.8497    0.8533 C.3       1 RES1    0.0000
     52 H21       10.0658   -1.1600    0.1582 H         1 RES1    0.0000
     53 H22       10.6500   -2.5808    0.6060 H         1 RES1    0.0000
     54 H23       10.3340   -1.4621    1.7067 H         1 RES1    0.0000
     55 C24        8.5662   -3.4825    2.0453 C.3       1 RES1    0.0000
     56 H24        8.8455   -3.1195    2.9120 H         1 RES1    0.0000
     57 H25        9.1650   -4.2161    1.7902 H         1 RES1    0.0000
     58 H26        7.6484   -3.8184    2.1122 H         1 RES1    0.0000
@<TRIPOS>BOND
     1    1    2 1
     2    3   19 2
     3    4    8 2
     4    5    8 2
     5    6   45 2
     6    7   45 1
     7    8   12 1
     8    9   19 1
     9   10   11 1
    10   12   10 1
    11   13   12 1
    12   14    1 1
    13   15   14 1
    14   16   15 1
    15   17   15 1
    16   18   10 1
    17   19   18 1
    18   20    9 1
    19   21   18 1
    20   22   21 ar
    21   23   22 1
    22   24   22 ar
    23   25   24 1
    24   26   24 ar
    25   27   26 1
    26   28   20 ar
    27   29   28 1
    28   30   10 1
    29   31   30 ar
    30   32   31 1
    31   33   31 ar
    32   34   33 1
    33   35   33 ar
    34   36   35 1
    35   37   35 ar
    36   38   37 1
    37   39   30 ar
    38   40   39 1
    39   41   14 1
    40   42   41 1
    41   43   41 1
    42   44   41 1
    43   45    9 1
    44   46    7 1
    45   47   46 1
    46   48   47 1
    47   49   47 1
    48   50   47 1
    49   51   46 1
    50   52   51 1
    51   53   51 1
    52   54   51 1
    53   55   46 1
    54   56   55 1
    55   57   55 1
    56   58   55 1
    57   12   14 1
    58   15   18 1
    59   20   21 ar
    60   26   28 ar
    61   37   39 ar
@<TRIPOS>SUBSTRUCTURE
     1 RES1 1

@<TRIPOS>CRYSIN
  10.0860   10.0695   11.2217  90.0000  96.9110  90.0000   4 1

