# MOL2 file generated by ConQuest
# Please check atom types

@<TRIPOS>MOLECULE
SASMEH
    76    78     2
SMALL
NO_CHARGES
****
Generated from CSD

@<TRIPOS>ATOM
      1 C1         4.5454    3.9147   14.3003 C.ar      1 RES1    0.0000
      2 C2         3.2173    4.2765   14.3735 C.ar      1 RES1    0.0000
      3 H1         2.9697    5.1382   14.6199 H         1 RES1    0.0000
      4 C3         2.2687    3.3271   14.0721 C.ar      1 RES1    0.0000
      5 H2         1.3656    3.5423   14.1207 H         1 RES1    0.0000
      6 C4         2.6537    2.0530   13.6971 C.ar      1 RES1    0.0000
      7 C5         4.0119    1.7035   13.6364 C.ar      1 RES1    0.0000
      8 C6         4.9664    2.6473   13.9542 C.ar      1 RES1    0.0000
      9 H3         5.8717    2.4352   13.9351 H         1 RES1    0.0000
     10 C7        -0.3880    0.3169   13.0638 C.2       1 RES1    0.0000
     11 C8        -1.7880    0.6691   13.1319 C.2       1 RES1    0.0000
     12 C9        -2.6814   -0.2995   12.8062 C.2       1 RES1    0.0000
     13 C10       -2.3160   -1.6548   12.3933 C.2       1 RES1    0.0000
     14 C11        0.0289   -1.0378   12.6855 C.2       1 RES1    0.0000
     15 C12       -2.1984    2.0389   13.5489 C.3       1 RES1    0.0000
     16 H4        -3.1560    2.1002   13.5492 H         1 RES1    0.0000
     17 H5        -1.8375    2.6822   12.9351 H         1 RES1    0.0000
     18 H6        -1.8658    2.2176   14.4314 H         1 RES1    0.0000
     19 C13       -4.0918   -0.0556   12.8915 C.1       1 RES1    0.0000
     20 C14       -0.5470   -3.3641   12.1052 C.3       1 RES1    0.0000
     21 H7        -1.2190   -3.9706   12.4506 H         1 RES1    0.0000
     22 H8         0.2895   -3.5561   12.5581 H         1 RES1    0.0000
     23 C15       -0.3777   -3.6010   10.6435 C.3       1 RES1    0.0000
     24 H9        -1.2159   -3.4629   10.1973 H         1 RES1    0.0000
     25 H10       -0.0826   -4.5026   10.4977 H         1 RES1    0.0000
     26 H11        0.2752   -2.9896   10.2945 H         1 RES1    0.0000
     27 N1         5.5687    4.9140   14.6090 N.pl3     1 RES1    0.0000
     28 N2         1.7537    1.0413   13.3654 N.pl3     1 RES1    0.0000
     29 H12        2.0448    0.2608   13.1501 H         1 RES1    0.0000
     30 N3         0.4627    1.2755   13.3819 N.2       1 RES1    0.0000
     31 N4        -0.9518   -1.9651   12.4002 N.am      1 RES1    0.0000
     32 N5        -5.2066    0.1416   12.9933 N.1       1 RES1    0.0000
     33 O1         6.7231    4.5408   14.7570 O.2       1 RES1    0.0000
     34 O2         5.2256    6.0886   14.6850 O.2       1 RES1    0.0000
     35 O3         4.2850    0.4354   13.2573 O.3       1 RES1    0.0000
     36 H13        5.0971    0.3316   13.2179 H         1 RES1    0.0000
     37 O4         1.2167   -1.3572   12.6335 O.2       1 RES1    0.0000
     38 O5        -3.1416   -2.4843   12.0812 O.2       1 RES1    0.0000
     39 C16       -4.0829   -1.7130    8.1814 C.ar      2 RES2    0.0000
     40 C17       -2.7642   -2.0753    8.0248 C.ar      2 RES2    0.0000
     41 H14       -2.5367   -2.8791    7.6170 H         2 RES2    0.0000
     42 C18       -1.7896   -1.2162    8.4886 C.ar      2 RES2    0.0000
     43 H15       -0.8909   -1.4283    8.3755 H         2 RES2    0.0000
     44 C19       -2.1463   -0.0437    9.1197 C.ar      2 RES2    0.0000
     45 C20       -3.4923    0.3140    9.2587 C.ar      2 RES2    0.0000
     46 C21       -4.4661   -0.5326    8.7712 C.ar      2 RES2    0.0000
     47 H16       -5.3661   -0.3092    8.8409 H         2 RES2    0.0000
     48 C22        0.9226    1.5130   10.0141 C.2       2 RES2    0.0000
     49 C23        2.3156    1.1390    9.9742 C.2       2 RES2    0.0000
     50 C24        3.2244    2.1017   10.2861 C.2       2 RES2    0.0000
     51 C25        2.8807    3.4698   10.6823 C.2       2 RES2    0.0000
     52 C26        0.5266    2.8556   10.4420 C.2       2 RES2    0.0000
     53 C27        2.7128   -0.2423    9.5945 C.3       2 RES2    0.0000
     54 H17        3.6650   -0.2798    9.4742 H         2 RES2    0.0000
     55 H18        2.2778   -0.4870    8.7746 H         2 RES2    0.0000
     56 H19        2.4545   -0.8515   10.2886 H         2 RES2    0.0000
     57 C28        4.6341    1.8525   10.2401 C.1       2 RES2    0.0000
     58 C29        1.1339    5.1168   11.2263 C.3       2 RES2    0.0000
     59 H20        0.2319    5.0898   11.5802 H         2 RES2    0.0000
     60 H21        1.7292    5.3886   11.9425 H         2 RES2    0.0000
     61 C30        1.2004    6.0957   10.1501 C.3       2 RES2    0.0000
     62 H22        2.0924    6.1261    9.8011 H         2 RES2    0.0000
     63 H23        0.9580    6.9603   10.4904 H         2 RES2    0.0000
     64 H24        0.5916    5.8446    9.4521 H         2 RES2    0.0000
     65 N6        -5.1390   -2.6124    7.6952 N.pl3     2 RES2    0.0000
     66 N7        -1.2194    0.8596    9.6407 N.pl3     2 RES2    0.0000
     67 H25       -1.4922    1.6045    9.9734 H         2 RES2    0.0000
     68 N8         0.0603    0.5855    9.6286 N.2       2 RES2    0.0000
     69 N9         1.5184    3.7572   10.7566 N.am      2 RES2    0.0000
     70 N10        5.7530    1.6824   10.2011 N.1       2 RES2    0.0000
     71 O6        -6.2966   -2.2263    7.7267 O.2       2 RES2    0.0000
     72 O7        -4.8048   -3.7123    7.2767 O.2       2 RES2    0.0000
     73 O8        -3.7416    1.4902    9.8765 O.3       2 RES2    0.0000
     74 H26       -4.5488    1.5682   10.0014 H         2 RES2    0.0000
     75 O9        -0.6575    3.1850   10.5367 O.2       2 RES2    0.0000
     76 O10        3.7169    4.3005   10.9556 O.2       2 RES2    0.0000
@<TRIPOS>BOND
     1    1    2 ar
     2    2    3 1
     3    4    2 ar
     4    5    4 1
     5    6    4 ar
     6    7    6 ar
     7    8    1 ar
     8    9    8 1
     9   10   11 1
    10   11   12 2
    11   12   13 1
    12   13   31 1
    13   14   10 1
    14   15   11 1
    15   16   15 1
    16   17   15 1
    17   18   15 1
    18   19   12 1
    19   20   21 1
    20   22   20 1
    21   23   20 1
    22   24   23 1
    23   25   23 1
    24   26   23 1
    25   27    1 1
    26   28    6 1
    27   29   28 1
    28   30   10 2
    29   31   14 1
    30   32   19 3
    31   33   27 2
    32   34   27 2
    33   35    7 1
    34   36   35 1
    35   37   14 2
    36   38   13 2
    37   39   40 ar
    38   40   41 1
    39   42   40 ar
    40   43   42 1
    41   44   42 ar
    42   45   44 ar
    43   46   39 ar
    44   47   46 1
    45   48   49 1
    46   49   50 2
    47   50   51 1
    48   51   69 1
    49   52   48 1
    50   53   49 1
    51   54   53 1
    52   55   53 1
    53   56   53 1
    54   57   50 1
    55   58   59 1
    56   60   58 1
    57   61   58 1
    58   62   61 1
    59   63   61 1
    60   64   61 1
    61   65   39 1
    62   66   44 1
    63   67   66 1
    64   68   48 2
    65   69   52 1
    66   70   57 3
    67   71   65 2
    68   72   65 2
    69   73   45 1
    70   74   73 1
    71   75   52 2
    72   76   51 2
    73    7    8 ar
    74   20   31 1
    75   28   30 1
    76   45   46 ar
    77   58   69 1
    78   66   68 1
@<TRIPOS>SUBSTRUCTURE
     1 RES1 1
     2 RES2 39

@<TRIPOS>CRYSIN
  12.2577   17.2712   18.9856  90.0000 129.1300  90.0000  14 1

