# MOL2 file generated by ConQuest
# Please check atom types

@<TRIPOS>MOLECULE
SASWAN01
    45    47     1
SMALL
NO_CHARGES
****
Generated from CSD

@<TRIPOS>ATOM
      1 C1        -0.3627    1.6031   11.5320 C.ar      1 RES1    0.0000
      2 C2        -1.1591    1.1087   12.5827 C.ar      1 RES1    0.0000
      3 H1        -0.8365    0.4366   13.1721 H         1 RES1    0.0000
      4 C3        -2.4225    1.6342   12.7249 C.ar      1 RES1    0.0000
      5 H2        -2.9759    1.3094   13.4264 H         1 RES1    0.0000
      6 C4        -2.9247    2.6297   11.8755 C.ar      1 RES1    0.0000
      7 H3        -3.8014    2.9725   12.0061 H         1 RES1    0.0000
      8 C5        -2.1387    3.1055   10.8530 C.ar      1 RES1    0.0000
      9 H4        -2.4823    3.7696   10.2669 H         1 RES1    0.0000
     10 C6        -0.8488    2.6274   10.6679 C.ar      1 RES1    0.0000
     11 C7         0.2350    2.9358    9.7675 C.ar      1 RES1    0.0000
     12 C8         0.3687    3.8764    8.7557 C.ar      1 RES1    0.0000
     13 H5        -0.3628    4.4388    8.5290 H         1 RES1    0.0000
     14 C9         1.5193    3.9891    8.1062 C.ar      1 RES1    0.0000
     15 C10        2.6044    3.1162    8.3773 C.ar      1 RES1    0.0000
     16 H6         3.4020    3.1960    7.8663 H         1 RES1    0.0000
     17 C11        2.5268    2.1139    9.4065 C.ar      1 RES1    0.0000
     18 H7         3.2487    1.5281    9.6003 H         1 RES1    0.0000
     19 C12        1.3115    2.0629   10.1016 C.ar      1 RES1    0.0000
     20 C13        1.7422    0.2571   11.8393 C.3       1 RES1    0.0000
     21 H8         1.5723    0.3032   12.8139 H         1 RES1    0.0000
     22 H9         2.7017    0.4500   11.6908 H         1 RES1    0.0000
     23 C14        1.4414   -1.1427   11.3535 C.3       1 RES1    0.0000
     24 H10        2.0042   -1.7842   11.8363 H         1 RES1    0.0000
     25 H11        0.4973   -1.3497   11.5174 H         1 RES1    0.0000
     26 H12        1.6273   -1.2028   10.3938 H         1 RES1    0.0000
     27 C15        2.5350    5.3640    6.3672 C.2       1 RES1    0.0000
     28 H13        3.2463    4.7345    6.3815 H         1 RES1    0.0000
     29 C16        2.7234    6.4345    5.5272 C.2       1 RES1    0.0000
     30 C17        4.0071    6.4431    4.8012 C.2       1 RES1    0.0000
     31 C18        5.3117    7.3359    3.0675 C.3       1 RES1    0.0000
     32 H14        5.4471    6.4489    2.6496 H         1 RES1    0.0000
     33 H15        6.0885    7.5325    3.6487 H         1 RES1    0.0000
     34 C19        5.1734    8.3864    2.0168 C.3       1 RES1    0.0000
     35 H16        5.9856    8.4105    1.4695 H         1 RES1    0.0000
     36 H17        4.4021    8.1803    1.4482 H         1 RES1    0.0000
     37 H18        5.0406    9.2592    2.4429 H         1 RES1    0.0000
     38 N1         0.9386    1.2851   11.1657 N.3       1 RES1    0.0000
     39 N2         1.5881    5.0946    7.1052 N.pl3     1 RES1    0.0000
     40 H19        0.8769    5.6074    7.0345 H         1 RES1    0.0000
     41 N3         1.8010    7.5240    5.4520 N.pl3     1 RES1    0.0000
     42 O1         0.6280    7.2897    5.7848 O.2       1 RES1    0.0000
     43 O2         2.1809    8.6473    5.0937 O.2       1 RES1    0.0000
     44 O3         4.0838    7.3455    3.8458 O.3       1 RES1    0.0000
     45 O4         4.8876    5.6401    5.0521 O.2       1 RES1    0.0000
@<TRIPOS>BOND
     1    1    2 ar
     2    2    3 1
     3    4    2 ar
     4    5    4 1
     5    6    4 ar
     6    7    6 1
     7    8    6 ar
     8    9    8 1
     9   10    1 ar
    10   11   10 1
    11   12   11 ar
    12   13   12 1
    13   14   12 ar
    14   15   14 ar
    15   16   15 1
    16   17   15 ar
    17   18   17 1
    18   19   11 ar
    19   20   21 1
    20   22   20 1
    21   23   20 1
    22   24   23 1
    23   25   23 1
    24   26   23 1
    25   27   28 1
    26   29   27 2
    27   30   29 1
    28   31   32 1
    29   33   31 1
    30   34   31 1
    31   35   34 1
    32   36   34 1
    33   37   34 1
    34   38    1 1
    35   39   14 1
    36   40   39 1
    37   41   29 1
    38   42   41 2
    39   43   41 2
    40   44   30 1
    41   45   30 2
    42    8   10 ar
    43   17   19 ar
    44   19   38 1
    45   20   38 1
    46   27   39 1
    47   31   44 1
@<TRIPOS>SUBSTRUCTURE
     1 RES1 1

@<TRIPOS>CRYSIN
   8.1230    8.2709   13.8340  91.5170 102.5860 110.1100   2 1

