# MOL2 file generated by ConQuest
# Please check atom types

@<TRIPOS>MOLECULE
SATBUL
    21    21     1
SMALL
NO_CHARGES
****
Generated from CSD

@<TRIPOS>ATOM
      1 C1         1.5650    8.7561    2.9495 C.ar      1 RES1    0.0000
      2 C2         1.7268    7.3556    2.9478 C.ar      1 RES1    0.0000
      3 C3         1.8104    6.6515    4.1352 C.ar      1 RES1    0.0000
      4 C4         1.7413    7.3308    5.3397 C.ar      1 RES1    0.0000
      5 C5         1.5542    8.7061    5.3548 C.ar      1 RES1    0.0000
      6 C6         1.4601    9.4072    4.1608 C.ar      1 RES1    0.0000
      7 C7         0.1490    9.7547    1.1159 C.3       1 RES1    0.0000
      8 N1         1.4288    9.5440    1.7653 N.pl3     1 RES1    0.0000
      9 N2         2.5577    9.8886    1.1130 N.pl3     1 RES1    0.0000
     10 N3         1.8075    6.5870    1.6955 N.pl3     1 RES1    0.0000
     11 O1         3.6300    9.6839    1.6883 O.2       1 RES1    0.0000
     12 O2         2.4386   10.4093    0.0029 O.2       1 RES1    0.0000
     13 O3         1.7229    5.3740    1.7610 O.2       1 RES1    0.0000
     14 O4         1.9549    7.1820    0.6431 O.2       1 RES1    0.0000
     15 H1         1.9504    5.6792    4.0846 H         1 RES1    0.0000
     16 H2         1.8296    6.8885    6.1355 H         1 RES1    0.0000
     17 H3         1.4767    9.1740    6.1760 H         1 RES1    0.0000
     18 H4         1.3077   10.3558    4.1788 H         1 RES1    0.0000
     19 H5        -0.5541    9.7779    1.8017 H         1 RES1    0.0000
     20 H6         0.0141    9.0353    0.4951 H         1 RES1    0.0000
     21 H7         0.1808   10.6231    0.6655 H         1 RES1    0.0000
@<TRIPOS>BOND
     1    1    2 ar
     2    2    3 ar
     3    3    4 ar
     4    4    5 ar
     5    5    6 ar
     6    6    1 ar
     7    7    8 1
     8    8    1 1
     9    9    8 1
    10   10    2 1
    11   11    9 2
    12   12    9 2
    13   13   10 2
    14   14   10 2
    15   15    3 1
    16   16    4 1
    17   17    5 1
    18   18    6 1
    19   19    7 1
    20   20    7 1
    21   21    7 1
@<TRIPOS>SUBSTRUCTURE
     1 RES1 1

@<TRIPOS>CRYSIN
   7.0470   14.4473    8.1165  90.0000  90.8140  90.0000 231 1

