# MOL2 file generated by ConQuest
# Please check atom types

@<TRIPOS>MOLECULE
SATCAS
    21    21     1
SMALL
NO_CHARGES
****
Generated from CSD

@<TRIPOS>ATOM
      1 C1         6.1424    7.3703    1.4102 C.ar      1 RES1    0.0000
      2 C2         5.2855    7.3154    2.5121 C.ar      1 RES1    0.0000
      3 C3         5.2795    6.1428    3.2645 C.ar      1 RES1    0.0000
      4 C4         6.1098    5.0622    3.0006 C.ar      1 RES1    0.0000
      5 C5         6.9907    5.1643    1.9190 C.ar      1 RES1    0.0000
      6 C6         6.9935    6.3012    1.1115 C.ar      1 RES1    0.0000
      7 C7         4.8071    9.0521    0.0338 C.3       1 RES1    0.0000
      8 N1         6.0696    8.5192    0.5546 N.pl3     1 RES1    0.0000
      9 N2         7.2083    9.1550    0.1888 N.pl3     1 RES1    0.0000
     10 N3         4.3261    6.0617    4.3914 N.pl3     1 RES1    0.0000
     11 O1         8.2724    8.8068    0.6978 O.2       1 RES1    0.0000
     12 O2         7.0960   10.0856   -0.6217 O.2       1 RES1    0.0000
     13 O3         3.8924    7.1159    4.8696 O.2       1 RES1    0.0000
     14 O4         3.9893    4.9430    4.7923 O.2       1 RES1    0.0000
     15 H1         4.6962    8.0459    2.7428 H         1 RES1    0.0000
     16 H2         6.1033    4.2632    3.5571 H         1 RES1    0.0000
     17 H3         7.5675    4.4393    1.7109 H         1 RES1    0.0000
     18 H4         7.5810    6.3040    0.3522 H         1 RES1    0.0000
     19 H5         4.8047    9.0138   -0.9509 H         1 RES1    0.0000
     20 H6         4.6903    9.9693    0.3170 H         1 RES1    0.0000
     21 H7         4.1247    8.4841    0.3522 H         1 RES1    0.0000
@<TRIPOS>BOND
     1    1    2 ar
     2    2    3 ar
     3    3    4 ar
     4    4    5 ar
     5    5    6 ar
     6    6    1 ar
     7    7    8 1
     8    8    1 1
     9    9    8 1
    10   10    3 1
    11   11    9 2
    12   12    9 2
    13   13   10 2
    14   14   10 2
    15   15    2 1
    16   16    4 1
    17   17    5 1
    18   18    6 1
    19   19    7 1
    20   20    7 1
    21   21    7 1
@<TRIPOS>SUBSTRUCTURE
     1 RES1 1

@<TRIPOS>CRYSIN
   8.7322   13.6510    7.5547  90.0000 111.1950  90.0000  14 1

