# MOL2 file generated by ConQuest
# Please check atom types

@<TRIPOS>MOLECULE
SATCUM
    35    37     1
SMALL
NO_CHARGES
****
Generated from CSD

@<TRIPOS>ATOM
      1 N1         1.8966   -0.6330    5.7576 N.pl3     1 RES1    0.0000
      2 H1         2.5186   -0.4402    6.3495 H         1 RES1    0.0000
      3 C1         2.0149   -0.4658    4.4021 C.2       1 RES1    0.0000
      4 C2         0.8447   -0.8872    3.7893 C.2       1 RES1    0.0000
      5 C3        -0.0428   -1.3366    4.8408 C.ar      1 RES1    0.0000
      6 C4        -1.3703   -1.7994    4.8972 C.ar      1 RES1    0.0000
      7 H2        -1.8794   -1.9021    4.1018 H         1 RES1    0.0000
      8 C5        -1.9192   -2.1021    6.1252 C.ar      1 RES1    0.0000
      9 H3        -2.8083   -2.4324    6.1686 H         1 RES1    0.0000
     10 C6        -1.1873   -1.9304    7.3126 C.ar      1 RES1    0.0000
     11 H4        -1.5890   -2.1589    8.1433 H         1 RES1    0.0000
     12 C7         0.0973   -1.4398    7.2993 C.ar      1 RES1    0.0000
     13 H5         0.5839   -1.3037    8.1031 H         1 RES1    0.0000
     14 C8         0.6555   -1.1492    6.0500 C.ar      1 RES1    0.0000
     15 C9         0.6524   -0.7788    2.3557 C.2       1 RES1    0.0000
     16 H6         1.0355   -0.0126    1.9445 H         1 RES1    0.0000
     17 C10        0.0047   -1.6194    1.5374 C.2       1 RES1    0.0000
     18 C11       -0.6049   -2.9431    1.8348 C.3       1 RES1    0.0000
     19 H7        -0.3916   -3.2017    2.7552 H         1 RES1    0.0000
     20 H8        -0.2484   -3.6135    1.2160 H         1 RES1    0.0000
     21 H9        -1.5781   -2.8862    1.7285 H         1 RES1    0.0000
     22 C12        3.2676    0.0083    3.8055 C.ar      1 RES1    0.0000
     23 C13        3.6818   -0.4589    2.5524 C.ar      1 RES1    0.0000
     24 H10        3.1641   -1.1130    2.0970 H         1 RES1    0.0000
     25 C14        4.8419    0.0256    1.9718 C.ar      1 RES1    0.0000
     26 H11        5.0996   -0.2798    1.1105 H         1 RES1    0.0000
     27 C15        5.6243    0.9459    2.6331 C.ar      1 RES1    0.0000
     28 H12        6.4153    1.2817    2.2276 H         1 RES1    0.0000
     29 C16        5.2467    1.3802    3.8998 C.ar      1 RES1    0.0000
     30 H13        5.7940    1.9986    4.3698 H         1 RES1    0.0000
     31 C17        4.0789    0.9177    4.4790 C.ar      1 RES1    0.0000
     32 H14        3.8282    1.2230    5.3429 H         1 RES1    0.0000
     33 N2        -0.0436   -1.2286    0.1378 N.pl3     1 RES1    0.0000
     34 O1        -0.5909   -1.9970   -0.6539 O.2       1 RES1    0.0000
     35 O2         0.4485   -0.1481   -0.2269 O.2       1 RES1    0.0000
@<TRIPOS>BOND
     1    1    2 1
     2    3    1 1
     3    4    3 2
     4    5    4 1
     5    6    5 ar
     6    7    6 1
     7    8    6 ar
     8    9    8 1
     9   10    8 ar
    10   11   10 1
    11   12   10 ar
    12   13   12 1
    13   14    1 1
    14   15    4 1
    15   16   15 1
    16   17   15 2
    17   18   17 1
    18   19   18 1
    19   20   18 1
    20   21   18 1
    21   22    3 1
    22   23   22 ar
    23   24   23 1
    24   25   23 ar
    25   26   25 1
    26   27   25 ar
    27   28   27 1
    28   29   27 ar
    29   30   29 1
    30   31   22 ar
    31   32   31 1
    32   33   17 1
    33   34   33 2
    34   35   33 2
    35    5   14 ar
    36   12   14 ar
    37   29   31 ar
@<TRIPOS>SUBSTRUCTURE
     1 RES1 1

@<TRIPOS>CRYSIN
   7.7856   10.4801   16.7489  90.0000  90.0000  90.0000  19 1

