# MOL2 file generated by ConQuest
# Please check atom types

@<TRIPOS>MOLECULE
SATRIO
    80    78     2
SMALL
NO_CHARGES
****
Generated from CSD

@<TRIPOS>ATOM
      1 N1         1.4225    2.7361    2.6894 N.am      1 RES1    0.0000
      2 C1         1.8683    3.6494    3.7162 C.3       1 RES1    0.0000
      3 N2         1.9946    5.0345    3.3059 N.pl3     1 RES1    0.0000
      4 C2         3.2366    5.5821    2.7786 C.3       1 RES1    0.0000
      5 N3         3.8525    6.6214    3.5791 N.pl3     1 RES1    0.0000
      6 C3         3.8234    8.0124    3.2123 C.3       1 RES1    0.0000
      7 N4         5.1250    8.5580    2.8509 N.pl3     1 RES1    0.0000
      8 C4         5.8137    9.5753    3.6344 C.3       1 RES1    0.0000
      9 N5         5.4914   10.9184    3.2464 N.am      1 RES1    0.0000
     10 C5         2.2646    2.2364    1.7688 C.2       1 RES1    0.0000
     11 O1         3.4314    2.6421    1.6891 O.2       1 RES1    0.0000
     12 C6         1.7120    1.1712    0.8855 C.3       1 RES1    0.0000
     13 N6         0.8567    5.7780    3.1985 N.pl3     1 RES1    0.0000
     14 O2        -0.2083    5.1944    3.3622 O.2       1 RES1    0.0000
     15 O3         0.9871    6.9611    2.9509 O.2       1 RES1    0.0000
     16 N7         4.4130    6.2956    4.7643 N.pl3     1 RES1    0.0000
     17 O4         4.3199    5.1284    5.1353 O.2       1 RES1    0.0000
     18 O5         4.9653    7.1950    5.3830 O.2       1 RES1    0.0000
     19 N8         5.5918    8.2862    1.5966 N.pl3     1 RES1    0.0000
     20 O6         4.9998    7.4188    0.9705 O.2       1 RES1    0.0000
     21 O7         6.5586    8.9277    1.2033 O.2       1 RES1    0.0000
     22 C7         4.4412   11.5879    3.7608 C.2       1 RES1    0.0000
     23 O8         3.6761   11.0523    4.5591 O.2       1 RES1    0.0000
     24 C8         4.2707   13.0009    3.2889 C.3       1 RES1    0.0000
     25 N9         5.4330    2.9399   -0.3083 N.am      2 RES2    0.0000
     26 C9         6.0706    4.1751   -0.0021 C.3       2 RES2    0.0000
     27 N10        6.0590    5.1424   -1.0991 N.pl3     2 RES2    0.0000
     28 C10        7.2192    5.4542   -1.9144 C.3       2 RES2    0.0000
     29 N11        7.8540    6.7173   -1.6094 N.pl3     2 RES2    0.0000
     30 C11        7.8910    7.8365   -2.5129 C.3       2 RES2    0.0000
     31 N12        9.1828    8.0564   -3.1720 N.pl3     2 RES2    0.0000
     32 C12       10.0587    9.1756   -2.9328 C.3       2 RES2    0.0000
     33 N13        9.9633   10.2308   -3.9182 N.am      2 RES2    0.0000
     34 C13        5.9714    2.0586   -1.1597 C.2       2 RES2    0.0000
     35 O9         7.0117    2.3384   -1.7699 O.2       2 RES2    0.0000
     36 C14        5.2617    0.7595   -1.3277 C.3       2 RES2    0.0000
     37 N14        4.8886    5.7420   -1.4276 N.pl3     2 RES2    0.0000
     38 O10        3.8857    5.3483   -0.8344 O.2       2 RES2    0.0000
     39 O11        4.9131    6.5934   -2.2961 O.2       2 RES2    0.0000
     40 N15        8.5587    6.8032   -0.4581 N.pl3     2 RES2    0.0000
     41 O12        8.5241    5.8299    0.2891 O.2       2 RES2    0.0000
     42 O13        9.1857    7.8345   -0.2424 O.2       2 RES2    0.0000
     43 N16        9.5492    7.1790   -4.1478 N.pl3     2 RES2    0.0000
     44 O14        8.8882    6.1657   -4.2838 O.2       2 RES2    0.0000
     45 O15       10.5304    7.5007   -4.8143 O.2       2 RES2    0.0000
     46 C15        8.9885   11.1222   -3.8788 C.2       2 RES2    0.0000
     47 O16        8.1141   11.0662   -3.0083 O.2       2 RES2    0.0000
     48 C16        8.9982   12.2015   -4.9248 C.3       2 RES2    0.0000
     49 H1         0.6584    2.3244    2.7489 H         1 RES1    0.0000
     50 H2         1.2380    3.6115    4.4401 H         1 RES1    0.0000
     51 H3         2.7274    3.3517    4.0234 H         1 RES1    0.0000
     52 H4         3.0534    5.9478    1.9091 H         1 RES1    0.0000
     53 H5         3.8649    4.8606    2.6957 H         1 RES1    0.0000
     54 H6         3.2341    8.1143    2.4608 H         1 RES1    0.0000
     55 H7         3.4821    8.5140    3.9564 H         1 RES1    0.0000
     56 H8         6.7598    9.4474    3.5323 H         1 RES1    0.0000
     57 H9         5.5733    9.4614    4.5570 H         1 RES1    0.0000
     58 H10        6.0165   11.3680    2.8318 H         1 RES1    0.0000
     59 H11        0.8222    0.9014    1.1225 H         1 RES1    0.0000
     60 H12        2.2783    0.3977    0.8323 H         1 RES1    0.0000
     61 H13        1.6956    1.6149    0.0330 H         1 RES1    0.0000
     62 H14        4.6869   13.1428    2.4353 H         1 RES1    0.0000
     63 H15        4.5893   13.6584    3.9118 H         1 RES1    0.0000
     64 H16        3.3180   13.0828    3.1975 H         1 RES1    0.0000
     65 H17        4.8767    2.6601    0.0266 H         2 RES2    0.0000
     66 H18        5.6212    4.5688    0.7505 H         2 RES2    0.0000
     67 H19        6.9841    3.9952    0.2307 H         2 RES2    0.0000
     68 H20        6.9422    5.4742   -2.8339 H         2 RES2    0.0000
     69 H21        7.8671    4.7567   -1.7901 H         2 RES2    0.0000
     70 H22        7.2295    7.6926   -3.1932 H         2 RES2    0.0000
     71 H23        7.6713    8.6280   -2.0154 H         2 RES2    0.0000
     72 H24        9.8433    9.5473   -2.0739 H         2 RES2    0.0000
     73 H25       10.9631    8.8538   -2.9243 H         2 RES2    0.0000
     74 H26       10.5703   10.2908   -4.3869 H         2 RES2    0.0000
     75 H27        5.4508    0.4317   -2.2110 H         2 RES2    0.0000
     76 H28        4.3117    0.8134   -1.2033 H         2 RES2    0.0000
     77 H29        5.6361    0.1599   -0.6782 H         2 RES2    0.0000
     78 H30        9.7642   12.0556   -5.4839 H         2 RES2    0.0000
     79 H31        9.0232   13.0948   -4.5740 H         2 RES2    0.0000
     80 H32        8.1971   12.0815   -5.4404 H         2 RES2    0.0000
@<TRIPOS>BOND
     1    1    2 1
     2    2    3 1
     3    3    4 1
     4    4    5 1
     5    5    6 1
     6    6    7 1
     7    7    8 1
     8    8    9 1
     9    9   22 1
    10   10    1 1
    11   11   10 2
    12   12   10 1
    13   13    3 1
    14   14   13 2
    15   15   13 2
    16   16    5 1
    17   17   16 2
    18   18   16 2
    19   19    7 1
    20   20   19 2
    21   21   19 2
    22   22   23 2
    23   24   22 1
    24   25   26 1
    25   26   27 1
    26   27   28 1
    27   28   29 1
    28   29   30 1
    29   30   31 1
    30   31   32 1
    31   32   33 1
    32   33   46 1
    33   34   25 1
    34   35   34 2
    35   36   34 1
    36   37   27 1
    37   38   37 2
    38   39   37 2
    39   40   29 1
    40   41   40 2
    41   42   40 2
    42   43   31 1
    43   44   43 2
    44   45   43 2
    45   46   47 2
    46   48   46 1
    47   49    1 1
    48   50    2 1
    49   51    2 1
    50   52    4 1
    51   53    4 1
    52   54    6 1
    53   55    6 1
    54   56    8 1
    55   57    8 1
    56   58    9 1
    57   59   12 1
    58   60   12 1
    59   61   12 1
    60   62   24 1
    61   63   24 1
    62   64   24 1
    63   65   25 1
    64   66   26 1
    65   67   26 1
    66   68   28 1
    67   69   28 1
    68   70   30 1
    69   71   30 1
    70   72   32 1
    71   73   32 1
    72   74   33 1
    73   75   36 1
    74   76   36 1
    75   77   36 1
    76   78   48 1
    77   79   48 1
    78   80   48 1
@<TRIPOS>SUBSTRUCTURE
     1 RES1 1
     2 RES2 25

@<TRIPOS>CRYSIN
   7.2430   19.9860   10.6920  90.0000  96.1800  90.0000   4 1

