# MOL2 file generated by ConQuest
# Please check atom types

@<TRIPOS>MOLECULE
SATZOC
    33    37     1
SMALL
NO_CHARGES
****
Generated from CSD

@<TRIPOS>ATOM
      1 O1         0.4000   -9.6356  -11.6161 O.2       1 RES1    0.0000
      2 O2         1.8880  -10.3057   -7.0070 O.2       1 RES1    0.0000
      3 O3         3.3208   -8.8881   -7.7753 O.2       1 RES1    0.0000
      4 O4         2.2088   -7.8566   -5.3249 O.2       1 RES1    0.0000
      5 O5         0.4507   -6.7488   -5.6468 O.2       1 RES1    0.0000
      6 O6        -0.8151   -5.1927  -11.8213 O.2       1 RES1    0.0000
      7 O7        -1.9246   -4.7726  -10.0471 O.2       1 RES1    0.0000
      8 N1         2.2142   -9.1991   -7.4124 N.pl3     1 RES1    0.0000
      9 N2         1.2982   -7.5257   -5.9924 N.pl3     1 RES1    0.0000
     10 N3        -1.1331   -5.4368  -10.6807 N.pl3     1 RES1    0.0000
     11 C1         1.1455   -8.1183   -7.4174 C.3       1 RES1    0.0000
     12 C2         1.3711   -6.9682   -8.4176 C.3       1 RES1    0.0000
     13 C3         1.8079   -7.3590   -9.8548 C.3       1 RES1    0.0000
     14 C4         0.5280   -7.3907  -10.7484 C.3       1 RES1    0.0000
     15 C5        -0.0130   -8.8001  -10.8665 C.2       1 RES1    0.0000
     16 C6        -1.1343   -9.0031   -9.8599 C.3       1 RES1    0.0000
     17 C7        -0.6090   -9.7002   -8.5803 C.3       1 RES1    0.0000
     18 C8        -0.3144   -8.6053   -7.5304 C.3       1 RES1    0.0000
     19 C9        -1.0702   -7.3426   -7.9970 C.3       1 RES1    0.0000
     20 C10       -0.0370   -6.3322   -8.5407 C.3       1 RES1    0.0000
     21 C11       -0.5128   -6.6185   -9.9902 C.3       1 RES1    0.0000
     22 C12       -1.5878   -7.6125   -9.4415 C.3       1 RES1    0.0000
     23 H1         2.0822   -6.4308   -8.0935 H         1 RES1    0.0000
     24 H2         2.4260   -6.7242  -10.1889 H         1 RES1    0.0000
     25 H3         2.2136   -8.2145   -9.8433 H         1 RES1    0.0000
     26 H4         0.7252   -7.0410  -11.6075 H         1 RES1    0.0000
     27 H5        -1.8236   -9.5288  -10.2393 H         1 RES1    0.0000
     28 H6         0.1848  -10.1860   -8.7776 H         1 RES1    0.0000
     29 H7        -1.2667  -10.3033   -8.2448 H         1 RES1    0.0000
     30 H8        -0.5549   -8.9890   -6.7038 H         1 RES1    0.0000
     31 H9        -1.6593   -7.0997   -7.2943 H         1 RES1    0.0000
     32 H10        0.0075   -5.4568   -8.1799 H         1 RES1    0.0000
     33 H11       -2.5080   -7.5456   -9.6561 H         1 RES1    0.0000
@<TRIPOS>BOND
     1    1   15 2
     2    2    8 2
     3    3    8 2
     4    4    9 2
     5    5    9 2
     6    6   10 2
     7    7   10 2
     8    8   11 1
     9    9   11 1
    10   10   21 1
    11   11   12 1
    12   12   13 1
    13   13   14 1
    14   14   15 1
    15   15   16 1
    16   16   17 1
    17   17   18 1
    18   18   11 1
    19   19   18 1
    20   20   12 1
    21   21   14 1
    22   22   16 1
    23   23   12 1
    24   24   13 1
    25   25   13 1
    26   26   14 1
    27   27   16 1
    28   28   17 1
    29   29   17 1
    30   30   18 1
    31   31   19 1
    32   32   20 1
    33   33   22 1
    34   19   20 1
    35   19   22 1
    36   20   21 1
    37   21   22 1
@<TRIPOS>SUBSTRUCTURE
     1 RES1 1

@<TRIPOS>CRYSIN
   7.2250   11.7350    7.7700  90.0000 112.0700  90.0000   4 1

