# MOL2 file generated by ConQuest
# Please check atom types

@<TRIPOS>MOLECULE
SAVFIE
    49    47     2
SMALL
NO_CHARGES
****
Generated from CSD

@<TRIPOS>ATOM
      1 O1        -0.1635    2.3212    5.2915 O.2       1 RES1    0.0000
      2 O2        -4.6688    3.8419    3.5628 O.2       1 RES1    0.0000
      3 O3        -1.4564   -1.3787    0.5985 O.2       1 RES1    0.0000
      4 O4         0.2891   -0.5453    1.5097 O.2       1 RES1    0.0000
      5 O5        -3.5851    8.2857    5.6943 O.2       1 RES1    0.0000
      6 O6         1.5974    6.1230    9.4527 O.2       1 RES1    0.0000
      7 O7         2.0070    4.2885    8.4234 O.2       1 RES1    0.0000
      8 N1        -1.2996    2.6865    4.9021 N.pl3     1 RES1    0.0000
      9 N2        -1.8989    3.7812    5.1779 N.2       1 RES1    0.0000
     10 N3        -4.2334    2.1638    4.9823 N.am      1 RES1    0.0000
     11 N4        -0.9150   -0.6503    1.4042 N.pl3     1 RES1    0.0000
     12 N5        -3.1537    6.0767    5.3491 N.am      1 RES1    0.0000
     13 N6         1.3308    5.2813    8.6082 N.pl3     1 RES1    0.0000
     14 C1        -1.9904    1.7677    3.9954 C.ar      1 RES1    0.0000
     15 C2        -3.3566    1.5639    4.0215 C.ar      1 RES1    0.0000
     16 C3        -3.9018    0.6420    3.1437 C.ar      1 RES1    0.0000
     17 C4        -3.1147   -0.0514    2.2676 C.ar      1 RES1    0.0000
     18 C5        -1.7576    0.1543    2.2920 C.ar      1 RES1    0.0000
     19 C6        -1.1704    1.0371    3.1545 C.ar      1 RES1    0.0000
     20 C7        -4.5145    1.3726    6.1765 C.3       1 RES1    0.0000
     21 C8        -4.9120    3.2750    4.6146 C.2       1 RES1    0.0000
     22 C9        -5.9399    3.7812    5.5718 C.3       1 RES1    0.0000
     23 C10       -1.3363    4.6794    6.1026 C.ar      1 RES1    0.0000
     24 C11       -2.0919    5.8637    6.2279 C.ar      1 RES1    0.0000
     25 C12       -1.7670    6.7794    7.2256 C.ar      1 RES1    0.0000
     26 C13       -0.6524    6.5880    8.0124 C.ar      1 RES1    0.0000
     27 C14        0.1225    5.4758    7.8069 C.ar      1 RES1    0.0000
     28 C15       -0.2039    4.5076    6.8903 C.ar      1 RES1    0.0000
     29 C16       -3.7805    7.2723    5.0815 C.2       1 RES1    0.0000
     30 C17       -4.7187    7.2116    3.9332 C.3       1 RES1    0.0000
     31 H1        -4.8385    0.4887    3.1509 H         1 RES1    0.0000
     32 H2        -3.4994   -0.6647    1.6530 H         1 RES1    0.0000
     33 H3        -0.2277    1.1462    3.1752 H         1 RES1    0.0000
     34 H4        -2.3150    7.5418    7.3635 H         1 RES1    0.0000
     35 H5        -0.4279    7.2157    8.6875 H         1 RES1    0.0000
     36 H6         0.3341    3.7318    6.7957 H         1 RES1    0.0000
     37 H7        -3.4795    5.3143    4.8841 H         1 RES1    0.0000
     38 H8        -3.9065    0.6420    6.2225 H         1 RES1    0.0000
     39 H9        -4.4112    1.9168    6.9480 H         1 RES1    0.0000
     40 H10       -5.4026    1.0423    6.1360 H         1 RES1    0.0000
     41 H11       -6.3504    4.5591    5.2130 H         1 RES1    0.0000
     42 H12       -6.5980    3.1104    5.7124 H         1 RES1    0.0000
     43 H13       -5.5231    3.9942    6.3982 H         1 RES1    0.0000
     44 H14       -5.1153    8.0645    3.8025 H         1 RES1    0.0000
     45 H15       -4.2437    6.9595    3.1491 H         1 RES1    0.0000
     46 H16       -5.3961    6.5706    4.1117 H         1 RES1    0.0000
     47 H17       -4.7355    6.3277    3.5835 Du        2 SUP2    0.0000
     48 H18       -5.5893    7.4534    4.2234 Du        2 SUP2    0.0000
     49 H19       -4.4303    7.8135    3.2564 Du        2 SUP2    0.0000
@<TRIPOS>BOND
     1    1    8 1
     2    2   21 2
     3    3   11 2
     4    4   11 2
     5    5   29 2
     6    6   13 2
     7    7   13 2
     8    8    9 2
     9    9   23 1
    10   10   15 1
    11   11   18 1
    12   12   24 1
    13   13   27 1
    14   14    8 1
    15   15   14 ar
    16   16   15 ar
    17   17   16 ar
    18   18   17 ar
    19   19   14 ar
    20   20   10 1
    21   21   10 1
    22   22   21 1
    23   23   24 ar
    24   24   25 ar
    25   25   26 ar
    26   26   27 ar
    27   27   28 ar
    28   28   23 ar
    29   29   12 1
    30   30   29 1
    31   31   16 1
    32   32   17 1
    33   33   19 1
    34   34   25 1
    35   35   26 1
    36   36   28 1
    37   37   12 1
    38   38   20 1
    39   39   20 1
    40   40   20 1
    41   41   22 1
    42   42   22 1
    43   43   22 1
    44   44   30 1
    45   45   30 1
    46   46   30 1
    47   18   19 ar
@<TRIPOS>SUBSTRUCTURE
     1 RES1 1
     2 SUP2 47

@<TRIPOS>CRYSIN
  19.9490   10.2890    9.1010  90.0000  97.9800  90.0000 231 1

