# MOL2 file generated by ConQuest
# Please check atom types

@<TRIPOS>MOLECULE
SAVJUU
    38    39     1
SMALL
NO_CHARGES
****
Generated from CSD

@<TRIPOS>ATOM
      1 N1        11.3877    2.1358    8.3161 N.pl3     1 RES1    0.0000
      2 H1        10.7435    1.9397    8.9113 H         1 RES1    0.0000
      3 N2        11.2116    1.9155    6.9647 N.2       1 RES1    0.0000
      4 C1        10.1214    1.3288    6.5965 C.2       1 RES1    0.0000
      5 C2         9.0449    0.8593    7.5484 C.3       1 RES1    0.0000
      6 H2         9.4567    0.3814    8.2977 H         1 RES1    0.0000
      7 H3         8.4312    0.2589    7.0762 H         1 RES1    0.0000
      8 H4         8.5485    1.6334    7.8872 H         1 RES1    0.0000
      9 C3        12.5631    2.6603    8.7485 C.ar      1 RES1    0.0000
     10 C4        12.8546    2.8975   10.1257 C.ar      1 RES1    0.0000
     11 N3        11.8938    2.6025   11.1736 N.pl3     1 RES1    0.0000
     12 O1        10.7618    2.2094   10.8593 O.2       1 RES1    0.0000
     13 O2        12.2316    2.7599   12.3484 O.2       1 RES1    0.0000
     14 C5        14.0584    3.4584   10.5337 C.ar      1 RES1    0.0000
     15 H5        14.2315    3.6052   11.4565 H         1 RES1    0.0000
     16 C6        14.9931    3.7981    9.5851 C.ar      1 RES1    0.0000
     17 N4        16.2201    4.4645    9.9977 N.pl3     1 RES1    0.0000
     18 O3        16.9925    4.8618    9.1222 O.2       1 RES1    0.0000
     19 O4        16.4390    4.6166   11.1987 O.2       1 RES1    0.0000
     20 C7        14.7711    3.5495    8.2204 C.ar      1 RES1    0.0000
     21 H6        15.4375    3.7692    7.5790 H         1 RES1    0.0000
     22 C8        13.5919    2.9900    7.8219 C.ar      1 RES1    0.0000
     23 H7        13.4549    2.8154    6.8986 H         1 RES1    0.0000
     24 C9         9.9712    1.1320    5.1279 C.ar      1 RES1    0.0000
     25 C10       10.9781    1.5788    4.2457 C.ar      1 RES1    0.0000
     26 H8        11.7601    1.9885    4.5991 H         1 RES1    0.0000
     27 C11       10.8502    1.4314    2.8788 C.ar      1 RES1    0.0000
     28 H9        11.5457    1.7340    2.3052 H         1 RES1    0.0000
     29 C12        9.7115    0.8442    2.3312 C.ar      1 RES1    0.0000
     30 O5         9.6775    0.7786    0.9661 O.3       1 RES1    0.0000
     31 C13        8.5392    0.1385    0.3630 C.3       1 RES1    0.0000
     32 H10        8.6340    0.1539   -0.6122 H         1 RES1    0.0000
     33 H11        7.7237    0.6169    0.6193 H         1 RES1    0.0000
     34 H12        8.4855   -0.7897    0.6718 H         1 RES1    0.0000
     35 C14        8.7060    0.3765    3.1767 C.ar      1 RES1    0.0000
     36 H13        7.9315   -0.0408    2.8165 H         1 RES1    0.0000
     37 C15        8.8476    0.5275    4.5656 C.ar      1 RES1    0.0000
     38 H14        8.1586    0.2093    5.1374 H         1 RES1    0.0000
@<TRIPOS>BOND
     1    1    2 1
     2    3    1 1
     3    4    3 2
     4    5    4 1
     5    6    5 1
     6    7    5 1
     7    8    5 1
     8    9    1 1
     9   10    9 ar
    10   11   10 1
    11   12   11 2
    12   13   11 2
    13   14   10 ar
    14   15   14 1
    15   16   14 ar
    16   17   16 1
    17   18   17 2
    18   19   17 2
    19   20   16 ar
    20   21   20 1
    21   22    9 ar
    22   23   22 1
    23   24    4 1
    24   25   24 ar
    25   26   25 1
    26   27   25 ar
    27   28   27 1
    28   29   27 ar
    29   30   29 1
    30   31   30 1
    31   32   31 1
    32   33   31 1
    33   34   31 1
    34   35   29 ar
    35   36   35 1
    36   37   24 ar
    37   38   37 1
    38   20   22 ar
    39   35   37 ar
@<TRIPOS>SUBSTRUCTURE
     1 RES1 1

@<TRIPOS>CRYSIN
  29.4320    7.2920   15.9580  90.0000 117.1200  90.0000  15 1

