# MOL2 file generated by ConQuest
# Please check atom types

@<TRIPOS>MOLECULE
SAVJEH01
    58    62     1
SMALL
NO_CHARGES
****
Generated from CSD

@<TRIPOS>ATOM
      1 C1         9.2578    5.9979    4.9054 C.2       1 RES1    0.0000
      2 O1         8.7761    5.7920    6.0294 O.2       1 RES1    0.0000
      3 N1         8.7875    6.9978    4.1260 N.am      1 RES1    0.0000
      4 C2         9.4627    7.3820    2.8781 C.3       1 RES1    0.0000
      5 H1        10.4388    7.4521    3.0303 H         1 RES1    0.0000
      6 H2         9.1317    8.2641    2.5738 H         1 RES1    0.0000
      7 C3         9.1845    6.3523    1.8444 C.2       1 RES1    0.0000
      8 C4         9.6067    5.0045    2.0098 C.2       1 RES1    0.0000
      9 N2         9.2128    4.2324    1.0240 N.2       1 RES1    0.0000
     10 C5         7.5017    7.6106    4.5295 C.3       1 RES1    0.0000
     11 H3         7.0286    6.9495    5.1122 H         1 RES1    0.0000
     12 C6         7.7502    8.8691    5.3769 C.2       1 RES1    0.0000
     13 O2         8.5579    9.7267    5.0152 O.2       1 RES1    0.0000
     14 N3         7.0113    8.9180    6.4786 N.am      1 RES1    0.0000
     15 H4         6.4670    8.2428    6.6273 H         1 RES1    0.0000
     16 C7         8.4971    6.3357    0.6916 C.2       1 RES1    0.0000
     17 H5         8.0728    7.0905    0.3005 H         1 RES1    0.0000
     18 O3         8.4926    5.0889    0.1656 O.3       1 RES1    0.0000
     19 C8        10.3373    5.0551    4.4218 C.ar      1 RES1    0.0000
     20 C9        10.4186    4.5040    3.1274 C.ar      1 RES1    0.0000
     21 C10       11.2844    3.4249    2.8982 C.ar      1 RES1    0.0000
     22 H6        11.3360    3.0433    2.0299 H         1 RES1    0.0000
     23 C11       12.0597    2.9112    3.9098 C.ar      1 RES1    0.0000
     24 H7        12.6262    2.1677    3.7403 H         1 RES1    0.0000
     25 C12       12.0182    3.4733    5.1776 C.ar      1 RES1    0.0000
     26 H8        12.5829    3.1443    5.8666 H         1 RES1    0.0000
     27 C13       11.1444    4.5205    5.4283 C.ar      1 RES1    0.0000
     28 H9        11.0938    4.8829    6.3053 H         1 RES1    0.0000
     29 C14        6.5938    7.9027    3.3541 C.ar      1 RES1    0.0000
     30 C15        6.7320    9.0491    2.5841 C.ar      1 RES1    0.0000
     31 H10        7.4012    9.6908    2.7932 H         1 RES1    0.0000
     32 C16        5.8848    9.2471    1.5094 C.ar      1 RES1    0.0000
     33 C17        4.8681    8.3658    1.1862 C.ar      1 RES1    0.0000
     34 H11        4.2935    8.5299    0.4476 H         1 RES1    0.0000
     35 C18        4.7160    7.2406    1.9717 C.ar      1 RES1    0.0000
     36 H12        4.0221    6.6221    1.7776 H         1 RES1    0.0000
     37 C19        5.5681    7.0054    3.0435 C.ar      1 RES1    0.0000
     38 H13        5.4519    6.2242    3.5717 H         1 RES1    0.0000
     39 N4         6.1022   10.4429    0.6849 N.pl3     1 RES1    0.0000
     40 O4         7.0912   11.1381    0.9218 O.2       1 RES1    0.0000
     41 O5         5.2986   10.6905   -0.2069 O.2       1 RES1    0.0000
     42 C20        7.0233    9.9987    7.4700 C.3       1 RES1    0.0000
     43 H14        7.8052   10.5963    7.2904 H         1 RES1    0.0000
     44 C21        5.7410   10.8165    7.3708 C.3       1 RES1    0.0000
     45 H15        4.9612   10.2155    7.4717 H         1 RES1    0.0000
     46 H16        5.6890   11.2362    6.4752 H         1 RES1    0.0000
     47 C22        5.6805   11.9067    8.4451 C.3       1 RES1    0.0000
     48 H17        6.3958   12.5699    8.2794 H         1 RES1    0.0000
     49 H18        4.8105   12.3754    8.3897 H         1 RES1    0.0000
     50 C23        5.8491   11.3199    9.8363 C.3       1 RES1    0.0000
     51 H19        5.0694   10.7479   10.0481 H         1 RES1    0.0000
     52 H20        5.8789   12.0532   10.5008 H         1 RES1    0.0000
     53 C24        7.1245   10.4943    9.9363 C.3       1 RES1    0.0000
     54 H21        7.1763   10.0764   10.8330 H         1 RES1    0.0000
     55 H22        7.9090   11.0878    9.8300 H         1 RES1    0.0000
     56 C25        7.1655    9.4034    8.8654 C.3       1 RES1    0.0000
     57 H23        8.0233    8.9126    8.9286 H         1 RES1    0.0000
     58 H24        6.4310    8.7581    9.0249 H         1 RES1    0.0000
@<TRIPOS>BOND
     1    1    2 2
     2    3    1 1
     3    4    3 1
     4    5    4 1
     5    6    4 1
     6    7    4 1
     7    8    7 1
     8    9    8 2
     9   10    3 1
    10   11   10 1
    11   12   10 1
    12   13   12 2
    13   14   12 1
    14   15   14 1
    15   16    7 2
    16   17   16 1
    17   18    9 1
    18   19    1 1
    19   20    8 1
    20   21   20 ar
    21   22   21 1
    22   23   21 ar
    23   24   23 1
    24   25   23 ar
    25   26   25 1
    26   27   19 ar
    27   28   27 1
    28   29   10 1
    29   30   29 ar
    30   31   30 1
    31   32   30 ar
    32   33   32 ar
    33   34   33 1
    34   35   33 ar
    35   36   35 1
    36   37   29 ar
    37   38   37 1
    38   39   32 1
    39   40   39 2
    40   41   39 2
    41   42   14 1
    42   43   42 1
    43   44   42 1
    44   45   44 1
    45   46   44 1
    46   47   44 1
    47   48   47 1
    48   49   47 1
    49   50   47 1
    50   51   50 1
    51   52   50 1
    52   53   50 1
    53   54   53 1
    54   55   53 1
    55   56   42 1
    56   57   56 1
    57   58   56 1
    58   16   18 1
    59   19   20 ar
    60   25   27 ar
    61   35   37 ar
    62   53   56 1
@<TRIPOS>SUBSTRUCTURE
     1 RES1 1

@<TRIPOS>CRYSIN
   8.6689   10.6916   13.0284  77.8440  81.0900  71.4130   2 1

