# MOL2 file generated by ConQuest
# Please check atom types

@<TRIPOS>MOLECULE
SAVJEH
    61    62     2
SMALL
NO_CHARGES
****
Generated from CSD

@<TRIPOS>ATOM
      1 C1         5.3867   13.2907    5.3617 C.2       1 RES1    0.0000
      2 O1         5.0640   14.3532    5.8886 O.2       1 RES1    0.0000
      3 N1         4.4677   12.3338    5.0892 N.am      1 RES1    0.0000
      4 C2         4.8002   11.1066    4.3477 C.3       1 RES1    0.0000
      5 H1         5.2918   11.3334    3.5190 H         1 RES1    0.0000
      6 H2         3.9703   10.6266    4.0976 H         1 RES1    0.0000
      7 C3         5.6442   10.2443    5.2203 C.2       1 RES1    0.0000
      8 C4         6.9446   10.6701    5.6040 C.2       1 RES1    0.0000
      9 N2         7.5400    9.8010    6.3861 N.2       1 RES1    0.0000
     10 C5         3.0914   12.5401    5.5592 C.3       1 RES1    0.0000
     11 H3         3.1157   13.2307    6.2827 H         1 RES1    0.0000
     12 C6         2.2079   13.0744    4.4322 C.2       1 RES1    0.0000
     13 O2         2.3820   12.6863    3.2738 O.2       1 RES1    0.0000
     14 N3         1.2759   13.9335    4.8064 N.am      1 RES1    0.0000
     15 H4         1.2617   14.1802    5.6506 H         1 RES1    0.0000
     16 C7         5.4955    9.0629    5.8300 C.2       1 RES1    0.0000
     17 H5         4.7192    8.5171    5.7756 H         1 RES1    0.0000
     18 O3         6.6072    8.7599    6.5344 O.3       1 RES1    0.0000
     19 C8         6.8351   13.0872    4.9780 C.ar      1 RES1    0.0000
     20 C9         7.5736   11.9067    5.1522 C.ar      1 RES1    0.0000
     21 C10        8.9478   11.9089    4.8702 C.ar      1 RES1    0.0000
     22 H6         9.4570   11.1194    5.0022 H         1 RES1    0.0000
     23 C11        9.5643   13.0526    4.4029 C.ar      1 RES1    0.0000
     24 H7        10.4913   13.0383    4.1942 H         1 RES1    0.0000
     25 C12        8.8496   14.2054    4.2399 C.ar      1 RES1    0.0000
     26 H8         9.2801   14.9877    3.9157 H         1 RES1    0.0000
     27 C13        7.4986   14.2365    4.5451 C.ar      1 RES1    0.0000
     28 H9         7.0179   15.0506    4.4589 H         1 RES1    0.0000
     29 C14        2.5088   11.2649    6.1533 C.ar      1 RES1    0.0000
     30 C15        1.7461   10.3860    5.4117 C.ar      1 RES1    0.0000
     31 H10        1.5331   10.5763    4.5055 H         1 RES1    0.0000
     32 C16        1.5607    8.9212    7.3295 C.ar      1 RES1    0.0000
     33 H11        1.2334    8.1215    7.7218 H         1 RES1    0.0000
     34 C17        2.3038    9.8012    8.0538 C.ar      1 RES1    0.0000
     35 H12        2.4928    9.6159    8.9661 H         1 RES1    0.0000
     36 C18        2.7827   10.9552    7.4821 C.ar      1 RES1    0.0000
     37 H13        3.3087   11.5510    8.0021 H         1 RES1    0.0000
     38 C19        1.2988    9.2214    6.0136 C.ar      1 RES1    0.0000
     39 N4         0.5779    8.2186    5.2591 N.pl3     1 RES1    0.0000
     40 O4        -0.2784    7.5280    5.8869 O.2       1 RES1    0.0000
     41 O5         0.8132    8.2060    4.0235 O.2       1 RES1    0.0000
     42 C20        0.2642   14.5030    3.9114 C.3       1 RES1    0.0000
     43 H14        0.7078   14.7737    3.0568 H         1 RES1    0.0000
     44 C21       -0.8171   13.4985    3.5975 C.3       1 RES1    0.0000
     45 H15       -1.1938   13.1498    4.4434 H         1 RES1    0.0000
     46 H16       -0.4213   12.7361    3.1042 H         1 RES1    0.0000
     47 C22       -1.9346   14.1058    2.7645 C.3       1 RES1    0.0000
     48 H17       -1.5806   14.3637    1.8772 H         1 RES1    0.0000
     49 H18       -2.6464   13.4321    2.6265 H         1 RES1    0.0000
     50 C23       -2.5200   15.3222    3.4466 C.3       1 RES1    0.0000
     51 H19       -3.2088   15.7268    2.8628 H         1 RES1    0.0000
     52 H20       -2.9567   15.0470    4.2916 H         1 RES1    0.0000
     53 C24       -1.4491   16.3448    3.7441 C.3       1 RES1    0.0000
     54 H21       -1.8484   17.1044    4.2364 H         1 RES1    0.0000
     55 H22       -1.0822   16.6926    2.8921 H         1 RES1    0.0000
     56 C25       -0.3221   15.7441    4.5710 C.3       1 RES1    0.0000
     57 H23       -0.6675   15.5056    5.4678 H         1 RES1    0.0000
     58 H24        0.3916   16.4192    4.6891 H         1 RES1    0.0000
     59 N5         0.5133    8.3301    5.1229 Du        2 SUP2    0.0000
     60 O6         0.2997    7.1791    5.6221 Du        2 SUP2    0.0000
     61 O7         0.0783    8.7293    4.0045 Du        2 SUP2    0.0000
@<TRIPOS>BOND
     1    1    2 2
     2    3    1 1
     3    4    3 1
     4    5    4 1
     5    6    4 1
     6    7    4 1
     7    8    7 1
     8    9    8 2
     9   10    3 1
    10   11   10 1
    11   12   10 1
    12   13   12 2
    13   14   12 1
    14   15   14 1
    15   16    7 2
    16   17   16 1
    17   18    9 1
    18   19    1 1
    19   20    8 1
    20   21   20 ar
    21   22   21 1
    22   23   21 ar
    23   24   23 1
    24   25   23 ar
    25   26   25 1
    26   27   19 ar
    27   28   27 1
    28   29   10 1
    29   30   29 ar
    30   31   30 1
    31   32   33 1
    32   34   32 ar
    33   35   34 1
    34   36   29 ar
    35   37   36 1
    36   38   30 ar
    37   39   38 1
    38   40   39 2
    39   41   39 2
    40   42   14 1
    41   43   42 1
    42   44   42 1
    43   45   44 1
    44   46   44 1
    45   47   44 1
    46   48   47 1
    47   49   47 1
    48   50   47 1
    49   51   50 1
    50   52   50 1
    51   53   50 1
    52   54   53 1
    53   55   53 1
    54   56   42 1
    55   57   56 1
    56   58   56 1
    57   16   18 1
    58   19   20 ar
    59   25   27 ar
    60   32   38 ar
    61   34   36 ar
    62   53   56 1
@<TRIPOS>SUBSTRUCTURE
     1 RES1 1
     2 SUP2 59

@<TRIPOS>CRYSIN
  15.0879   17.9838    8.8566  90.0000 103.1910  90.0000  14 1

