# MOL2 file generated by ConQuest
# Please check atom types

@<TRIPOS>MOLECULE
SAVKEI
    64    69     1
SMALL
NO_CHARGES
****
Generated from CSD

@<TRIPOS>ATOM
      1 C1        10.1933    3.0640    4.6956 C.2       1 RES1    0.0000
      2 C2         9.0089    2.7388    4.1080 C.2       1 RES1    0.0000
      3 H1         8.4389    3.4312    3.8607 H         1 RES1    0.0000
      4 C3         8.5983    1.4280    3.8549 C.2       1 RES1    0.0000
      5 H2         7.7698    1.2829    3.4606 H         1 RES1    0.0000
      6 C4         9.3914    0.3356    4.1750 C.2       1 RES1    0.0000
      7 C5        10.6372    0.6622    4.8077 C.2       1 RES1    0.0000
      8 C6        11.0530    2.0023    5.0776 C.2       1 RES1    0.0000
      9 C7         7.8772   -1.3721    3.2502 C.3       1 RES1    0.0000
     10 H3         7.9776   -2.2935    2.9621 H         1 RES1    0.0000
     11 H4         7.7355   -0.8267    2.4610 H         1 RES1    0.0000
     12 C8         6.6689   -1.2629    4.1514 C.ar      1 RES1    0.0000
     13 C9         5.6080   -0.4345    3.8372 C.ar      1 RES1    0.0000
     14 H5         5.5966    0.0108    3.0211 H         1 RES1    0.0000
     15 C10        4.5636   -0.2650    4.7304 C.ar      1 RES1    0.0000
     16 H6         3.8585    0.3002    4.5100 H         1 RES1    0.0000
     17 C11        4.5537   -0.9246    5.9466 C.ar      1 RES1    0.0000
     18 C12        5.5908   -1.8035    6.2256 C.ar      1 RES1    0.0000
     19 H7         5.5807   -2.2917    7.0169 H         1 RES1    0.0000
     20 C13        6.6341   -1.9596    5.3446 C.ar      1 RES1    0.0000
     21 H8         7.3273   -2.5432    5.5542 H         1 RES1    0.0000
     22 C14        3.4629   -0.6770    6.9349 C.2       1 RES1    0.0000
     23 C15        3.3379    0.5323    7.5259 C.2       1 RES1    0.0000
     24 C16        4.3757    1.5864    7.3177 C.ar      1 RES1    0.0000
     25 C17        4.0069    2.8290    6.8319 C.ar      1 RES1    0.0000
     26 H9         3.1058    3.0327    6.7231 H         1 RES1    0.0000
     27 C18        4.9613    3.7684    6.5074 C.ar      1 RES1    0.0000
     28 H10        4.7010    4.5914    6.1616 H         1 RES1    0.0000
     29 C19        6.2908    3.4970    6.6900 C.ar      1 RES1    0.0000
     30 H11        6.9313    4.1281    6.4554 H         1 RES1    0.0000
     31 C20        6.6718    2.2944    7.2181 C.ar      1 RES1    0.0000
     32 H12        7.5716    2.1168    7.3672 H         1 RES1    0.0000
     33 C21        5.7219    1.3460    7.5306 C.ar      1 RES1    0.0000
     34 H13        5.9898    0.5310    7.8906 H         1 RES1    0.0000
     35 C22        2.1455    0.9368    8.3240 C.ar      1 RES1    0.0000
     36 C23        0.8616    0.7717    7.8323 C.ar      1 RES1    0.0000
     37 H14        0.7349    0.3705    7.0025 H         1 RES1    0.0000
     38 C24       -0.2309    1.1936    8.5596 C.ar      1 RES1    0.0000
     39 H15       -1.0877    1.0620    8.2198 H         1 RES1    0.0000
     40 C25       -0.0720    1.8030    9.7704 C.ar      1 RES1    0.0000
     41 H16       -0.8127    2.0897   10.2532 H         1 RES1    0.0000
     42 C26        1.1806    1.9860   10.2635 C.ar      1 RES1    0.0000
     43 H17        1.2964    2.3980   11.0888 H         1 RES1    0.0000
     44 C27        2.2834    1.5668    9.5509 C.ar      1 RES1    0.0000
     45 H18        3.1342    1.7084    9.8990 H         1 RES1    0.0000
     46 C28        2.5639   -1.8396    7.1798 C.ar      1 RES1    0.0000
     47 C29        2.0859   -2.5774    6.1125 C.ar      1 RES1    0.0000
     48 H19        2.3242   -2.3394    5.2460 H         1 RES1    0.0000
     49 C30        1.2536   -3.6692    6.3190 C.ar      1 RES1    0.0000
     50 H20        0.9150   -4.1380    5.5910 H         1 RES1    0.0000
     51 C31        0.9309   -4.0541    7.5902 C.ar      1 RES1    0.0000
     52 H21        0.3809   -4.7907    7.7292 H         1 RES1    0.0000
     53 C32        1.4235   -3.3519    8.6577 C.ar      1 RES1    0.0000
     54 H22        1.2123   -3.6187    9.5238 H         1 RES1    0.0000
     55 C33        2.2270   -2.2547    8.4579 C.ar      1 RES1    0.0000
     56 H23        2.5491   -1.7832    9.1919 H         1 RES1    0.0000
     57 N1        10.5661    4.4314    4.8746 N.pl3     1 RES1    0.0000
     58 O1        12.5471    0.6174    5.7152 O.3       1 RES1    0.0000
     59 N2         9.1022   -0.9441    3.9160 N.3       1 RES1    0.0000
     60 H24        9.6682   -1.5461    4.1545 H         1 RES1    0.0000
     61 O2         9.7791    5.3080    4.4759 O.2       1 RES1    0.0000
     62 O3        11.6481    4.6830    5.3938 O.2       1 RES1    0.0000
     63 N3        12.2380    1.9742    5.6437 N.2       1 RES1    0.0000
     64 N4        11.5579   -0.1770    5.1936 N.2       1 RES1    0.0000
@<TRIPOS>BOND
     1    1    2 2
     2    2    3 1
     3    4    2 1
     4    5    4 1
     5    6    4 2
     6    7    6 1
     7    8    1 1
     8    9   10 1
     9   11    9 1
    10   12    9 1
    11   13   12 ar
    12   14   13 1
    13   15   13 ar
    14   16   15 1
    15   17   15 ar
    16   18   17 ar
    17   19   18 1
    18   20   12 ar
    19   21   20 1
    20   22   17 1
    21   23   22 2
    22   24   23 1
    23   25   24 ar
    24   26   25 1
    25   27   25 ar
    26   28   27 1
    27   29   27 ar
    28   30   29 1
    29   31   29 ar
    30   32   31 1
    31   33   24 ar
    32   34   33 1
    33   35   23 1
    34   36   35 ar
    35   37   36 1
    36   38   36 ar
    37   39   38 1
    38   40   38 ar
    39   41   40 1
    40   42   40 ar
    41   43   42 1
    42   44   35 ar
    43   45   44 1
    44   46   22 1
    45   47   46 ar
    46   48   47 1
    47   49   47 ar
    48   50   49 1
    49   51   49 ar
    50   52   51 1
    51   53   51 ar
    52   54   53 1
    53   55   46 ar
    54   56   55 1
    55   57    1 1
    56   58   63 1
    57   59    6 1
    58   60   59 1
    59   61   57 2
    60   62   57 2
    61   63    8 2
    62   64    7 2
    63    7    8 1
    64    9   59 1
    65   18   20 ar
    66   31   33 ar
    67   42   44 ar
    68   53   55 ar
    69   58   64 1
@<TRIPOS>SUBSTRUCTURE
     1 RES1 1

@<TRIPOS>CRYSIN
  22.8540    9.0152   13.1970  90.0000  96.2660  90.0000  14 1

