# MOL2 file generated by ConQuest
# Please check atom types

@<TRIPOS>MOLECULE
SAVTOA
    40    43     1
SMALL
NO_CHARGES
****
Generated from CSD

@<TRIPOS>ATOM
      1 N1         5.9924    5.1355    6.0792 N.pl3     1 RES1    0.0000
      2 N2         5.5839    5.5020    7.3544 N.2       1 RES1    0.0000
      3 N3         4.9545    4.8506    3.9259 N.ar      1 RES1    0.0000
      4 N4         1.3595    5.6173    3.2103 N.pl3     1 RES1    0.0000
      5 O1         0.9937    4.6751    2.5102 O.2       1 RES1    0.0000
      6 O2         0.7007    6.6364    3.3937 O.2       1 RES1    0.0000
      7 O3         2.8736    6.4032    0.9640 O.3       1 RES1    0.0000
      8 C1         4.9349    5.2100    5.2158 C.ar      1 RES1    0.0000
      9 C2         3.8284    5.6757    5.9466 C.ar      1 RES1    0.0000
     10 C3         4.3028    5.8301    7.2878 C.2       1 RES1    0.0000
     11 C4         2.6371    5.8649    5.2516 C.ar      1 RES1    0.0000
     12 H1         1.8635    6.2254    5.6693 H         1 RES1    0.0000
     13 C5         2.6424    5.4996    3.9201 C.ar      1 RES1    0.0000
     14 C6         3.7922    4.9633    3.2711 C.ar      1 RES1    0.0000
     15 C7         3.5347    6.2768    8.4909 C.3       1 RES1    0.0000
     16 H2         2.8591    5.6026    8.7162 H         1 RES1    0.0000
     17 H3         3.0924    7.1302    8.2987 H         1 RES1    0.0000
     18 H4         4.1485    6.3899    9.2474 H         1 RES1    0.0000
     19 C8         7.3514    4.8192    5.8010 C.ar      1 RES1    0.0000
     20 C9         7.8958    5.1684    4.5627 C.ar      1 RES1    0.0000
     21 H5         7.3727    5.6420    3.9257 H         1 RES1    0.0000
     22 C10        9.2052    4.8195    4.2685 C.ar      1 RES1    0.0000
     23 H6         9.5718    5.0327    3.4191 H         1 RES1    0.0000
     24 C11        9.9833    4.1593    5.2107 C.ar      1 RES1    0.0000
     25 H7        10.8785    3.9164    5.0054 H         1 RES1    0.0000
     26 C12        9.4484    3.8565    6.4534 C.ar      1 RES1    0.0000
     27 H8         9.9883    3.4262    7.1054 H         1 RES1    0.0000
     28 C13        8.1294    4.1762    6.7537 C.ar      1 RES1    0.0000
     29 H9         7.7638    3.9566    7.6033 H         1 RES1    0.0000
     30 C14        3.8196    4.4304    1.8820 C.ar      1 RES1    0.0000
     31 C15        4.4040    3.1723    1.6971 C.ar      1 RES1    0.0000
     32 H10        4.7419    2.6985    2.4477 H         1 RES1    0.0000
     33 C16        4.4960    2.6082    0.4336 C.ar      1 RES1    0.0000
     34 H11        4.8719    1.7433    0.3215 H         1 RES1    0.0000
     35 C17        4.0337    3.3193   -0.6658 C.ar      1 RES1    0.0000
     36 H12        4.1033    2.9410   -1.5339 H         1 RES1    0.0000
     37 C18        3.4712    4.5769   -0.5068 C.ar      1 RES1    0.0000
     38 H13        3.1582    5.0562   -1.2649 H         1 RES1    0.0000
     39 C19        3.3634    5.1400    0.7642 C.ar      1 RES1    0.0000
     40 H14        2.5018    6.6560    0.2411 H         1 RES1    0.0000
@<TRIPOS>BOND
     1    1    2 1
     2    2   10 2
     3    3    8 ar
     4    4    5 2
     5    6    4 2
     6    7   39 1
     7    8    1 1
     8    9    8 ar
     9   10    9 1
    10   11    9 ar
    11   12   11 1
    12   13    4 1
    13   14    3 ar
    14   15   10 1
    15   16   15 1
    16   17   15 1
    17   18   15 1
    18   19    1 1
    19   20   19 ar
    20   21   20 1
    21   22   20 ar
    22   23   22 1
    23   24   22 ar
    24   25   24 1
    25   26   24 ar
    26   27   26 1
    27   28   19 ar
    28   29   28 1
    29   30   14 1
    30   31   30 ar
    31   32   31 1
    32   33   31 ar
    33   34   33 1
    34   35   33 ar
    35   36   35 1
    36   37   35 ar
    37   38   37 1
    38   39   30 ar
    39   40    7 1
    40   11   13 ar
    41   13   14 ar
    42   26   28 ar
    43   37   39 ar
@<TRIPOS>SUBSTRUCTURE
     1 RES1 1

@<TRIPOS>CRYSIN
  11.1798    8.3934   17.7153  90.0000  99.5280  90.0000 231 1

