# MOL2 file generated by ConQuest
# Please check atom types

@<TRIPOS>MOLECULE
SAVVAO
    36    38     1
SMALL
NO_CHARGES
****
Generated from CSD

@<TRIPOS>ATOM
      1 N1         4.1680    0.2724    3.5120 N.ar      1 RES1    0.0000
      2 N2         3.0222   -2.8260    5.9388 N.am      1 RES1    0.0000
      3 N3         4.7392    3.0167    5.9816 N.pl3     1 RES1    0.0000
      4 N4         3.5027   -1.9322    3.7956 N.am      1 RES1    0.0000
      5 O1         2.9032   -1.4662    7.7747 O.2       1 RES1    0.0000
      6 O2         2.9048   -4.0983    4.0557 O.2       1 RES1    0.0000
      7 O3         5.7660    3.5461    5.5783 O.2       1 RES1    0.0000
      8 O4         4.0260    3.4697    6.8756 O.2       1 RES1    0.0000
      9 O5         3.4399    4.1234    3.9185 O.3       1 RES1    0.0000
     10 C1         4.4551    1.4903    4.0016 C.ar      1 RES1    0.0000
     11 C2         4.3432    1.7307    5.3891 C.ar      1 RES1    0.0000
     12 C3         3.8970    0.7545    6.2457 C.ar      1 RES1    0.0000
     13 H1         3.7915    0.9330    7.1723 H         1 RES1    0.0000
     14 C4         3.6034   -0.5018    5.7238 C.ar      1 RES1    0.0000
     15 C5         3.7747   -0.6883    4.3498 C.ar      1 RES1    0.0000
     16 C6         3.1456   -1.5948    6.5826 C.2       1 RES1    0.0000
     17 C7         3.1339   -3.0067    4.5699 C.2       1 RES1    0.0000
     18 C8         2.6606   -4.0012    6.7542 C.3       1 RES1    0.0000
     19 H2         1.7106   -4.2064    6.6285 H         1 RES1    0.0000
     20 H3         2.8302   -3.8077    7.6992 H         1 RES1    0.0000
     21 H4         3.1999   -4.7699    6.4765 H         1 RES1    0.0000
     22 C9         3.4931   -2.1162    2.3305 C.3       1 RES1    0.0000
     23 H5         4.1607   -2.7891    2.0806 H         1 RES1    0.0000
     24 H6         3.7068   -1.2656    1.8931 H         1 RES1    0.0000
     25 H7         2.6048   -2.4164    2.0451 H         1 RES1    0.0000
     26 C10        4.8598    2.4794    2.9787 C.ar      1 RES1    0.0000
     27 C11        4.3450    3.7846    2.9544 C.ar      1 RES1    0.0000
     28 C12        4.7213    4.6665    1.9392 C.ar      1 RES1    0.0000
     29 H8         4.3721    5.5500    1.9252 H         1 RES1    0.0000
     30 C13        5.6036    4.2549    0.9533 C.ar      1 RES1    0.0000
     31 H9         5.8682    4.8631    0.2736 H         1 RES1    0.0000
     32 C14        6.1039    2.9610    0.9508 C.ar      1 RES1    0.0000
     33 H10        6.7025    2.6808    0.2685 H         1 RES1    0.0000
     34 C15        5.7242    2.0784    1.9506 C.ar      1 RES1    0.0000
     35 H11        6.0552    1.1876    1.9387 H         1 RES1    0.0000
     36 H12        3.3363    5.0126    3.9366 H         1 RES1    0.0000
@<TRIPOS>BOND
     1    1   10 ar
     2    2   16 1
     3    3    7 2
     4    4   15 1
     5    5   16 2
     6    6   17 2
     7    8    3 2
     8    9   27 1
     9   10   11 ar
    10   11    3 1
    11   12   11 ar
    12   13   12 1
    13   14   12 ar
    14   15    1 ar
    15   16   14 1
    16   17    2 1
    17   18    2 1
    18   19   18 1
    19   20   18 1
    20   21   18 1
    21   22    4 1
    22   23   22 1
    23   24   22 1
    24   25   22 1
    25   26   10 1
    26   27   26 ar
    27   28   27 ar
    28   29   28 1
    29   30   28 ar
    30   31   30 1
    31   32   30 ar
    32   33   32 1
    33   34   26 ar
    34   35   34 1
    35   36    9 1
    36    4   17 1
    37   14   15 ar
    38   32   34 ar
@<TRIPOS>SUBSTRUCTURE
     1 RES1 1

@<TRIPOS>CRYSIN
   8.2923   10.8357   16.8902  90.0000  90.9250  90.0000 231 1

