# MOL2 file generated by ConQuest
# Please check atom types

@<TRIPOS>MOLECULE
SAVVOC
    76    80     2
SMALL
NO_CHARGES
****
Generated from CSD

@<TRIPOS>ATOM
      1 N1        12.9189    0.6957    0.1488 N.ar      1 RES1    0.0000
      2 N2        16.4268   -0.5297    0.0032 N.pl3     1 RES1    0.0000
      3 O1        17.2705   -0.4331   -0.8811 O.2       1 RES1    0.0000
      4 O2        16.5292   -1.2580    0.9830 O.2       1 RES1    0.0000
      5 O3        15.8694    4.3996   -0.3585 O.3       1 RES1    0.0000
      6 O4        11.2144    5.1708    0.1956 O.3       1 RES1    0.0000
      7 O5        11.3697   -1.1218    1.0878 O.3       1 RES1    0.0000
      8 C1        13.9192   -0.1798    0.0616 C.ar      1 RES1    0.0000
      9 C2        15.2421    0.3299   -0.0939 C.ar      1 RES1    0.0000
     10 C3        15.4970    1.6704   -0.2270 C.ar      1 RES1    0.0000
     11 H1        16.3830    1.9833   -0.3685 H         1 RES1    0.0000
     12 C4        14.4283    2.5696   -0.1505 C.ar      1 RES1    0.0000
     13 C5        13.1262    2.0459    0.0651 C.ar      1 RES1    0.0000
     14 C6        12.0069    2.8970    0.1845 C.ar      1 RES1    0.0000
     15 H2        11.1369    2.5420    0.3249 H         1 RES1    0.0000
     16 C7        12.2090    4.2532    0.0937 C.ar      1 RES1    0.0000
     17 C8        13.4991    4.8158   -0.1076 C.ar      1 RES1    0.0000
     18 H3        13.6053    5.7587   -0.1674 H         1 RES1    0.0000
     19 C9        14.5879    3.9940   -0.2155 C.ar      1 RES1    0.0000
     20 C10       13.5288   -1.6115    0.0717 C.ar      1 RES1    0.0000
     21 C11       14.3454   -2.6104   -0.4814 C.ar      1 RES1    0.0000
     22 H4        15.1641   -2.3630   -0.8944 H         1 RES1    0.0000
     23 C12       13.9864   -3.9491   -0.4403 C.ar      1 RES1    0.0000
     24 H5        14.5561   -4.6086   -0.8185 H         1 RES1    0.0000
     25 C13       12.7880   -4.3184    0.1578 C.ar      1 RES1    0.0000
     26 H6        12.5555   -5.2369    0.2194 H         1 RES1    0.0000
     27 C14       11.9355   -3.3604    0.6617 C.ar      1 RES1    0.0000
     28 H7        11.1094   -3.6211    1.0505 H         1 RES1    0.0000
     29 C15       12.2797   -2.0068    0.6049 C.ar      1 RES1    0.0000
     30 C16       16.1104    5.8114   -0.3458 C.3       1 RES1    0.0000
     31 H8        15.6699    6.2245   -1.1166 H         1 RES1    0.0000
     32 H9        17.0748    5.9786   -0.3924 H         1 RES1    0.0000
     33 H10       15.7522    6.1972    0.4810 H         1 RES1    0.0000
     34 C17        9.8921    4.6496    0.3686 C.3       1 RES1    0.0000
     35 H11        9.6436    4.1223   -0.4191 H         1 RES1    0.0000
     36 H12        9.2612    5.3913    0.4796 H         1 RES1    0.0000
     37 H13        9.8676    4.0786    1.1644 H         1 RES1    0.0000
     38 H14       11.7144   -0.3169    0.8466 H         1 RES1    0.0000
     39 N3         5.9251    7.4596    3.5012 N.ar      2 RES2    0.0000
     40 N4         2.4439    6.1681    3.5388 N.pl3     2 RES2    0.0000
     41 O6         2.3647    5.4517    2.5459 O.2       2 RES2    0.0000
     42 O7         1.5870    6.2298    4.4097 O.2       2 RES2    0.0000
     43 O8         7.5150   11.9801    3.2329 O.3       2 RES2    0.0000
     44 O9         2.8817   11.1245    3.8254 O.3       2 RES2    0.0000
     45 O10        7.5250    5.6228    2.6498 O.3       2 RES2    0.0000
     46 C18        4.9416    6.5664    3.5811 C.ar      2 RES2    0.0000
     47 C19        3.6069    7.0509    3.6586 C.ar      2 RES2    0.0000
     48 C20        3.3164    8.3889    3.7499 C.ar      2 RES2    0.0000
     49 H15        2.4197    8.6832    3.8576 H         2 RES2    0.0000
     50 C21        4.3667    9.3134    3.6805 C.ar      2 RES2    0.0000
     51 C22        5.6815    8.8065    3.5188 C.ar      2 RES2    0.0000
     52 C23        6.7813    9.6786    3.3759 C.ar      2 RES2    0.0000
     53 H16        7.6628    9.3388    3.2754 H         2 RES2    0.0000
     54 C24        6.5441   11.0353    3.3856 C.ar      2 RES2    0.0000
     55 C25        5.2422   11.5748    3.5511 C.ar      2 RES2    0.0000
     56 H17        5.1121   12.5159    3.5609 H         2 RES2    0.0000
     57 C26        4.1738   10.7314    3.6959 C.ar      2 RES2    0.0000
     58 C27        5.3495    5.1400    3.6306 C.ar      2 RES2    0.0000
     59 C28        6.6168    4.7408    3.1425 C.ar      2 RES2    0.0000
     60 C29        6.9756    3.3901    3.1450 C.ar      2 RES2    0.0000
     61 H18        7.8106    3.1225    2.7803 H         2 RES2    0.0000
     62 C30        6.1249    2.4451    3.6741 C.ar      2 RES2    0.0000
     63 H19        6.3707    1.5271    3.6565 H         2 RES2    0.0000
     64 C31        4.9120    2.8208    4.2331 C.ar      2 RES2    0.0000
     65 H20        4.3441    2.1704    4.6297 H         2 RES2    0.0000
     66 C32        4.5364    4.1551    4.2075 C.ar      2 RES2    0.0000
     67 H21        3.7057    4.4092    4.5917 H         2 RES2    0.0000
     68 C33        8.8421   11.4974    3.0014 C.3       2 RES2    0.0000
     69 H22        9.1713   11.0462    3.8070 H         2 RES2    0.0000
     70 H23        9.4303   12.2509    2.7860 H         2 RES2    0.0000
     71 H24        8.8345   10.8645    2.2530 H         2 RES2    0.0000
     72 C34        2.6318   12.5346    3.8439 C.3       2 RES2    0.0000
     73 H25        3.1373   12.9462    4.5748 H         2 RES2    0.0000
     74 H26        1.6746   12.6949    3.9785 H         2 RES2    0.0000
     75 H27        2.9118   12.9271    2.9913 H         2 RES2    0.0000
     76 H28        7.1782    6.4226    2.8577 H         2 RES2    0.0000
@<TRIPOS>BOND
     1    1    8 ar
     2    2    3 2
     3    4    2 2
     4    5   19 1
     5    6   16 1
     6    7   29 1
     7    8    9 ar
     8    9    2 1
     9   10    9 ar
    10   11   10 1
    11   12   10 ar
    12   13    1 ar
    13   14   13 ar
    14   15   14 1
    15   16   14 ar
    16   17   16 ar
    17   18   17 1
    18   19   12 ar
    19   20    8 1
    20   21   20 ar
    21   22   21 1
    22   23   21 ar
    23   24   23 1
    24   25   23 ar
    25   26   25 1
    26   27   25 ar
    27   28   27 1
    28   29   20 ar
    29   30    5 1
    30   31   30 1
    31   32   30 1
    32   33   30 1
    33   34    6 1
    34   35   34 1
    35   36   34 1
    36   37   34 1
    37   38    7 1
    38   39   46 ar
    39   40   41 2
    40   42   40 2
    41   43   54 1
    42   44   57 1
    43   45   59 1
    44   46   47 ar
    45   47   40 1
    46   48   47 ar
    47   49   48 1
    48   50   48 ar
    49   51   39 ar
    50   52   51 ar
    51   53   52 1
    52   54   52 ar
    53   55   54 ar
    54   56   55 1
    55   57   50 ar
    56   58   46 1
    57   59   58 ar
    58   60   59 ar
    59   61   60 1
    60   62   60 ar
    61   63   62 1
    62   64   62 ar
    63   65   64 1
    64   66   58 ar
    65   67   66 1
    66   68   43 1
    67   69   68 1
    68   70   68 1
    69   71   68 1
    70   72   44 1
    71   73   72 1
    72   74   72 1
    73   75   72 1
    74   76   45 1
    75   12   13 ar
    76   17   19 ar
    77   27   29 ar
    78   50   51 ar
    79   55   57 ar
    80   64   66 ar
@<TRIPOS>SUBSTRUCTURE
     1 RES1 1
     2 RES2 39

@<TRIPOS>CRYSIN
  15.2372   13.6592   14.0634  90.0000  90.0000  90.0000  29 1

