# MOL2 file generated by ConQuest
# Please check atom types

@<TRIPOS>MOLECULE
SAWDUP
    59    64     1
SMALL
NO_CHARGES
****
Generated from CSD

@<TRIPOS>ATOM
      1 O1         0.0798   13.0140    8.1636 O.2       1 RES1    0.0000
      2 O2        -0.9780   11.4725    9.2243 O.2       1 RES1    0.0000
      3 O3         2.8052   13.1514   14.0598 O.2       1 RES1    0.0000
      4 O4         3.1730   12.3623   16.0394 O.2       1 RES1    0.0000
      5 N1         4.5147    7.4594    9.2073 N.am      1 RES1    0.0000
      6 N2         4.5849    8.7876    8.6982 N.3       1 RES1    0.0000
      7 N3         6.3200    6.9374   13.5437 N.2       1 RES1    0.0000
      8 N4         5.9476    7.9164   12.6234 N.pl3     1 RES1    0.0000
      9 N5        -0.0076   11.9516    8.6968 N.pl3     1 RES1    0.0000
     10 N6         3.2740   12.3303   14.8284 N.pl3     1 RES1    0.0000
     11 O5         4.3911    6.3153    7.2164 O.2       1 RES1    0.0000
     12 C1         4.4458    6.3442    8.4869 C.2       1 RES1    0.0000
     13 C2         4.3830    5.2164    9.4030 C.ar      1 RES1    0.0000
     14 C3         4.2856    3.8540    9.1917 C.ar      1 RES1    0.0000
     15 C4         4.1870    3.0346   10.2793 C.ar      1 RES1    0.0000
     16 C5         4.1308    3.5563   11.5527 C.ar      1 RES1    0.0000
     17 C6         4.2045    4.9255   11.7924 C.ar      1 RES1    0.0000
     18 C7         4.3826    5.7320   10.6892 C.ar      1 RES1    0.0000
     19 C8         4.6012    7.2251   10.6509 C.3       1 RES1    0.0000
     20 C9         5.9881    7.6970   11.1585 C.3       1 RES1    0.0000
     21 C10        7.1051    6.7487   10.7842 C.ar      1 RES1    0.0000
     22 C11        7.6211    6.7031    9.5093 C.ar      1 RES1    0.0000
     23 C12        8.5547    5.6996    9.1889 C.ar      1 RES1    0.0000
     24 C13        8.9391    4.8132   10.1120 C.ar      1 RES1    0.0000
     25 C14        8.4726    4.8519   11.3726 C.ar      1 RES1    0.0000
     26 C15        7.5407    5.8173   11.7555 C.ar      1 RES1    0.0000
     27 C16        7.0284    6.0160   13.0899 C.2       1 RES1    0.0000
     28 C17        5.2613    9.0147   13.1296 C.ar      1 RES1    0.0000
     29 C18        4.7297   10.0084   12.3284 C.ar      1 RES1    0.0000
     30 C19        4.0549   11.1093   12.8786 C.ar      1 RES1    0.0000
     31 C20        3.9888   11.1652   14.2626 C.ar      1 RES1    0.0000
     32 C21        4.4617   10.2308   15.0454 C.ar      1 RES1    0.0000
     33 C22        5.1280    9.1175   14.5462 C.ar      1 RES1    0.0000
     34 C23        3.4336    9.5299    8.7337 C.ar      1 RES1    0.0000
     35 C24        2.2258    9.0229    9.1676 C.ar      1 RES1    0.0000
     36 C25        1.1084    9.8595    9.1974 C.ar      1 RES1    0.0000
     37 C26        1.2427   11.1161    8.6996 C.ar      1 RES1    0.0000
     38 C27        2.4369   11.6578    8.3338 C.ar      1 RES1    0.0000
     39 C28        3.5597   10.8616    8.3267 C.ar      1 RES1    0.0000
     40 H1         5.5832    8.4191    8.5366 H         1 RES1    0.0000
     41 H2         4.2867    3.4463    8.1962 H         1 RES1    0.0000
     42 H3         4.1528    1.9657   10.1390 H         1 RES1    0.0000
     43 H4         4.0242    2.8823   12.3936 H         1 RES1    0.0000
     44 H5         4.1243    5.3297   12.7907 H         1 RES1    0.0000
     45 H6         3.9089    7.7543   11.2876 H         1 RES1    0.0000
     46 H7         6.2072    8.6270   10.6636 H         1 RES1    0.0000
     47 H8         7.3176    7.4248    8.7635 H         1 RES1    0.0000
     48 H9         8.9657    5.6521    8.1962 H         1 RES1    0.0000
     49 H10        9.6442    4.0501    9.8412 H         1 RES1    0.0000
     50 H11        8.8240    4.1259   12.0958 H         1 RES1    0.0000
     51 H12        7.2970    5.2510   13.7975 H         1 RES1    0.0000
     52 H13        4.8348    9.9396   11.2592 H         1 RES1    0.0000
     53 H14        3.6120   11.8762   12.2518 H         1 RES1    0.0000
     54 H15        4.3277   10.3250   16.1089 H         1 RES1    0.0000
     55 H16        5.1292    8.3622   15.2013 H         1 RES1    0.0000
     56 H17        2.1483    7.9891    9.4725 H         1 RES1    0.0000
     57 H18        0.1569    9.5025    9.5576 H         1 RES1    0.0000
     58 H19        2.4932   12.6834    7.9977 H         1 RES1    0.0000
     59 H20        4.5117   11.2577    8.0119 H         1 RES1    0.0000
@<TRIPOS>BOND
     1    1    9 2
     2    2    9 2
     3    3   10 2
     4    4   10 2
     5    5    6 1
     6    6   34 1
     7    7    8 1
     8    8   20 1
     9    9   37 1
    10   10   31 1
    11   11   12 2
    12   12    5 1
    13   13   12 1
    14   14   13 ar
    15   15   14 ar
    16   16   15 ar
    17   17   16 ar
    18   18   13 ar
    19   19    5 1
    20   20   19 1
    21   21   20 1
    22   22   21 ar
    23   23   22 ar
    24   24   23 ar
    25   25   24 ar
    26   26   21 ar
    27   27    7 2
    28   28    8 1
    29   29   28 ar
    30   30   29 ar
    31   31   30 ar
    32   32   31 ar
    33   33   28 ar
    34   34   35 ar
    35   35   36 ar
    36   36   37 ar
    37   37   38 ar
    38   38   39 ar
    39   39   34 ar
    40   40    6 1
    41   41   14 1
    42   42   15 1
    43   43   16 1
    44   44   17 1
    45   45   19 1
    46   46   20 1
    47   47   22 1
    48   48   23 1
    49   49   24 1
    50   50   25 1
    51   51   27 1
    52   52   29 1
    53   53   30 1
    54   54   32 1
    55   55   33 1
    56   56   35 1
    57   57   36 1
    58   58   38 1
    59   59   39 1
    60   17   18 ar
    61   18   19 1
    62   25   26 ar
    63   26   27 1
    64   32   33 ar
@<TRIPOS>SUBSTRUCTURE
     1 RES1 1

@<TRIPOS>CRYSIN
   8.0780   10.9660   15.0820  71.0500  82.4100  84.7200   2 1

