# MOL2 file generated by ConQuest
# Please check atom types

@<TRIPOS>MOLECULE
SAWGAA
    42    43     1
SMALL
NO_CHARGES
****
Generated from CSD

@<TRIPOS>ATOM
      1 O1         0.7206    8.2490    7.8145 O.3       1 RES1    0.0000
      2 O2        -1.5861    8.1983    5.8002 O.3       1 RES1    0.0000
      3 O3        -3.3132    7.1484    3.0883 O.3       1 RES1    0.0000
      4 O4        -4.1004    4.4523    6.4626 O.3       1 RES1    0.0000
      5 O5        -3.2068    4.4986    4.3990 O.2       1 RES1    0.0000
      6 O6        -1.1020    7.5416    3.0826 O.2       1 RES1    0.0000
      7 N1        -1.5561    7.8220    7.2317 N.3       1 RES1    0.0000
      8 C1        -2.2066    7.1759    5.1473 C.2       1 RES1    0.0000
      9 C2        -1.7970    5.6656    8.2789 C.3       1 RES1    0.0000
     10 H1        -2.3518    5.4241    9.0625 H         1 RES1    0.0000
     11 H2        -1.5913    4.8423    7.7690 H         1 RES1    0.0000
     12 C3        -2.7323    6.2467    5.9410 C.2       1 RES1    0.0000
     13 C4        -3.3485    4.9941    5.4900 C.2       1 RES1    0.0000
     14 C5        -2.1258    7.3058    3.6580 C.2       1 RES1    0.0000
     15 C6        -2.5349    6.6885    7.3843 C.3       1 RES1    0.0000
     16 C7        -0.2227    7.2528    7.5157 C.3       1 RES1    0.0000
     17 H3         0.0903    6.6989    6.7441 H         1 RES1    0.0000
     18 C8         1.2680    8.8964    6.6727 C.3       1 RES1    0.0000
     19 H4         1.9141    9.5747    6.9602 H         1 RES1    0.0000
     20 H5         0.5490    9.3258    6.1642 H         1 RES1    0.0000
     21 H6         1.7181    8.2351    6.1068 H         1 RES1    0.0000
     22 C9        -0.4978    6.3634    8.7295 C.3       1 RES1    0.0000
     23 C10       -0.7147    7.2070    9.9950 C.3       1 RES1    0.0000
     24 H7         0.1294    7.6340   10.2519 H         1 RES1    0.0000
     25 H8        -1.0232    6.6289   10.7238 H         1 RES1    0.0000
     26 H9        -1.3881    7.8964    9.8168 H         1 RES1    0.0000
     27 C11        0.6454    5.3823    8.9504 C.3       1 RES1    0.0000
     28 H10        1.4455    5.8717    9.2350 H         1 RES1    0.0000
     29 H11        0.8328    4.9058    8.1149 H         1 RES1    0.0000
     30 H12        0.3926    4.7374    9.6443 H         1 RES1    0.0000
     31 C12       -3.3116    7.2715    1.6413 C.3       1 RES1    0.0000
     32 H13       -4.2221    7.1427    1.3014 H         1 RES1    0.0000
     33 H14       -2.7199    6.5915    1.2558 H         1 RES1    0.0000
     34 H15       -2.9927    8.1632    1.3897 H         1 RES1    0.0000
     35 C13       -3.8350    7.2216    7.9795 C.3       1 RES1    0.0000
     36 H16       -4.2414    7.8600    7.3576 H         1 RES1    0.0000
     37 H17       -3.6447    7.6696    8.8296 H         1 RES1    0.0000
     38 H18       -4.4526    6.4771    8.1338 H         1 RES1    0.0000
     39 C14       -4.7377    3.1897    6.1372 C.3       1 RES1    0.0000
     40 H19       -5.2593    2.8793    6.9067 H         1 RES1    0.0000
     41 H20       -4.0517    2.5248    5.9184 H         1 RES1    0.0000
     42 H21       -5.3312    3.3119    5.3673 H         1 RES1    0.0000
@<TRIPOS>BOND
     1    1   16 1
     2    2    7 1
     3    3   14 1
     4    4   13 1
     5    5   13 2
     6    6   14 2
     7    7   15 1
     8    8    2 1
     9    9   10 1
    10   11    9 1
    11   12    8 2
    12   13   12 1
    13   14    8 1
    14   15    9 1
    15   16    7 1
    16   17   16 1
    17   18    1 1
    18   19   18 1
    19   20   18 1
    20   21   18 1
    21   22    9 1
    22   23   22 1
    23   24   23 1
    24   25   23 1
    25   26   23 1
    26   27   22 1
    27   28   27 1
    28   29   27 1
    29   30   27 1
    30   31    3 1
    31   32   31 1
    32   33   31 1
    33   34   31 1
    34   35   15 1
    35   36   35 1
    36   37   35 1
    37   38   35 1
    38   39    4 1
    39   40   39 1
    40   41   39 1
    41   42   39 1
    42   12   15 1
    43   16   22 1
@<TRIPOS>SUBSTRUCTURE
     1 RES1 1

@<TRIPOS>CRYSIN
   8.1435    9.4804   10.0139  90.6680  97.8970 100.4250   2 1

