# MOL2 file generated by ConQuest
# Please check atom types

@<TRIPOS>MOLECULE
SAWJUW
    13    13     1
SMALL
NO_CHARGES
****
Generated from CSD

@<TRIPOS>ATOM
      1 O1         2.6494    2.5144    0.5709 O.3       1 RES1    0.0000
      2 N1         4.0278    5.7036    3.7737 N.3       1 RES1    0.0000
      3 N2         4.7767    4.7058    3.2588 N.2       1 RES1    0.0000
      4 N3         3.9885    2.2025    0.7908 N.2       1 RES1    0.0000
      5 C1         3.9859    4.1215    2.3408 C.2       1 RES1    0.0000
      6 C2         2.7290    4.7460    2.2831 C.2       1 RES1    0.0000
      7 C3         2.8060    5.7576    3.2156 C.2       1 RES1    0.0000
      8 C4         4.5510    2.9962    1.6165 C.2       1 RES1    0.0000
      9 H1         4.3467    6.3244    4.3912 H         1 RES1    0.0000
     10 H2         2.0686    4.5953    1.6445 H         1 RES1    0.0000
     11 H3         2.2467    6.4249    3.3415 H         1 RES1    0.0000
     12 H4         5.5198    2.7392    1.6270 H         1 RES1    0.0000
     13 H5         2.3043    1.7926    0.0875 H         1 RES1    0.0000
@<TRIPOS>BOND
     1    1    4 1
     2    2    3 1
     3    3    5 2
     4    4    8 2
     5    5    6 1
     6    6    7 2
     7    7    2 1
     8    8    5 1
     9    9    2 1
    10   10    6 1
    11   11    7 1
    12   12    8 1
    13   13    1 1
@<TRIPOS>SUBSTRUCTURE
     1 RES1 1

@<TRIPOS>CRYSIN
   5.2370    5.2880   17.4950  90.0000  90.0000  90.0000  19 1

