# MOL2 file generated by ConQuest
# Please check atom types

@<TRIPOS>MOLECULE
SAWMUA
    19    21     1
SMALL
NO_CHARGES
****
Generated from CSD

@<TRIPOS>ATOM
      1 O1         1.3987   12.5080    4.0251 O.3       1 RES1    0.0000
      2 N1         0.3090   11.6831    4.3193 N.2       1 RES1    0.0000
      3 C1        -0.0713   11.2143    3.1438 C.2       1 RES1    0.0000
      4 C2         0.7196   11.6884    2.0740 C.2       1 RES1    0.0000
      5 C3         1.5741   12.4983    2.6982 C.2       1 RES1    0.0000
      6 N2         2.6307   13.3337    2.2134 N.pl3     1 RES1    0.0000
      7 O2         3.5391   13.6076    2.9705 O.2       1 RES1    0.0000
      8 O3         2.5465   13.6741    1.0513 O.2       1 RES1    0.0000
      9 C4        -1.2075   10.3121    2.8808 C.2       1 RES1    0.0000
     10 O4        -2.0274    9.9723    3.6924 O.2       1 RES1    0.0000
     11 C5        -1.2710    9.9729    1.4105 C.3       1 RES1    0.0000
     12 H1        -1.8229    9.1790    1.2492 H         1 RES1    0.0000
     13 O5         0.0126    9.8269    0.8573 O.3       1 RES1    0.0000
     14 C6         0.4484   11.1957    0.6986 C.3       1 RES1    0.0000
     15 H2         1.2303   11.2723    0.1129 H         1 RES1    0.0000
     16 C7        -0.7827   11.8247    0.0996 C.3       1 RES1    0.0000
     17 H3        -0.8111   12.7793    0.2703 H         1 RES1    0.0000
     18 H4        -0.8304   11.6682   -0.8567 H         1 RES1    0.0000
     19 O6        -1.8341   11.1339    0.7976 O.3       1 RES1    0.0000
@<TRIPOS>BOND
     1    1    2 1
     2    2    3 2
     3    3    4 1
     4    4    5 2
     5    5    1 1
     6    6    5 1
     7    7    6 2
     8    8    6 2
     9    9    3 1
    10   10    9 2
    11   11    9 1
    12   12   11 1
    13   13   11 1
    14   14    4 1
    15   15   14 1
    16   16   14 1
    17   17   16 1
    18   18   16 1
    19   19   11 1
    20   13   14 1
    21   16   19 1
@<TRIPOS>SUBSTRUCTURE
     1 RES1 1

@<TRIPOS>CRYSIN
   5.7868   10.6423    6.8148  90.0000 102.9700  90.0000   4 1

