# MOL2 file generated by ConQuest
# Please check atom types

@<TRIPOS>MOLECULE
SAWMOU
    18    18     1
SMALL
NO_CHARGES
****
Generated from CSD

@<TRIPOS>ATOM
      1 O1        -0.1837    7.9150    2.8841 O.3       1 RES1    0.0000
      2 N1        -0.2257    7.2138    4.0942 N.2       1 RES1    0.0000
      3 C1         0.9372    6.6154    4.1601 C.2       1 RES1    0.0000
      4 C2         1.3157    5.7916    5.3653 C.2       1 RES1    0.0000
      5 O2         2.3340    5.1506    5.3069 O.2       1 RES1    0.0000
      6 C3         0.4748    5.8924    6.5663 C.3       1 RES1    0.0000
      7 H1        -0.4231    5.5973    6.3478 H         1 RES1    0.0000
      8 H2         0.4237    6.8221    6.8373 H         1 RES1    0.0000
      9 C4         0.9940    5.0675    7.7297 C.3       1 RES1    0.0000
     10 H3         0.9566    4.1346    7.5029 H         1 RES1    0.0000
     11 H4         0.4514    5.2306    8.5045 H         1 RES1    0.0000
     12 H5         1.9026    5.3148    7.9174 H         1 RES1    0.0000
     13 C5         1.7556    6.8699    3.0484 C.2       1 RES1    0.0000
     14 H6         2.6070    6.5375    2.8791 H         1 RES1    0.0000
     15 C6         1.0183    7.7166    2.2727 C.2       1 RES1    0.0000
     16 N2         1.2058    8.3212    1.1109 N.3       1 RES1    0.0000
     17 H7         2.0367    8.3108    0.6839 H         1 RES1    0.0000
     18 H8         0.5952    8.9237    0.7339 H         1 RES1    0.0000
@<TRIPOS>BOND
     1    1    2 1
     2    2    3 2
     3    3    4 1
     4    4    5 2
     5    6    4 1
     6    7    6 1
     7    8    6 1
     8    9    6 1
     9   10    9 1
    10   11    9 1
    11   12    9 1
    12   13    3 1
    13   14   13 1
    14   15    1 1
    15   16   15 1
    16   17   16 1
    17   18   16 1
    18   13   15 2
@<TRIPOS>SUBSTRUCTURE
     1 RES1 1

@<TRIPOS>CRYSIN
   7.8092   10.3885    8.3766  90.0000  95.3400  90.0000 231 1

