# MOL2 file generated by ConQuest
# Please check atom types

@<TRIPOS>MOLECULE
SAWNIP
    18    18     1
SMALL
NO_CHARGES
****
Generated from CSD

@<TRIPOS>ATOM
      1 O1        -0.6926    2.7365    6.3983 O.3       1 RES1    0.0000
      2 N1         0.5613    2.5576    5.8073 N.2       1 RES1    0.0000
      3 C1         0.3565    1.8058    4.7445 C.2       1 RES1    0.0000
      4 C2         1.5041    1.3896    3.8748 C.2       1 RES1    0.0000
      5 O2         1.3136    0.4902    3.0831 O.2       1 RES1    0.0000
      6 C3         2.8021    2.1138    4.0344 C.3       1 RES1    0.0000
      7 H1         3.1287    1.9853    4.9602 H         1 RES1    0.0000
      8 H2         2.6467    3.0820    3.9018 H         1 RES1    0.0000
      9 C4         3.8705    1.6553    3.0715 C.3       1 RES1    0.0000
     10 H3         4.0938    0.7177    3.2530 H         1 RES1    0.0000
     11 H4         4.6707    2.2097    3.1837 H         1 RES1    0.0000
     12 H5         3.5404    1.7401    2.1528 H         1 RES1    0.0000
     13 C5        -1.0132    1.4609    4.5806 C.2       1 RES1    0.0000
     14 H6        -1.4219    0.9332    3.9044 H         1 RES1    0.0000
     15 C6        -1.5763    2.0764    5.6328 C.2       1 RES1    0.0000
     16 N2        -2.9485    2.1366    6.0789 N.pl3     1 RES1    0.0000
     17 O3        -3.1934    2.7970    7.0815 O.2       1 RES1    0.0000
     18 O4        -3.7576    1.5087    5.4099 O.2       1 RES1    0.0000
@<TRIPOS>BOND
     1    1    2 1
     2    2    3 2
     3    3    4 1
     4    4    5 2
     5    6    4 1
     6    7    6 1
     7    8    6 1
     8    9    6 1
     9   10    9 1
    10   11    9 1
    11   12    9 1
    12   13    3 1
    13   14   13 1
    14   15    1 1
    15   16   15 1
    16   17   16 2
    17   18   16 2
    18   13   15 2
@<TRIPOS>SUBSTRUCTURE
     1 RES1 1

@<TRIPOS>CRYSIN
   9.8485   14.8601    5.1876  90.0000  94.7120  90.0000  14 1

