# MOL2 file generated by ConQuest
# Please check atom types

@<TRIPOS>MOLECULE
SAWXEU
    27    27     2
SMALL
USER_CHARGES
****
Generated from CSD

@<TRIPOS>ATOM
      1 N1        10.0907    7.8498    7.4261 N.pl3     1 RES1    1.0000
      2 C1        10.0907    7.8498    7.4261 Du        2 SUP2    0.0000
      3 O1         9.9849    8.8321    8.2089 O.2       1 RES1   -1.0000
      4 C2         9.0949    7.0763    6.9084 C.2       1 RES1    0.0000
      5 C3         9.7408    6.0699    6.0940 C.2       1 RES1    0.0000
      6 N2         9.7408    6.0699    6.0940 Du        2 SUP2    0.0000
      7 O2         9.1953    5.1776    5.4461 O.2       1 RES1    0.0000
      8 C4        12.2545    5.6429    5.5928 C.ar      1 RES1    0.0000
      9 H1        12.1263    4.9065    5.0396 H         1 RES1    0.0000
     10 C5        13.5279    6.1214    5.8730 C.ar      1 RES1    0.0000
     11 H2        14.2694    5.6942    5.5092 H         1 RES1    0.0000
     12 C6        13.7057    7.2176    6.6787 C.ar      1 RES1    0.0000
     13 H3        14.5673    7.5251    6.8413 H         1 RES1    0.0000
     14 C7        12.6293    7.8809    7.2604 C.ar      1 RES1    0.0000
     15 H4        12.7476    8.6190    7.8144 H         1 RES1    0.0000
     16 C8        11.3947    7.3878    6.9739 C.ar      1 RES1    0.0000
     17 C9        11.1957    6.2953    6.1626 C.ar      1 RES1    0.0000
     18 C10        7.6795    7.2546    7.1601 C.ar      1 RES1    0.0000
     19 C11        7.1691    8.4083    7.7425 C.ar      1 RES1    0.0000
     20 H5         7.7363    9.1061    7.9777 H         1 RES1    0.0000
     21 C12        5.8184    8.5084    7.9682 C.ar      1 RES1    0.0000
     22 H6         5.4616    9.2730    8.3605 H         1 RES1    0.0000
     23 C13        5.0053    7.4721    7.6092 C.ar      1 RES1    0.0000
     24 H7         4.0968    7.5412    7.7923 H         1 RES1    0.0000
     25 N3         5.4436    6.3828    7.0173 N.ar      1 RES1    0.0000
     26 C14        6.7581    6.2883    6.7987 C.ar      1 RES1    0.0000
     27 H8         7.0735    5.5226    6.3757 H         1 RES1    0.0000
@<TRIPOS>BOND
     1    1    3 1
     2    4    1 2
     3    5    4 1
     4    7    5 2
     5    8    9 1
     6   10    8 ar
     7   11   10 1
     8   12   10 ar
     9   13   12 1
    10   14   12 ar
    11   15   14 1
    12   16    1 1
    13   17    5 1
    14   18    4 1
    15   19   18 ar
    16   20   19 1
    17   21   19 ar
    18   22   21 1
    19   23   21 ar
    20   24   23 1
    21   25   23 ar
    22   26   18 ar
    23   27   26 1
    24    8   17 ar
    25   14   16 ar
    26   16   17 ar
    27   25   26 ar
@<TRIPOS>SUBSTRUCTURE
     1 RES1 1
     2 SUP2 2

@<TRIPOS>CRYSIN
  23.0934   11.5150    7.8917  90.0000  90.0000  90.0000  61 1

