# MOL2 file generated by ConQuest
# Please check atom types

@<TRIPOS>MOLECULE
SAWXOE
    30    32     1
SMALL
USER_CHARGES
****
Generated from CSD

@<TRIPOS>ATOM
      1 O1         0.4851   15.2372   -0.0391 O.2       1 RES1   -1.0000
      2 N1         1.6337   15.5500    0.4246 N.pl3     1 RES1    1.0000
      3 C1         2.4030   16.5945    0.1336 C.2       1 RES1    0.0000
      4 C2         3.5979   16.4998    1.0123 C.2       1 RES1    0.0000
      5 O2         4.5669   17.2578    1.0615 O.2       1 RES1    0.0000
      6 C3         4.1258   14.7048    2.8997 C.ar      1 RES1    0.0000
      7 H1         4.9439   15.0820    3.2014 H         1 RES1    0.0000
      8 C4         3.6193   13.5655    3.4944 C.ar      1 RES1    0.0000
      9 H2         4.1068   13.1370    4.1887 H         1 RES1    0.0000
     10 C5         2.3863   13.0324    3.0779 C.ar      1 RES1    0.0000
     11 O3         1.9999   11.9207    3.7616 O.3       1 RES1    0.0000
     12 C6         0.6908   11.3954    3.4634 C.3       1 RES1    0.0000
     13 H3         0.5125   10.6194    4.0333 H         1 RES1    0.0000
     14 H4         0.6528   11.1269    2.5223 H         1 RES1    0.0000
     15 H5         0.0166   12.0865    3.6326 H         1 RES1    0.0000
     16 C7         1.6634   13.6070    2.0250 C.ar      1 RES1    0.0000
     17 H6         0.8466   13.2377    1.7101 H         1 RES1    0.0000
     18 C8         2.2115   14.7305    1.4821 C.ar      1 RES1    0.0000
     19 C9         3.4303   15.2874    1.8671 C.ar      1 RES1    0.0000
     20 C10        2.1140   17.6154   -0.8375 C.ar      1 RES1    0.0000
     21 C11        2.8239   18.8278   -0.8142 C.ar      1 RES1    0.0000
     22 H7         3.4909   18.9660   -0.1519 H         1 RES1    0.0000
     23 C12        2.5671   19.8250   -1.7401 C.ar      1 RES1    0.0000
     24 H8         3.0688   20.6306   -1.7193 H         1 RES1    0.0000
     25 C13        1.5873   19.6512   -2.6899 C.ar      1 RES1    0.0000
     26 H9         1.4090   20.3423   -3.3161 H         1 RES1    0.0000
     27 C14        0.8608   18.4744   -2.7392 C.ar      1 RES1    0.0000
     28 H10        0.1986   18.3480   -3.4081 H         1 RES1    0.0000
     29 C15        1.1093   17.4732   -1.7939 C.ar      1 RES1    0.0000
     30 H11        0.5850   16.6814   -1.8046 H         1 RES1    0.0000
@<TRIPOS>BOND
     1    1    2 1
     2    2    3 2
     3    3    4 1
     4    4    5 2
     5    6    7 1
     6    8    6 ar
     7    9    8 1
     8   10    8 ar
     9   11   10 1
    10   12   11 1
    11   13   12 1
    12   14   12 1
    13   15   12 1
    14   16   10 ar
    15   17   16 1
    16   18    2 1
    17   19    4 1
    18   20    3 1
    19   21   20 ar
    20   22   21 1
    21   23   21 ar
    22   24   23 1
    23   25   23 ar
    24   26   25 1
    25   27   25 ar
    26   28   27 1
    27   29   20 ar
    28   30   29 1
    29    6   19 ar
    30   16   18 ar
    31   18   19 ar
    32   27   29 ar
@<TRIPOS>SUBSTRUCTURE
     1 RES1 1

@<TRIPOS>CRYSIN
  11.8900   19.7460    5.0791  90.0000  90.0000  90.0000  33 1

