# MOL2 file generated by ConQuest
# Please check atom types

@<TRIPOS>MOLECULE
SAXBUR
    30    32     1
SMALL
NO_CHARGES
****
Generated from CSD

@<TRIPOS>ATOM
      1 O1         3.3099    3.3511   -0.0609 O.3       1 RES1    0.0000
      2 O2         2.3659    6.7623    2.6734 O.2       1 RES1    0.0000
      3 O3         1.2995    6.8542    0.7683 O.2       1 RES1    0.0000
      4 N1         4.0413    3.3245    1.1759 N.2       1 RES1    0.0000
      5 N2         2.1108    6.3582    1.5434 N.pl3     1 RES1    0.0000
      6 C1         3.7280    4.4292    1.8431 C.2       1 RES1    0.0000
      7 C2         2.8182    5.1593    1.1093 C.2       1 RES1    0.0000
      8 C3         2.5228    4.5500    0.0106 C.2       1 RES1    0.0000
      9 C4         4.3522    4.6199    3.1688 C.ar      1 RES1    0.0000
     10 C5         5.1538    5.7275    3.4194 C.ar      1 RES1    0.0000
     11 H1         5.2441    6.3917    2.7745 H         1 RES1    0.0000
     12 C6         5.8202    5.8431    4.6341 C.ar      1 RES1    0.0000
     13 H2         6.3560    6.5842    4.8013 H         1 RES1    0.0000
     14 C7         5.6851    4.8506    5.5983 C.ar      1 RES1    0.0000
     15 H3         6.1306    4.9275    6.4113 H         1 RES1    0.0000
     16 C8         4.8833    3.7424    5.3477 C.ar      1 RES1    0.0000
     17 H4         4.7936    3.0782    5.9922 H         1 RES1    0.0000
     18 C9         4.2169    3.6274    4.1330 C.ar      1 RES1    0.0000
     19 H5         3.6799    2.8863    3.9653 H         1 RES1    0.0000
     20 C10        1.7419    4.6483   -1.2794 C.ar      1 RES1    0.0000
     21 C11        0.8540    3.6442   -1.6481 C.ar      1 RES1    0.0000
     22 H6         0.7623    2.8863   -1.1174 H         1 RES1    0.0000
     23 C12        0.1033    3.7731   -2.8113 C.ar      1 RES1    0.0000
     24 H7        -0.4910    3.1013   -3.0581 H         1 RES1    0.0000
     25 C13        0.2406    4.9055   -3.6056 C.ar      1 RES1    0.0000
     26 H8        -0.2626    4.9916   -4.3833 H         1 RES1    0.0000
     27 C14        1.1284    5.9102   -3.2369 C.ar      1 RES1    0.0000
     28 H9         1.2211    6.6675   -3.7678 H         1 RES1    0.0000
     29 C15        1.8792    5.7813   -2.0738 C.ar      1 RES1    0.0000
     30 H10        2.4726    6.4530   -1.8271 H         1 RES1    0.0000
@<TRIPOS>BOND
     1    1    4 1
     2    2    5 2
     3    3    5 2
     4    4    6 2
     5    5    7 1
     6    6    7 1
     7    7    8 2
     8    8    1 1
     9    9    6 1
    10   10    9 ar
    11   11   10 1
    12   12   10 ar
    13   13   12 1
    14   14   12 ar
    15   15   14 1
    16   16   14 ar
    17   17   16 1
    18   18    9 ar
    19   19   18 1
    20   20    8 1
    21   21   20 ar
    22   22   21 1
    23   23   21 ar
    24   24   23 1
    25   25   23 ar
    26   26   25 1
    27   27   25 ar
    28   28   27 1
    29   29   20 ar
    30   30   29 1
    31   16   18 ar
    32   27   29 ar
@<TRIPOS>SUBSTRUCTURE
     1 RES1 1

@<TRIPOS>CRYSIN
  18.6157    5.7807   11.6531  90.0000  99.7820  90.0000   5 1

