# MOL2 file generated by ConQuest
# Please check atom types

@<TRIPOS>MOLECULE
SAXHUX
    31    32     1
SMALL
USER_CHARGES
****
Generated from CSD

@<TRIPOS>ATOM
      1 O1         5.8761    0.7569    8.2558 O.2       1 RES1    0.0000
      2 O2         7.8323   -0.3386    4.6412 O.2       1 RES1   -1.0000
      3 N1         6.0725    1.1208    5.9908 N.am      1 RES1    0.0000
      4 C1         6.3975    0.5221    7.1725 C.2       1 RES1    0.0000
      5 N2         8.1117   -0.8235    5.8585 N.pl3     1 RES1    1.0000
      6 N3         9.0196   -1.9798    7.4540 N.3       1 RES1    0.0000
      7 C2         3.3443    3.5860    6.4802 C.ar      1 RES1    0.0000
      8 H1         2.7598    3.9070    7.1570 H         1 RES1    0.0000
      9 N4         1.5731    6.0165    4.7336 N.1       1 RES1    0.0000
     10 C3         2.3332    5.1739    4.9237 C.1       1 RES1    0.0000
     11 C4         3.2734    4.1248    5.2006 C.ar      1 RES1    0.0000
     12 C5         5.0503    2.6763    4.4990 C.ar      1 RES1    0.0000
     13 H2         5.6418    2.3673    3.8233 H         1 RES1    0.0000
     14 C6         4.1374    3.6608    4.2018 C.ar      1 RES1    0.0000
     15 H3         4.0937    4.0234    3.3247 H         1 RES1    0.0000
     16 C7         5.1205    2.1240    5.7810 C.ar      1 RES1    0.0000
     17 C8         4.2526    2.5909    6.7797 C.ar      1 RES1    0.0000
     18 H4         4.2896    2.2249    7.6556 H         1 RES1    0.0000
     19 C9         9.0383   -1.7308    6.1220 C.2       1 RES1    0.0000
     20 H5         9.6164   -2.1373    5.4870 H         1 RES1    0.0000
     21 C10        7.4777   -0.4690    7.0545 C.2       1 RES1    0.0000
     22 C11        8.0653   -1.2094    8.0522 C.2       1 RES1    0.0000
     23 C12        9.9385   -2.8799    8.1569 C.3       1 RES1    0.0000
     24 H6        10.5310   -2.3557    8.7348 H         1 RES1    0.0000
     25 H7        10.4746   -3.3758    7.5031 H         1 RES1    0.0000
     26 H8         9.4240   -3.5105    8.7028 H         1 RES1    0.0000
     27 C13        7.8196   -1.2543    9.5166 C.3       1 RES1    0.0000
     28 H9         8.6372   -1.0008    9.9934 H         1 RES1    0.0000
     29 H10        7.5580   -2.1623    9.7768 H         1 RES1    0.0000
     30 H11        7.1012   -0.6294    9.7461 H         1 RES1    0.0000
     31 H12        6.5591    0.8045    5.2934 H         1 RES1    0.0000
@<TRIPOS>BOND
     1    1    4 2
     2    2    5 1
     3    3    4 1
     4    4   21 1
     5    5   19 2
     6    6   19 1
     7    7    8 1
     8    9   10 3
     9   10   11 1
    10   11    7 ar
    11   12   13 1
    12   14   11 ar
    13   15   14 1
    14   16    3 1
    15   17    7 ar
    16   18   17 1
    17   19   20 1
    18   21    5 1
    19   22    6 1
    20   23    6 1
    21   24   23 1
    22   25   23 1
    23   26   23 1
    24   27   22 1
    25   28   27 1
    26   29   27 1
    27   30   27 1
    28   31    3 1
    29   12   14 ar
    30   12   16 ar
    31   16   17 ar
    32   21   22 2
@<TRIPOS>SUBSTRUCTURE
     1 RES1 1

@<TRIPOS>CRYSIN
   9.6748    9.6231   12.8210  90.0000  91.4280  90.0000  14 1

