# MOL2 file generated by ConQuest
# Please check atom types

@<TRIPOS>MOLECULE
SAYVEV
    48    50     1
SMALL
NO_CHARGES
****
Generated from CSD

@<TRIPOS>ATOM
      1 O1         5.8434    9.4947    4.2039 O.2       1 RES1    0.0000
      2 O2         1.5465    7.9405    6.3283 O.2       1 RES1    0.0000
      3 O3         1.0621   10.2151   -0.5161 O.2       1 RES1    0.0000
      4 O4         0.8967    8.1111   -1.0091 O.2       1 RES1    0.0000
      5 N1         4.8152    4.9154    4.7581 N.pl3     1 RES1    0.0000
      6 N2         1.2098    9.0248   -0.2507 N.pl3     1 RES1    0.0000
      7 C1         5.2772    3.5288    4.6556 C.3       1 RES1    0.0000
      8 H1         4.8212    2.9900    5.3505 H         1 RES1    0.0000
      9 H2         6.2483    3.5037    4.8455 H         1 RES1    0.0000
     10 C2         5.6203    5.9526    4.3296 C.2       1 RES1    0.0000
     11 H3         6.4919    5.7475    4.0116 H         1 RES1    0.0000
     12 C3         5.2277    7.2414    4.3415 C.2       1 RES1    0.0000
     13 C4         3.8001    7.6245    4.7069 C.3       1 RES1    0.0000
     14 H4         3.8261    8.4165    5.3163 H         1 RES1    0.0000
     15 C5         3.1309    6.4730    5.4313 C.2       1 RES1    0.0000
     16 C6         3.6169    5.2101    5.3624 C.2       1 RES1    0.0000
     17 H5         3.1109    4.5033    5.7451 H         1 RES1    0.0000
     18 C7         6.1654    8.3280    4.0058 C.2       1 RES1    0.0000
     19 C8         7.5243    8.0046    3.4184 C.3       1 RES1    0.0000
     20 H6         7.9620    8.8339    3.1330 H         1 RES1    0.0000
     21 H7         7.4144    7.4114    2.6463 H         1 RES1    0.0000
     22 H8         8.0756    7.5608    4.0958 H         1 RES1    0.0000
     23 C9         1.9117    6.7712    6.1886 C.2       1 RES1    0.0000
     24 C10        1.0851    5.6506    6.7713 C.3       1 RES1    0.0000
     25 H9         0.4361    6.0199    7.4076 H         1 RES1    0.0000
     26 H10        1.6729    5.0180    7.2340 H         1 RES1    0.0000
     27 H11        0.6094    5.1874    6.0503 H         1 RES1    0.0000
     28 C11        5.0307    2.8885    3.3079 C.ar      1 RES1    0.0000
     29 C12        5.1734    1.5037    3.1943 C.ar      1 RES1    0.0000
     30 H12        5.3974    0.9897    3.9616 H         1 RES1    0.0000
     31 C13        4.9908    0.8730    1.9724 C.ar      1 RES1    0.0000
     32 H13        5.0888   -0.0697    1.9045 H         1 RES1    0.0000
     33 C14        4.6651    1.6214    0.8510 C.ar      1 RES1    0.0000
     34 H14        4.5314    1.1911    0.0158 H         1 RES1    0.0000
     35 C15        4.5344    2.9994    0.9509 C.ar      1 RES1    0.0000
     36 H15        4.3191    3.5114    0.1815 H         1 RES1    0.0000
     37 C16        4.7167    3.6334    2.1749 C.ar      1 RES1    0.0000
     38 H16        4.6264    4.5774    2.2386 H         1 RES1    0.0000
     39 C17        3.0333    8.0049    3.4392 C.ar      1 RES1    0.0000
     40 C18        2.5431    7.0141    2.5864 C.ar      1 RES1    0.0000
     41 H17        2.6254    6.1007    2.8357 H         1 RES1    0.0000
     42 C19        1.9380    7.3408    1.3800 C.ar      1 RES1    0.0000
     43 H18        1.6183    6.6619    0.7971 H         1 RES1    0.0000
     44 C20        1.8115    8.6764    1.0464 C.ar      1 RES1    0.0000
     45 C21        2.2506    9.6918    1.8795 C.ar      1 RES1    0.0000
     46 H19        2.1319   10.6040    1.6415 H         1 RES1    0.0000
     47 C22        2.8684    9.3434    3.0746 C.ar      1 RES1    0.0000
     48 H20        3.1833   10.0272    3.6538 H         1 RES1    0.0000
@<TRIPOS>BOND
     1    1   18 2
     2    2   23 2
     3    3    6 2
     4    4    6 2
     5    5    7 1
     6    6   44 1
     7    7    8 1
     8    9    7 1
     9   10    5 1
    10   11   10 1
    11   12   10 2
    12   13   12 1
    13   14   13 1
    14   15   13 1
    15   16    5 1
    16   17   16 1
    17   18   12 1
    18   19   18 1
    19   20   19 1
    20   21   19 1
    21   22   19 1
    22   23   15 1
    23   24   23 1
    24   25   24 1
    25   26   24 1
    26   27   24 1
    27   28    7 1
    28   29   28 ar
    29   30   29 1
    30   31   29 ar
    31   32   31 1
    32   33   31 ar
    33   34   33 1
    34   35   33 ar
    35   36   35 1
    36   37   28 ar
    37   38   37 1
    38   39   13 1
    39   40   39 ar
    40   41   40 1
    41   42   40 ar
    42   43   42 1
    43   44   42 ar
    44   45   44 ar
    45   46   45 1
    46   47   39 ar
    47   48   47 1
    48   15   16 2
    49   35   37 ar
    50   45   47 ar
@<TRIPOS>SUBSTRUCTURE
     1 RES1 1

@<TRIPOS>CRYSIN
  12.4631   11.0700   26.6746  90.0000  99.5420  90.0000  15 1

