# MOL2 file generated by ConQuest
# Please check atom types

@<TRIPOS>MOLECULE
SAYWEW
    42    43     1
SMALL
NO_CHARGES
****
Generated from CSD

@<TRIPOS>ATOM
      1 O1        -0.7673   -1.5505    7.3218 O.2       1 RES1    0.0000
      2 O2        -4.2229    2.1343    7.0662 O.2       1 RES1    0.0000
      3 O3        -5.0060   -2.0177   12.7215 O.2       1 RES1    0.0000
      4 O4        -4.1444   -0.3823   13.8423 O.2       1 RES1    0.0000
      5 N1         0.2054    2.9310    8.4984 N.3       1 RES1    0.0000
      6 N2        -4.3242   -1.0033   12.8024 N.pl3     1 RES1    0.0000
      7 C1         0.5454    1.6063    8.2894 C.2       1 RES1    0.0000
      8 C2        -0.3587    0.6658    7.9688 C.2       1 RES1    0.0000
      9 C3        -1.8438    0.9782    7.9951 C.3       1 RES1    0.0000
     10 C4        -2.0311    2.4731    7.8131 C.2       1 RES1    0.0000
     11 C5        -1.0477    3.3475    8.1186 C.2       1 RES1    0.0000
     12 C6         1.2730    3.8876    8.8166 C.3       1 RES1    0.0000
     13 C7         1.7457    3.7561   10.2317 C.2       1 RES1    0.0000
     14 C8         2.9601    3.3783   10.5666 C.2       1 RES1    0.0000
     15 C9         0.0632   -0.6819    7.5610 C.2       1 RES1    0.0000
     16 C10        1.5400   -0.9692    7.4241 C.3       1 RES1    0.0000
     17 C11       -3.3239    2.9424    7.3010 C.2       1 RES1    0.0000
     18 C12       -3.5515    4.4193    7.0815 C.3       1 RES1    0.0000
     19 C13       -2.4935    0.4636    9.2753 C.ar      1 RES1    0.0000
     20 C14       -3.3787   -0.6044    9.2232 C.ar      1 RES1    0.0000
     21 C15       -3.9822   -1.0952   10.3760 C.ar      1 RES1    0.0000
     22 C16       -3.6820   -0.4893   11.5782 C.ar      1 RES1    0.0000
     23 C17       -2.8005    0.5636   11.6777 C.ar      1 RES1    0.0000
     24 C18       -2.2049    1.0367   10.5117 C.ar      1 RES1    0.0000
     25 H1         1.4825    1.4400    8.3493 H         1 RES1    0.0000
     26 H2        -2.2865    0.4903    7.2373 H         1 RES1    0.0000
     27 H3        -1.1491    4.2976    8.0710 H         1 RES1    0.0000
     28 H4         0.8892    4.7702    8.6517 H         1 RES1    0.0000
     29 H5         2.0282    3.7092    8.1674 H         1 RES1    0.0000
     30 H6         1.0922    3.9973   10.9047 H         1 RES1    0.0000
     31 H7         3.2107    3.3425   11.5131 H         1 RES1    0.0000
     32 H8         3.6403    3.1259    9.8914 H         1 RES1    0.0000
     33 H9         1.6611   -1.8321    6.9457 H         1 RES1    0.0000
     34 H10        1.9417   -1.0134    8.2963 H         1 RES1    0.0000
     35 H11        1.9811   -0.2607    6.9288 H         1 RES1    0.0000
     36 H12       -3.5995    4.8886    7.9336 H         1 RES1    0.0000
     37 H13       -4.4005    4.5505    6.5939 H         1 RES1    0.0000
     38 H14       -2.7944    4.8331    6.5915 H         1 RES1    0.0000
     39 H15       -3.5597   -1.0187    8.3457 H         1 RES1    0.0000
     40 H16       -4.6174   -1.8362   10.3167 H         1 RES1    0.0000
     41 H17       -2.6111    0.9751   12.5251 H         1 RES1    0.0000
     42 H18       -1.5556    1.7827   10.5685 H         1 RES1    0.0000
@<TRIPOS>BOND
     1    1   15 2
     2    2   17 2
     3    3    6 2
     4    4    6 2
     5    5    7 1
     6    6   22 1
     7    7    8 2
     8    8    9 1
     9    9   10 1
    10   10   11 2
    11   11    5 1
    12   12    5 1
    13   13   12 1
    14   14   13 2
    15   15    8 1
    16   16   15 1
    17   17   10 1
    18   18   17 1
    19   19    9 1
    20   20   19 ar
    21   21   20 ar
    22   22   21 ar
    23   23   22 ar
    24   24   19 ar
    25   25    7 1
    26   26    9 1
    27   27   11 1
    28   28   12 1
    29   29   12 1
    30   30   13 1
    31   31   14 1
    32   32   14 1
    33   33   16 1
    34   34   16 1
    35   35   16 1
    36   36   18 1
    37   37   18 1
    38   38   18 1
    39   39   20 1
    40   40   21 1
    41   41   23 1
    42   42   24 1
    43   23   24 ar
@<TRIPOS>SUBSTRUCTURE
     1 RES1 1

@<TRIPOS>CRYSIN
   8.0656    8.3174   12.3033  95.4650  99.9840  93.1480   2 1

