# MOL2 file generated by ConQuest
# Please check atom types

@<TRIPOS>MOLECULE
SAZGUX
    31    32     1
SMALL
NO_CHARGES
****
Generated from CSD

@<TRIPOS>ATOM
      1 O1        -4.6477   -8.4515   -3.3674 O.2       1 RES1    0.0000
      2 O2        -4.0337   -6.6518   -2.1989 O.3       1 RES1    0.0000
      3 C1        -5.3808   -6.2479   -3.9897 C.2       1 RES1    0.0000
      4 O3        -0.7696   -2.8025   -1.6738 O.2       1 RES1    0.0000
      5 C2        -4.2067   -5.2075   -2.3119 C.3       1 RES1    0.0000
      6 C3        -4.7006   -7.2565   -3.2195 C.2       1 RES1    0.0000
      7 C4        -2.8150   -4.5634   -2.5193 C.3       1 RES1    0.0000
      8 H1        -2.9595   -3.5955   -2.5721 H         1 RES1    0.0000
      9 C5        -2.1360   -4.9732   -3.8087 C.ar      1 RES1    0.0000
     10 C6        -2.0903   -4.0688   -4.8550 C.ar      1 RES1    0.0000
     11 H2        -2.4880   -3.2343   -4.7506 H         1 RES1    0.0000
     12 C7        -1.4737   -4.3724   -6.0400 C.ar      1 RES1    0.0000
     13 H3        -1.4796   -3.7587   -6.7388 H         1 RES1    0.0000
     14 C8        -0.8593   -5.5636   -6.1919 C.ar      1 RES1    0.0000
     15 H4        -0.4140   -5.7539   -6.9859 H         1 RES1    0.0000
     16 C9        -5.0820   -5.0774   -3.5022 C.2       1 RES1    0.0000
     17 H5        -5.3787   -4.2688   -3.8523 H         1 RES1    0.0000
     18 C10       -1.9223   -4.8042   -1.3264 C.3       1 RES1    0.0000
     19 H6        -2.3751   -4.5297   -0.5126 H         1 RES1    0.0000
     20 H7        -1.7124   -5.7487   -1.2550 H         1 RES1    0.0000
     21 N1        -0.6516   -4.0092   -1.4994 N.pl3     1 RES1    0.0000
     22 O4         0.3837   -4.5880   -1.4598 O.2       1 RES1    0.0000
     23 C11       -0.8859   -6.4990   -5.1826 C.ar      1 RES1    0.0000
     24 H8        -0.4784   -7.3277   -5.3015 H         1 RES1    0.0000
     25 C12       -1.5244   -6.1967   -3.9804 C.ar      1 RES1    0.0000
     26 H9        -1.5391   -6.8221   -3.2921 H         1 RES1    0.0000
     27 C13       -4.9055   -4.6883   -1.0661 C.3       1 RES1    0.0000
     28 H10       -5.7791   -5.0793   -1.0027 H         1 RES1    0.0000
     29 H11       -4.9848   -3.7334   -1.1190 H         1 RES1    0.0000
     30 H12       -4.3923   -4.9253   -0.2906 H         1 RES1    0.0000
     31 H13       -5.9486   -6.4609   -4.7295 H         1 RES1    0.0000
@<TRIPOS>BOND
     1    1    6 2
     2    2    5 1
     3    3    6 1
     4    4   21 2
     5    5    7 1
     6    6    2 1
     7    7    8 1
     8    9    7 1
     9   10    9 ar
    10   11   10 1
    11   12   10 ar
    12   13   12 1
    13   14   12 ar
    14   15   14 1
    15   16    3 2
    16   17   16 1
    17   18    7 1
    18   19   18 1
    19   20   18 1
    20   21   18 1
    21   22   21 2
    22   23   14 ar
    23   24   23 1
    24   25    9 ar
    25   26   25 1
    26   27    5 1
    27   28   27 1
    28   29   27 1
    29   30   27 1
    30   31    3 1
    31    5   16 1
    32   23   25 ar
@<TRIPOS>SUBSTRUCTURE
     1 RES1 1

@<TRIPOS>CRYSIN
  14.8379    6.4738   13.3730  90.0000  98.9320  90.0000   5 1

