# MOL2 file generated by ConQuest
# Please check atom types

@<TRIPOS>MOLECULE
SAZHAC
    32    32     2
SMALL
NO_CHARGES
****
Generated from CSD

@<TRIPOS>ATOM
      1 O1         6.3517    3.0317    4.0239 O.2       1 RES1    0.0000
      2 O2        10.9919    0.9464    0.4531 O.2       1 RES1    0.0000
      3 N1         6.5715    1.9815    3.4901 N.pl3     1 RES1    0.0000
      4 N2        10.4057    1.9815    0.5069 N.pl3     1 RES1    0.0000
      5 C1         7.1314    1.9815    2.1246 C.ar      1 RES1    0.0000
      6 C2         8.5032    1.9815    2.0196 C.ar      1 RES1    0.0000
      7 C3         8.9516    1.9815    0.7016 C.ar      1 RES1    0.0000
      8 C4         8.1437    1.9815   -0.4172 C.ar      1 RES1    0.0000
      9 C5         6.7623    1.9815   -0.2234 C.ar      1 RES1    0.0000
     10 C6         6.2290    1.9815    1.0748 C.ar      1 RES1    0.0000
     11 C7         9.4423    1.9815    3.2066 C.3       1 RES1    0.0000
     12 C8         8.7331    1.9815   -1.8150 C.3       1 RES1    0.0000
     13 C9         5.8295    1.9815   -1.4194 C.3       1 RES1    0.0000
     14 C10        4.7360    1.9815    1.3458 C.3       1 RES1    0.0000
     15 O3        -3.5280    0.9202    5.6443 O.2       2 RES2    0.0000
     16 O4         1.7466    0.9353    8.1546 O.2       2 RES2    0.0000
     17 N3        -2.9558    1.9815    5.6030 N.pl3     2 RES2    0.0000
     18 N4         1.4359    1.9815    7.6818 N.pl3     2 RES2    0.0000
     19 C11       -1.4849    1.9815    5.4657 C.ar      2 RES2    0.0000
     20 C12       -0.7654    1.9815    6.6428 C.ar      2 RES2    0.0000
     21 C13        0.6006    1.9815    6.4580 C.ar      2 RES2    0.0000
     22 C14        1.2481    1.9815    5.2253 C.ar      2 RES2    0.0000
     23 C15        0.4512    1.9815    4.0769 C.ar      2 RES2    0.0000
     24 C16       -0.9330    1.9815    4.1836 C.ar      2 RES2    0.0000
     25 C17       -1.4288    1.9815    7.9940 C.3       2 RES2    0.0000
     26 C18        2.7574    1.9815    5.1535 C.3       2 RES2    0.0000
     27 C19        1.0961    1.9815    2.7086 C.3       2 RES2    0.0000
     28 C20       -1.8349    1.9815    2.9769 C.3       2 RES2    0.0000
     29 O1C        6.3517    0.9313    4.0239 O.2       1 RES1    0.0000
     30 O2C       10.9919    3.0166    0.4531 O.2       1 RES1    0.0000
     31 O3C       -3.5280    3.0428    5.6443 O.2       2 RES2    0.0000
     32 O4C        1.7466    3.0277    8.1546 O.2       2 RES2    0.0000
@<TRIPOS>BOND
     1    1    3 2
     2    2    4 2
     3    3    5 1
     4    4    7 1
     5    5    6 ar
     6    6    7 ar
     7    7    8 ar
     8    8    9 ar
     9    9   10 ar
    10   10    5 ar
    11   11    6 1
    12   12    8 1
    13   13    9 1
    14   14   10 1
    15   15   17 2
    16   16   18 2
    17   17   19 1
    18   18   21 1
    19   19   20 ar
    20   20   21 ar
    21   21   22 ar
    22   22   23 ar
    23   23   24 ar
    24   24   19 ar
    25   25   20 1
    26   26   22 1
    27   27   23 1
    28   28   24 1
    29   29    3 2
    30   30    4 2
    31   31   17 2
    32   32   18 2
@<TRIPOS>SUBSTRUCTURE
     1 RES1 1
     2 RES2 15

@<TRIPOS>CRYSIN
  15.4620    7.9260    8.9720  90.0000  90.2000  90.0000  11 1

