# MOL2 file generated by ConQuest
# Please check atom types

@<TRIPOS>MOLECULE
SAZJIN
    80    82     2
SMALL
NO_CHARGES
****
Generated from CSD

@<TRIPOS>ATOM
      1 O1         6.2786    5.7389    4.1306 O.3       1 RES1    0.0000
      2 O2         8.2637    7.0710    3.2235 O.3       1 RES1    0.0000
      3 O3        -2.7354    6.2885    8.3241 O.2       1 RES1    0.0000
      4 O4        -3.1809    8.0034    9.5294 O.2       1 RES1    0.0000
      5 O5         2.6575   -0.1889    8.0818 O.3       2 RES2    0.0000
      6 O6         3.1927    1.1762   10.1604 O.3       2 RES2    0.0000
      7 O7        -0.6625    2.2269   -2.4114 O.2       2 RES2    0.0000
      8 O8        -0.0514    0.3218   -1.6828 O.2       2 RES2    0.0000
      9 N1         3.2541    9.1138    6.5029 N.2       1 RES1    0.0000
     10 N2         2.3594    9.7572    7.2946 N.pl3     1 RES1    0.0000
     11 H1         2.5176   10.5639    7.5467 H         1 RES1    0.0000
     12 N3        -2.4264    7.3809    8.7981 N.pl3     1 RES1    0.0000
     13 N4         1.3602    3.1931    4.4403 N.2       2 RES2    0.0000
     14 N5         0.8601    3.8833    3.3939 N.pl3     2 RES2    0.0000
     15 H2         0.7274    4.7287    3.4756 H         2 RES2    0.0000
     16 N6        -0.2657    1.5152   -1.5283 N.pl3     2 RES2    0.0000
     17 C1         5.2495    7.7215    5.0678 C.ar      1 RES1    0.0000
     18 H3         4.5250    7.2329    5.3829 H         1 RES1    0.0000
     19 C2         6.2321    7.0966    4.3737 C.ar      1 RES1    0.0000
     20 C3         7.3241    7.8084    3.8714 C.ar      1 RES1    0.0000
     21 C4         7.3836    9.1685    4.0826 C.ar      1 RES1    0.0000
     22 H4         8.0899    9.6665    3.7401 H         1 RES1    0.0000
     23 C5         6.3863    9.7817    4.8069 C.ar      1 RES1    0.0000
     24 H5         6.4419   10.6978    4.9560 H         1 RES1    0.0000
     25 C6         5.3148    9.0981    5.3154 C.ar      1 RES1    0.0000
     26 C7         4.3070    9.7535    6.1284 C.2       1 RES1    0.0000
     27 H6         4.4227   10.6414    6.3805 H         1 RES1    0.0000
     28 C8         1.2151    9.1380    7.6931 C.ar      1 RES1    0.0000
     29 C9         0.9215    7.8225    7.3132 C.ar      1 RES1    0.0000
     30 H7         1.5327    7.3362    6.8082 H         1 RES1    0.0000
     31 C10       -0.2528    7.2611    7.6816 C.ar      1 RES1    0.0000
     32 H8        -0.4504    6.3919    7.4153 H         1 RES1    0.0000
     33 C11       -1.1597    7.9588    8.4457 C.ar      1 RES1    0.0000
     34 C12       -0.8712    9.2437    8.8513 C.ar      1 RES1    0.0000
     35 H9        -1.4793    9.7112    9.3768 H         1 RES1    0.0000
     36 C13        0.3006    9.8263    8.4857 C.ar      1 RES1    0.0000
     37 H10        0.4935   10.6931    8.7670 H         1 RES1    0.0000
     38 C14        5.3034    4.9120    4.7509 C.3       1 RES1    0.0000
     39 H11        5.3300    5.0435    5.7015 H         1 RES1    0.0000
     40 H12        5.4887    3.9935    4.5504 H         1 RES1    0.0000
     41 H13        4.4315    5.1422    4.4199 H         1 RES1    0.0000
     42 C15        9.4977    7.6886    2.8578 C.3       1 RES1    0.0000
     43 H14        9.9520    8.0245    3.6460 H         1 RES1    0.0000
     44 H15        9.3357    8.4309    2.2552 H         1 RES1    0.0000
     45 C16       10.3363    6.6480    2.1824 C.3       1 RES1    0.0000
     46 H16       10.5445    5.9503    2.8073 H         1 RES1    0.0000
     47 H17       11.1499    7.0473    1.8656 H         1 RES1    0.0000
     48 H18        9.8512    6.2791    1.4405 H         1 RES1    0.0000
     49 C17        2.3758    3.9019    7.8351 C.ar      2 RES2    0.0000
     50 H19        2.3187    4.8297    7.8094 H         2 RES2    0.0000
     51 C18        2.7827    3.2864    9.0182 C.ar      2 RES2    0.0000
     52 H20        2.9964    3.7985    9.7655 H         2 RES2    0.0000
     53 C19        2.8646    1.9122    9.0670 C.ar      2 RES2    0.0000
     54 C20        2.5589    1.1699    7.9159 C.ar      2 RES2    0.0000
     55 C21        2.1688    1.7853    6.7585 C.ar      2 RES2    0.0000
     56 H21        1.9780    1.2779    6.0041 H         2 RES2    0.0000
     57 C22        2.0561    3.1877    6.7071 C.ar      2 RES2    0.0000
     58 C23        1.5752    3.8408    5.4991 C.2       2 RES2    0.0000
     59 H22        1.4239    4.7569    5.5089 H         2 RES2    0.0000
     60 C24        0.5576    3.2746    2.2064 C.ar      2 RES2    0.0000
     61 C25        0.8287    1.9098    1.9978 C.ar      2 RES2    0.0000
     62 H23        1.1916    1.3907    2.6786 H         2 RES2    0.0000
     63 C26        0.5496    1.3601    0.7766 C.ar      2 RES2    0.0000
     64 H24        0.7389    0.4628    0.6293 H         2 RES2    0.0000
     65 C27        0.0027    2.0977   -0.2245 C.ar      2 RES2    0.0000
     66 C28       -0.2898    3.4438   -0.0355 C.ar      2 RES2    0.0000
     67 H25       -0.6653    3.9512   -0.7189 H         2 RES2    0.0000
     68 C29       -0.0128    4.0029    1.1769 C.ar      2 RES2    0.0000
     69 H26       -0.2125    4.9002    1.3153 H         2 RES2    0.0000
     70 C30        2.4920   -1.0054    6.9183 C.3       2 RES2    0.0000
     71 H27        1.5911   -0.9232    6.5952 H         2 RES2    0.0000
     72 H28        2.6683   -1.9216    7.1428 H         2 RES2    0.0000
     73 H29        3.1036   -0.7188    6.2367 H         2 RES2    0.0000
     74 C31        3.5526    1.8816   11.3639 C.3       2 RES2    0.0000
     75 H30        2.8135    2.4360   11.6595 H         2 RES2    0.0000
     76 H31        4.3183    2.4525   11.1989 H         2 RES2    0.0000
     77 C32        3.8820    0.8715   12.4041 C.3       2 RES2    0.0000
     78 H32        3.0989    0.3571   12.6100 H         2 RES2    0.0000
     79 H33        4.1894    1.3178   13.1958 H         2 RES2    0.0000
     80 H34        4.5714    0.2889   12.0775 H         2 RES2    0.0000
@<TRIPOS>BOND
     1    1   19 1
     2    2   20 1
     3    3   12 2
     4    4   12 2
     5    5   54 1
     6    6   53 1
     7    7   16 2
     8    8   16 2
     9    9   10 1
    10   10   11 1
    11   12   33 1
    12   13   14 1
    13   14   15 1
    14   16   65 1
    15   17   18 1
    16   19   17 ar
    17   20   19 ar
    18   21   20 ar
    19   22   21 1
    20   23   21 ar
    21   24   23 1
    22   25   17 ar
    23   26    9 2
    24   27   26 1
    25   28   10 1
    26   29   28 ar
    27   30   29 1
    28   31   29 ar
    29   32   31 1
    30   33   31 ar
    31   34   33 ar
    32   35   34 1
    33   36   28 ar
    34   37   36 1
    35   38    1 1
    36   39   38 1
    37   40   38 1
    38   41   38 1
    39   42    2 1
    40   43   42 1
    41   44   42 1
    42   45   42 1
    43   46   45 1
    44   47   45 1
    45   48   45 1
    46   49   50 1
    47   51   49 ar
    48   52   51 1
    49   53   51 ar
    50   54   53 ar
    51   55   54 ar
    52   56   55 1
    53   57   49 ar
    54   58   13 2
    55   59   58 1
    56   60   14 1
    57   61   60 ar
    58   62   61 1
    59   63   61 ar
    60   64   63 1
    61   65   63 ar
    62   66   65 ar
    63   67   66 1
    64   68   60 ar
    65   69   68 1
    66   70    5 1
    67   71   70 1
    68   72   70 1
    69   73   70 1
    70   74    6 1
    71   75   74 1
    72   76   74 1
    73   77   74 1
    74   78   77 1
    75   79   77 1
    76   80   77 1
    77   23   25 ar
    78   25   26 1
    79   34   36 ar
    80   55   57 ar
    81   57   58 1
    82   66   68 ar
@<TRIPOS>SUBSTRUCTURE
     1 RES1 1
     2 RES2 5

@<TRIPOS>CRYSIN
   7.5890   23.4910    8.9290  90.0000  96.2870  90.0000   4 1

