# MOL2 file generated by ConQuest
# Please check atom types

@<TRIPOS>MOLECULE
SAZPER
    40    43     1
SMALL
NO_CHARGES
****
Generated from CSD

@<TRIPOS>ATOM
      1 N1         0.6714    1.2168    2.8881 N.2       1 RES1    0.0000
      2 N2         2.3887    1.8368    0.7511 N.pl3     1 RES1    0.0000
      3 H1         2.9112    2.0263    0.0959 H         1 RES1    0.0000
      4 C1         0.5011    2.0114   -0.7106 C.ar      1 RES1    0.0000
      5 H2         1.0527    2.2179   -1.4301 H         1 RES1    0.0000
      6 C2         1.9774    1.3207    3.0559 C.2       1 RES1    0.0000
      7 C3         2.8632    1.6028    1.9456 C.3       1 RES1    0.0000
      8 H3         2.8208    2.5594    2.1522 H         1 RES1    0.0000
      9 C4         1.0288    1.7704    0.5772 C.ar      1 RES1    0.0000
     10 C5         0.1821    1.4437    1.6376 C.ar      1 RES1    0.0000
     11 C6         4.3452    1.6318    2.0991 C.ar      1 RES1    0.0000
     12 C7        -0.8581    1.9287   -0.8564 C.ar      1 RES1    0.0000
     13 C8        -1.2192    1.3857    1.4286 C.ar      1 RES1    0.0000
     14 H4        -1.7897    1.1842    2.1352 H         1 RES1    0.0000
     15 C9         2.4588    1.1920    4.4526 C.ar      1 RES1    0.0000
     16 C10        5.0158    0.6123    2.7556 C.ar      1 RES1    0.0000
     17 H5         4.5356   -0.0778    3.1525 H         1 RES1    0.0000
     18 C11        5.0792    2.6534    1.5204 C.ar      1 RES1    0.0000
     19 H6         4.6433    3.3392    1.0684 H         1 RES1    0.0000
     20 N3        -1.4348    2.1755   -2.1862 N.pl3     1 RES1    0.0000
     21 C12        6.4026    0.6193    2.8219 C.ar      1 RES1    0.0000
     22 H7         6.8479   -0.0742    3.2545 H         1 RES1    0.0000
     23 C13        6.4600    2.6548    1.6132 C.ar      1 RES1    0.0000
     24 H8         6.9450    3.3526    1.2369 H         1 RES1    0.0000
     25 C14       -1.7238    1.6261    0.1886 C.ar      1 RES1    0.0000
     26 H9        -2.6395    1.5887    0.0402 H         1 RES1    0.0000
     27 O1        -2.6197    2.0341   -2.3606 O.2       1 RES1    0.0000
     28 C15        3.1839    2.2080    5.0247 C.ar      1 RES1    0.0000
     29 H10        3.4048    2.9567    4.5193 H         1 RES1    0.0000
     30 C16        2.1304    0.0884    5.2142 C.ar      1 RES1    0.0000
     31 H11        1.6297   -0.6010    4.8424 H         1 RES1    0.0000
     32 C17        7.1206    1.6332    2.2584 C.ar      1 RES1    0.0000
     33 H12        8.0502    1.6346    2.3099 H         1 RES1    0.0000
     34 C18        2.5507    0.0092    6.5338 C.ar      1 RES1    0.0000
     35 H13        2.3391   -0.7388    7.0425 H         1 RES1    0.0000
     36 C19        3.2760    1.0259    7.0890 C.ar      1 RES1    0.0000
     37 H14        3.5564    0.9658    7.9732 H         1 RES1    0.0000
     38 C20        3.5886    2.1288    6.3486 C.ar      1 RES1    0.0000
     39 H15        4.0716    2.8252    6.7302 H         1 RES1    0.0000
     40 O2        -0.6793    2.5162   -3.0868 O.2       1 RES1    0.0000
@<TRIPOS>BOND
     1    1    6 2
     2    2    3 1
     3    4    5 1
     4    6    7 1
     5    7    2 1
     6    8    7 1
     7    9    2 1
     8   10    1 1
     9   11    7 1
    10   12    4 ar
    11   13   10 ar
    12   14   13 1
    13   15    6 1
    14   16   11 ar
    15   17   16 1
    16   18   11 ar
    17   19   18 1
    18   20   12 1
    19   21   16 ar
    20   22   21 1
    21   23   18 ar
    22   24   23 1
    23   25   12 ar
    24   26   25 1
    25   27   20 2
    26   28   15 ar
    27   29   28 1
    28   30   15 ar
    29   31   30 1
    30   32   21 ar
    31   33   32 1
    32   34   30 ar
    33   35   34 1
    34   36   34 ar
    35   37   36 1
    36   38   28 ar
    37   39   38 1
    38   40   20 2
    39    4    9 ar
    40    9   10 ar
    41   13   25 ar
    42   23   32 ar
    43   36   38 ar
@<TRIPOS>SUBSTRUCTURE
     1 RES1 1

@<TRIPOS>CRYSIN
  30.3060    7.0701   16.1304  90.0000 106.5640  90.0000  15 1

