# MOL2 file generated by ConQuest
# Please check atom types

@<TRIPOS>MOLECULE
SAZQIU
    30    30     2
SMALL
USER_CHARGES
****
Generated from CSD

@<TRIPOS>ATOM
      1 O1         6.1132    3.8553    2.0660 O.2       1 RES1   -1.0000
      2 O2         8.2705    0.1108    3.7488 O.2       1 RES1    0.0000
      3 O3         4.3174    1.6609    2.8346 O.2       1 RES1    0.0000
      4 O4         2.9803    2.9469    3.9130 O.2       1 RES1    0.0000
      5 N1         6.8127    2.8227    2.1811 N.pl3     1 RES1    1.0000
      6 C1         6.8127    2.8227    2.1811 Du        2 SUP2    0.0000
      7 N2         4.0576    2.3737    3.7850 N.pl3     1 RES1    0.0000
      8 C2         6.9900    2.0626    3.3150 C.2       1 RES1    0.0000
      9 C3         7.8873    1.0241    2.9977 C.2       1 RES1    0.0000
     10 N3         7.8873    1.0241    2.9977 Du        2 SUP2    0.0000
     11 C4         9.0975    0.4027    0.7909 C.ar      1 RES1    0.0000
     12 H1         9.5702   -0.3238    1.1275 H         1 RES1    0.0000
     13 C5         9.1890    0.7825   -0.5500 C.ar      1 RES1    0.0000
     14 H2         9.7448    0.3023   -1.1203 H         1 RES1    0.0000
     15 C6         8.4794    1.8473   -1.0472 C.ar      1 RES1    0.0000
     16 H3         8.5549    2.0633   -1.9483 H         1 RES1    0.0000
     17 C7         7.6545    2.6063   -0.2372 C.ar      1 RES1    0.0000
     18 H4         7.1727    3.3287   -0.5703 H         1 RES1    0.0000
     19 C8         7.5845    2.2405    1.0772 C.ar      1 RES1    0.0000
     20 C9         8.2749    1.1578    1.5831 C.ar      1 RES1    0.0000
     21 C10        6.4056    2.3019    4.6281 C.ar      1 RES1    0.0000
     22 C11        5.0451    2.5279    4.8656 C.ar      1 RES1    0.0000
     23 C12        4.5567    2.8133    6.1184 C.ar      1 RES1    0.0000
     24 H5         3.6477    2.9646    6.2463 H         1 RES1    0.0000
     25 C13        5.4320    2.8716    7.1841 C.ar      1 RES1    0.0000
     26 H6         5.1113    3.0718    8.0340 H         1 RES1    0.0000
     27 C14        6.7704    2.6381    6.9990 C.ar      1 RES1    0.0000
     28 H7         7.3529    2.6713    7.7225 H         1 RES1    0.0000
     29 C15        7.2511    2.3520    5.7375 C.ar      1 RES1    0.0000
     30 H8         8.1604    2.1897    5.6244 H         1 RES1    0.0000
@<TRIPOS>BOND
     1    1    5 1
     2    2    9 2
     3    3    7 2
     4    4    7 2
     5    5    8 2
     6    7   22 1
     7    8    9 1
     8    9   20 1
     9   11   12 1
    10   13   11 ar
    11   14   13 1
    12   15   13 ar
    13   16   15 1
    14   17   15 ar
    15   18   17 1
    16   19    5 1
    17   20   11 ar
    18   21    8 1
    19   22   21 ar
    20   23   22 ar
    21   24   23 1
    22   25   23 ar
    23   26   25 1
    24   27   25 ar
    25   28   27 1
    26   29   21 ar
    27   30   29 1
    28   17   19 ar
    29   19   20 ar
    30   27   29 ar
@<TRIPOS>SUBSTRUCTURE
     1 RES1 1
     2 SUP2 6

@<TRIPOS>CRYSIN
   7.4293    7.5049   12.4620  76.3610  76.4290  62.2840   2 1

