# MOL2 file generated by ConQuest
# Please check atom types

@<TRIPOS>MOLECULE
SEBYED
    34    36     1
SMALL
NO_CHARGES
****
Generated from CSD

@<TRIPOS>ATOM
      1 C1        -0.2961    4.9514   -0.1494 C.3       1 RES1    0.0000
      2 O1        -0.0804    4.0252    1.9245 O.3       1 RES1    0.0000
      3 O2        -0.8613    4.9929    1.1331 O.3       1 RES1    0.0000
      4 C2        -0.3984    2.7179    1.3712 C.3       1 RES1    0.0000
      5 N1         0.0668    2.6142   -0.0068 N.3       1 RES1    0.0000
      6 O3        -0.5344    3.6997   -0.7634 O.3       1 RES1    0.0000
      7 C3         1.2866    2.1476    3.2022 C.ar      1 RES1    0.0000
      8 C4         1.9838    1.2019    3.9547 C.ar      1 RES1    0.0000
      9 C5         1.7583   -0.1589    3.7466 C.ar      1 RES1    0.0000
     10 C6         0.8358   -0.5742    2.7861 C.ar      1 RES1    0.0000
     11 C7         0.1387    0.3714    2.0336 C.ar      1 RES1    0.0000
     12 C8         0.3640    1.7321    2.2424 C.ar      1 RES1    0.0000
     13 C9        -2.5311    2.7639    2.6645 C.ar      1 RES1    0.0000
     14 C10       -3.8954    2.5114    2.8082 C.ar      1 RES1    0.0000
     15 C11       -4.6177    1.9588    1.7504 C.ar      1 RES1    0.0000
     16 C12       -3.9755    1.6587    0.5490 C.ar      1 RES1    0.0000
     17 C13       -2.6112    1.9112    0.4053 C.ar      1 RES1    0.0000
     18 C14       -1.8889    2.4638    1.4631 C.ar      1 RES1    0.0000
     19 C15        1.5050    2.6377   -0.2238 C.3       1 RES1    0.0000
     20 H1         0.7403    5.1713   -0.1214 H         1 RES1    0.0000
     21 H2        -0.8089    5.5945   -0.7327 H         1 RES1    0.0000
     22 H3         1.4401    3.0743    3.3441 H         1 RES1    0.0000
     23 H4         2.6119    1.4847    4.6089 H         1 RES1    0.0000
     24 H5         2.2330   -0.8028    4.2590 H         1 RES1    0.0000
     25 H6         0.6823   -1.5009    2.6442 H         1 RES1    0.0000
     26 H7        -0.4897    0.0884    1.3801 H         1 RES1    0.0000
     27 H8        -2.0392    3.1402    3.3849 H         1 RES1    0.0000
     28 H9        -4.3327    2.7158    3.6264 H         1 RES1    0.0000
     29 H10       -5.5468    1.7868    1.8483 H         1 RES1    0.0000
     30 H11       -4.4673    1.2823   -0.1714 H         1 RES1    0.0000
     31 H12       -2.1738    1.7067   -0.4129 H         1 RES1    0.0000
     32 H13        1.8614    1.7994    0.0464 H         1 RES1    0.0000
     33 H14        1.9531    3.3369    0.2374 H         1 RES1    0.0000
     34 H15        1.6266    2.7470   -1.1597 H         1 RES1    0.0000
@<TRIPOS>BOND
     1    1    3 1
     2    2    3 1
     3    4    2 1
     4    5    4 1
     5    6    1 1
     6    7    8 ar
     7    8    9 ar
     8    9   10 ar
     9   10   11 ar
    10   11   12 ar
    11   12    4 1
    12   13   14 ar
    13   14   15 ar
    14   15   16 ar
    15   16   17 ar
    16   17   18 ar
    17   18    4 1
    18   19    5 1
    19   20    1 1
    20   21    1 1
    21   22    7 1
    22   23    8 1
    23   24    9 1
    24   25   10 1
    25   26   11 1
    26   27   13 1
    27   28   14 1
    28   29   15 1
    29   30   16 1
    30   31   17 1
    31   32   19 1
    32   33   19 1
    33   34   19 1
    34    5    6 1
    35    7   12 ar
    36   13   18 ar
@<TRIPOS>SUBSTRUCTURE
     1 RES1 1

@<TRIPOS>CRYSIN
   9.4076   11.1916    7.3327  94.6390 107.2810 113.1480   2 1

