# MOL2 file generated by ConQuest
# Please check atom types

@<TRIPOS>MOLECULE
SECCIP
    35    37     1
SMALL
NO_CHARGES
****
Generated from CSD

@<TRIPOS>ATOM
      1 N1         4.7209    7.8015    0.8243 N.pl3     1 RES1    0.0000
      2 O1         6.7870   15.1274    3.4339 O.3       1 RES1    0.0000
      3 O2         4.7574   11.2829    1.3835 O.3       1 RES1    0.0000
      4 O3         5.0009   13.0826    3.3368 O.2       1 RES1    0.0000
      5 O4         6.3357   10.3509    2.6980 O.2       1 RES1    0.0000
      6 O5         5.5311    8.6138    0.3980 O.2       1 RES1    0.0000
      7 O6         4.5367    6.7001    0.3268 O.2       1 RES1    0.0000
      8 C1         7.8278   16.0032    3.2037 C.ar      1 RES1    0.0000
      9 C2         8.2138   17.0305    4.0269 C.ar      1 RES1    0.0000
     10 H1         7.7608   17.2174    4.8406 H         1 RES1    0.0000
     11 C3         9.2855   17.7682    3.6123 C.ar      1 RES1    0.0000
     12 H2         9.5934   18.4791    4.1621 H         1 RES1    0.0000
     13 C4         9.9403   17.5139    2.4137 C.ar      1 RES1    0.0000
     14 H3        10.6743   18.0604    2.1586 H         1 RES1    0.0000
     15 C5         9.5431   16.4794    1.5823 C.ar      1 RES1    0.0000
     16 H4         9.9934   16.3059    0.7646 H         1 RES1    0.0000
     17 C6         8.4408   15.6916    1.9947 C.ar      1 RES1    0.0000
     18 C7         7.7236   14.5734    1.4735 C.2       1 RES1    0.0000
     19 H5         7.8966   14.1214    0.6553 H         1 RES1    0.0000
     20 C8         6.7646   14.2814    2.3513 C.2       1 RES1    0.0000
     21 C9         5.7311   13.2407    2.3833 C.2       1 RES1    0.0000
     22 C10        5.6557   12.3726    1.1494 C.3       1 RES1    0.0000
     23 H6         5.3367   12.9109    0.3815 H         1 RES1    0.0000
     24 H7         6.5553   12.0223    0.9303 H         1 RES1    0.0000
     25 C11        5.2288   10.3558    2.2332 C.2       1 RES1    0.0000
     26 C12        4.1516    9.3945    2.6180 C.ar      1 RES1    0.0000
     27 C13        3.9246    8.1763    1.9952 C.ar      1 RES1    0.0000
     28 C14        2.9637    7.2820    2.4374 C.ar      1 RES1    0.0000
     29 H8         2.8390    6.4483    1.9996 H         1 RES1    0.0000
     30 C15        2.1897    7.6303    3.5317 C.ar      1 RES1    0.0000
     31 H9         1.5256    7.0322    3.8530 H         1 RES1    0.0000
     32 C16        2.3832    8.8482    4.1577 C.ar      1 RES1    0.0000
     33 H10        1.8400    9.0886    4.8992 H         1 RES1    0.0000
     34 C17        3.3618    9.7206    3.7127 C.ar      1 RES1    0.0000
     35 H11        3.4930   10.5497    4.1599 H         1 RES1    0.0000
@<TRIPOS>BOND
     1    1    6 2
     2    2    8 1
     3    3   22 1
     4    4   21 2
     5    5   25 2
     6    7    1 2
     7    8    9 ar
     8    9   10 1
     9   11    9 ar
    10   12   11 1
    11   13   11 ar
    12   14   13 1
    13   15   13 ar
    14   16   15 1
    15   17    8 ar
    16   18   17 1
    17   19   18 1
    18   20    2 1
    19   21   20 1
    20   22   21 1
    21   23   22 1
    22   24   22 1
    23   25    3 1
    24   26   25 1
    25   27    1 1
    26   28   27 ar
    27   29   28 1
    28   30   28 ar
    29   31   30 1
    30   32   30 ar
    31   33   32 1
    32   34   26 ar
    33   35   34 1
    34   15   17 ar
    35   18   20 2
    36   26   27 ar
    37   32   34 ar
@<TRIPOS>SUBSTRUCTURE
     1 RES1 1

@<TRIPOS>CRYSIN
   9.3022   28.4820    5.5208  90.0000  90.0000  90.0000  33 1

