# MOL2 file generated by ConQuest
# Please check atom types

@<TRIPOS>MOLECULE
SECJER
    34    35     1
SMALL
NO_CHARGES
****
Generated from CSD

@<TRIPOS>ATOM
      1 O1         2.6584    4.0356    7.9749 O.2       1 RES1    0.0000
      2 O2         3.7708    5.4738    6.8491 O.2       1 RES1    0.0000
      3 O3         3.8701    4.7402    2.0373 O.2       1 RES1    0.0000
      4 O4         2.3872    3.4673    1.1564 O.2       1 RES1    0.0000
      5 O5        -1.6596    2.7813    3.5007 O.2       1 RES1    0.0000
      6 O6        -1.7475    2.7673    5.6356 O.2       1 RES1    0.0000
      7 O7         0.1921    3.8581    7.0060 O.3       1 RES1    0.0000
      8 O8         0.7158    1.6968    7.3566 O.2       1 RES1    0.0000
      9 N1         2.9140    4.6212    6.9484 N.pl3     1 RES1    0.0000
     10 N2         2.8723    4.0676    2.0935 N.pl3     1 RES1    0.0000
     11 N3        -1.1591    2.9497    4.5899 N.pl3     1 RES1    0.0000
     12 C1         0.8604    3.7995    5.8097 C.ar      1 RES1    0.0000
     13 C2         2.1741    4.2654    5.7289 C.ar      1 RES1    0.0000
     14 C3         2.8403    4.3972    4.5311 C.ar      1 RES1    0.0000
     15 H1         3.6990    4.7525    4.4916 H         1 RES1    0.0000
     16 C4         2.1819    3.9811    3.3936 C.ar      1 RES1    0.0000
     17 C5         0.9042    3.4768    3.4173 C.ar      1 RES1    0.0000
     18 H2         0.4938    3.1848    2.6357 H         1 RES1    0.0000
     19 C6         0.2450    3.4131    4.6236 C.ar      1 RES1    0.0000
     20 C7         0.1525    2.6775    7.7381 C.2       1 RES1    0.0000
     21 C8        -0.6469    2.8291    8.9620 C.ar      1 RES1    0.0000
     22 C9        -1.6831    3.7449    9.0521 C.ar      1 RES1    0.0000
     23 H3        -1.8523    4.3304    8.3494 H         1 RES1    0.0000
     24 C10       -2.4662    3.7835   10.1942 C.ar      1 RES1    0.0000
     25 H4        -3.1704    4.3887   10.2437 H         1 RES1    0.0000
     26 C11       -2.2218    2.9384   11.2597 C.ar      1 RES1    0.0000
     27 C12       -1.1680    2.0449   11.1595 C.ar      1 RES1    0.0000
     28 H5        -0.9801    1.4807   11.8748 H         1 RES1    0.0000
     29 C13       -0.3906    1.9726   10.0224 C.ar      1 RES1    0.0000
     30 H6         0.3012    1.3534    9.9662 H         1 RES1    0.0000
     31 C14       -3.0951    2.9770   12.4943 C.3       1 RES1    0.0000
     32 H7        -2.5659    2.7676   13.2668 H         1 RES1    0.0000
     33 H8        -3.8022    2.3331   12.4058 H         1 RES1    0.0000
     34 H9        -3.4719    3.8541   12.5923 H         1 RES1    0.0000
@<TRIPOS>BOND
     1    1    9 2
     2    2    9 2
     3    3   10 2
     4    4   10 2
     5    5   11 2
     6    6   11 2
     7    7   12 1
     8    8   20 2
     9    9   13 1
    10   10   16 1
    11   11   19 1
    12   12   13 ar
    13   13   14 ar
    14   14   15 1
    15   16   14 ar
    16   17   16 ar
    17   18   17 1
    18   19   12 ar
    19   20    7 1
    20   21   20 1
    21   22   21 ar
    22   23   22 1
    23   24   22 ar
    24   25   24 1
    25   26   24 ar
    26   27   26 ar
    27   28   27 1
    28   29   21 ar
    29   30   29 1
    30   31   26 1
    31   32   31 1
    32   33   31 1
    33   34   31 1
    34   17   19 ar
    35   27   29 ar
@<TRIPOS>SUBSTRUCTURE
     1 RES1 1

@<TRIPOS>CRYSIN
   7.6126    8.2124   23.9893  90.0000  94.4480  90.0000  14 1

