# MOL2 file generated by ConQuest
# Please check atom types

@<TRIPOS>MOLECULE
SECMOC
    14    14     1
SMALL
NO_CHARGES
****
Generated from CSD

@<TRIPOS>ATOM
      1 C1        -0.5972    5.1841    6.3020 C.ar      1 RES1    0.0000
      2 C2         0.6481    5.0992    5.6623 C.ar      1 RES1    0.0000
      3 C3         0.9261    4.1453    4.7094 C.ar      1 RES1    0.0000
      4 C4        -0.0667    3.2124    4.4178 C.ar      1 RES1    0.0000
      5 C5        -1.3027    3.2062    5.0634 C.ar      1 RES1    0.0000
      6 C6        -1.5591    4.2032    5.9836 C.ar      1 RES1    0.0000
      7 N1        -0.8735    6.1762    7.1915 N.3       1 RES1    0.0000
      8 C7         0.1297    7.1706    7.5316 C.3       1 RES1    0.0000
      9 C8        -2.0962    6.1909    7.9540 C.3       1 RES1    0.0000
     10 C9        -2.3946    2.2031    4.7580 C.3       1 RES1    0.0000
     11 C10        2.3039    4.1195    4.0836 C.3       1 RES1    0.0000
     12 N2         0.2022    2.2081    3.4043 N.pl3     1 RES1    0.0000
     13 O1        -0.0094    1.0302    3.6642 O.2       1 RES1    0.0000
     14 O2         0.6375    2.4751    2.3155 O.2       1 RES1    0.0000
@<TRIPOS>BOND
     1    1    2 ar
     2    2    3 ar
     3    3    4 ar
     4    4    5 ar
     5    5    6 ar
     6    6    1 ar
     7    7    1 1
     8    8    7 1
     9    9    7 1
    10   10    5 1
    11   11    3 1
    12   12    4 1
    13   13   12 2
    14   14   12 2
@<TRIPOS>SUBSTRUCTURE
     1 RES1 1

@<TRIPOS>CRYSIN
   8.3380   12.3080   10.2210  90.0000 104.0200  90.0000 231 1

