# MOL2 file generated by ConQuest
# Please check atom types

@<TRIPOS>MOLECULE
SECPEX
    59    61     1
SMALL
NO_CHARGES
****
Generated from CSD

@<TRIPOS>ATOM
      1 O1         7.7756    3.6115    3.5238 O.3       1 RES1    0.0000
      2 C1         8.0178    3.2726    4.8996 C.3       1 RES1    0.0000
      3 H1         7.5295    3.8871    5.4861 H         1 RES1    0.0000
      4 N1         7.4344    1.9339    4.9832 N.am      1 RES1    0.0000
      5 C2         7.3370    1.2965    3.6663 C.3       1 RES1    0.0000
      6 H2         7.9198    0.5090    3.6307 H         1 RES1    0.0000
      7 C3         7.8961    2.4019    2.7703 C.3       1 RES1    0.0000
      8 H3         7.3247    2.4748    1.9785 H         1 RES1    0.0000
      9 C4         9.5007    3.3106    5.2269 C.ar      1 RES1    0.0000
     10 C5        10.1663    2.2746    5.8514 C.ar      1 RES1    0.0000
     11 H4         9.6990    1.5028    6.0753 H         1 RES1    0.0000
     12 C6        11.5200    2.3609    6.1516 C.ar      1 RES1    0.0000
     13 H5        11.9510    1.6475    6.5639 H         1 RES1    0.0000
     14 C7        12.2224    3.5018    5.8387 C.ar      1 RES1    0.0000
     15 C8        11.5915    4.5444    5.2082 C.ar      1 RES1    0.0000
     16 H6        12.0660    5.3097    4.9751 H         1 RES1    0.0000
     17 C9        10.2345    4.4443    4.9213 C.ar      1 RES1    0.0000
     18 H7         9.8064    5.1607    4.5108 H         1 RES1    0.0000
     19 O2        13.5597    3.4867    6.1887 O.3       1 RES1    0.0000
     20 C10       14.3468    4.6343    5.8907 C.3       1 RES1    0.0000
     21 H8        15.2515    4.4847    6.1742 H         1 RES1    0.0000
     22 H9        13.9882    5.3965    6.3513 H         1 RES1    0.0000
     23 H10       14.3316    4.7959    4.9434 H         1 RES1    0.0000
     24 C11        7.0514    1.2959    6.1166 C.2       1 RES1    0.0000
     25 O3         6.7245    0.1290    6.1475 O.2       1 RES1    0.0000
     26 O4         7.0917    2.1426    7.1586 O.3       1 RES1    0.0000
     27 C12        6.8742    1.6577    8.5424 C.3       1 RES1    0.0000
     28 C13        6.9841    2.9241    9.3498 C.3       1 RES1    0.0000
     29 H11        6.3587    3.5717    9.0142 H         1 RES1    0.0000
     30 H12        7.8759    3.2732    9.2771 H         1 RES1    0.0000
     31 H13        6.7882    2.7353   10.2692 H         1 RES1    0.0000
     32 C14        5.5059    1.0469    8.6785 C.3       1 RES1    0.0000
     33 H14        4.8577    1.6167    8.2571 H         1 RES1    0.0000
     34 H15        5.2893    0.9498    9.6072 H         1 RES1    0.0000
     35 H16        5.4964    0.1851    8.2552 H         1 RES1    0.0000
     36 C15        7.9914    0.7007    8.8818 C.3       1 RES1    0.0000
     37 H17        7.9159   -0.0862    8.3373 H         1 RES1    0.0000
     38 H18        7.9339    0.4565    9.8086 H         1 RES1    0.0000
     39 H19        8.8372    1.1240    8.7158 H         1 RES1    0.0000
     40 C16        5.9206    0.9136    3.2754 C.ar      1 RES1    0.0000
     41 C17        4.8135    1.6378    3.6814 C.ar      1 RES1    0.0000
     42 H20        4.9177    2.3404    4.2815 H         1 RES1    0.0000
     43 C18        3.5482    1.3261    3.2003 C.ar      1 RES1    0.0000
     44 H21        2.8117    1.8218    3.4796 H         1 RES1    0.0000
     45 C19        3.3769    0.2822    2.3089 C.ar      1 RES1    0.0000
     46 H22        2.5341    0.0706    1.9766 H         1 RES1    0.0000
     47 C20        4.4823   -0.4288    1.9309 C.ar      1 RES1    0.0000
     48 C21        5.7407   -0.1405    2.4081 C.ar      1 RES1    0.0000
     49 H23        6.4684   -0.6567    2.1445 H         1 RES1    0.0000
     50 N2         4.3292   -1.5552    0.9919 N.pl3     1 RES1    0.0000
     51 O5         3.2832   -1.6342    0.3595 O.2       1 RES1    0.0000
     52 O6         5.2630   -2.3355    0.8716 O.2       1 RES1    0.0000
     53 C22        9.3307    2.1637    2.3067 C.2       1 RES1    0.0000
     54 O7         9.9936    1.2055    2.5456 O.2       1 RES1    0.0000
     55 O8         9.7293    3.1864    1.5867 O.3       1 RES1    0.0000
     56 C23       11.1132    3.1834    1.1319 C.3       1 RES1    0.0000
     57 H24       11.2798    3.9691    0.6079 H         1 RES1    0.0000
     58 H25       11.2724    2.4019    0.5986 H         1 RES1    0.0000
     59 H26       11.6991    3.1762    1.8927 H         1 RES1    0.0000
@<TRIPOS>BOND
     1    1    2 1
     2    2    3 1
     3    4    2 1
     4    5    4 1
     5    6    5 1
     6    7    1 1
     7    8    7 1
     8    9    2 1
     9   10    9 ar
    10   11   10 1
    11   12   10 ar
    12   13   12 1
    13   14   12 ar
    14   15   14 ar
    15   16   15 1
    16   17    9 ar
    17   18   17 1
    18   19   14 1
    19   20   19 1
    20   21   20 1
    21   22   20 1
    22   23   20 1
    23   24    4 1
    24   25   24 2
    25   26   24 1
    26   27   26 1
    27   28   27 1
    28   29   28 1
    29   30   28 1
    30   31   28 1
    31   32   27 1
    32   33   32 1
    33   34   32 1
    34   35   32 1
    35   36   27 1
    36   37   36 1
    37   38   36 1
    38   39   36 1
    39   40    5 1
    40   41   40 ar
    41   42   41 1
    42   43   41 ar
    43   44   43 1
    44   45   43 ar
    45   46   45 1
    46   47   45 ar
    47   48   40 ar
    48   49   48 1
    49   50   47 1
    50   51   50 2
    51   52   50 2
    52   53    7 1
    53   54   53 2
    54   55   53 1
    55   56   55 1
    56   57   56 1
    57   58   56 1
    58   59   56 1
    59    5    7 1
    60   15   17 ar
    61   47   48 ar
@<TRIPOS>SUBSTRUCTURE
     1 RES1 1

@<TRIPOS>CRYSIN
  10.3830    6.0303   18.7366  90.0000  95.5910  90.0000   4 1

