# MOL2 file generated by ConQuest
# Please check atom types

@<TRIPOS>MOLECULE
SECVOL
    38    39     1
SMALL
NO_CHARGES
****
Generated from CSD

@<TRIPOS>ATOM
      1 O1         4.2116    4.5796    1.8013 O.2       1 RES1    0.0000
      2 O2         5.7513    4.5679    0.2869 O.2       1 RES1    0.0000
      3 O3         3.1988    1.4964    3.2668 O.2       1 RES1    0.0000
      4 O4         4.0806   -0.2619    2.3618 O.2       1 RES1    0.0000
      5 N1         6.1247    3.5357    2.2191 N.3       1 RES1    0.0000
      6 N2         5.3815    1.4035    2.9735 N.3       1 RES1    0.0000
      7 N3         5.3015    4.2534    1.3756 N.pl3     1 RES1    0.0000
      8 N4         4.1509    0.8528    2.8442 N.pl3     1 RES1    0.0000
      9 C1         5.4707    2.8146    3.2936 C.3       1 RES1    0.0000
     10 C2         7.3497    2.9509    1.6704 C.3       1 RES1    0.0000
     11 C3         7.1290    1.5169    1.2621 C.3       1 RES1    0.0000
     12 C4         6.5684    0.7283    2.4225 C.3       1 RES1    0.0000
     13 H1         4.5760    3.1997    3.4323 H         1 RES1    0.0000
     14 H2         7.6601    3.5158    1.0366 H         1 RES1    0.0000
     15 H3         8.0869    3.0321    2.3910 H         1 RES1    0.0000
     16 H4         6.4864    1.5288    0.5313 H         1 RES1    0.0000
     17 H5         7.9687    1.0839    0.9901 H         1 RES1    0.0000
     18 H6         6.3323   -0.0234    2.1363 H         1 RES1    0.0000
     19 H7         7.2012    0.6649    3.1745 H         1 RES1    0.0000
     20 C1A        6.2910    3.0030    4.5896 C.3       1 RES1    0.0000
     21 N1A        5.6369    2.2819    5.6640 N.3       1 RES1    0.0000
     22 N2A        6.3801    4.4141    4.9096 N.3       1 RES1    0.0000
     23 H1A        7.1856    2.6179    4.4508 H         1 RES1    0.0000
     24 N3A        6.4601    1.5642    6.5075 N.pl3     1 RES1    0.0000
     25 C2A        4.4119    2.8667    6.2127 C.3       1 RES1    0.0000
     26 N4A        7.6108    4.9648    5.0389 N.pl3     1 RES1    0.0000
     27 C4A        5.1932    5.0893    5.4606 C.3       1 RES1    0.0000
     28 O1A        7.5500    1.2380    6.0818 O.2       1 RES1    0.0000
     29 O2A        6.0103    1.2497    7.5962 O.2       1 RES1    0.0000
     30 C3A        4.6326    4.3007    6.6210 C.3       1 RES1    0.0000
     31 H2A        4.1015    2.3018    6.8465 H         1 RES1    0.0000
     32 H3A        3.6747    2.7855    5.4922 H         1 RES1    0.0000
     33 O3A        8.5628    4.3213    4.6164 O.2       1 RES1    0.0000
     34 O4A        7.6810    6.0795    5.5213 O.2       1 RES1    0.0000
     35 H6A        5.4293    5.8410    5.7468 H         1 RES1    0.0000
     36 H7A        4.5604    5.1527    4.7086 H         1 RES1    0.0000
     37 H4A        5.2752    4.2888    7.3518 H         1 RES1    0.0000
     38 H5A        3.7929    4.7338    6.8930 H         1 RES1    0.0000
@<TRIPOS>BOND
     1    1    7 2
     2    2    7 2
     3    3    8 2
     4    4    8 2
     5    5    7 1
     6    6    8 1
     7    9    5 1
     8   10    5 1
     9   11   10 1
    10   12    6 1
    11   13    9 1
    12   14   10 1
    13   15   10 1
    14   16   11 1
    15   17   11 1
    16   18   12 1
    17   19   12 1
    18   20    9 1
    19   21   20 1
    20   22   20 1
    21   23   20 1
    22   24   21 1
    23   25   21 1
    24   26   22 1
    25   27   22 1
    26   28   24 2
    27   29   24 2
    28   30   25 1
    29   31   25 1
    30   32   25 1
    31   33   26 2
    32   34   26 2
    33   35   27 1
    34   36   27 1
    35   37   30 1
    36   38   30 1
    37    6    9 1
    38   11   12 1
    39   27   30 1
@<TRIPOS>SUBSTRUCTURE
     1 RES1 1

@<TRIPOS>CRYSIN
   6.6020    7.3410    8.2310  89.5400  74.5600  66.1500   2 1

