# MOL2 file generated by ConQuest
# Please check atom types

@<TRIPOS>MOLECULE
SECVON
    28    29     1
SMALL
NO_CHARGES
****
Generated from CSD

@<TRIPOS>ATOM
      1 C1         3.7028    0.5162    2.2010 C.ar      1 RES1    0.0000
      2 H1         3.3679    0.1193    2.9719 H         1 RES1    0.0000
      3 C2         4.7842    1.3443    2.2511 C.ar      1 RES1    0.0000
      4 C3         6.5019    2.6220    2.8773 C.3       1 RES1    0.0000
      5 H2         6.3666    3.4955    3.2754 H         1 RES1    0.0000
      6 H3         7.3860    2.3057    3.1214 H         1 RES1    0.0000
      7 C4         5.3043    1.9448    1.1253 C.ar      1 RES1    0.0000
      8 C5         4.7585    1.7565   -0.1069 C.ar      1 RES1    0.0000
      9 H4         5.1073    2.1637   -0.8674 H         1 RES1    0.0000
     10 C6         3.6485    0.9183   -0.1641 C.ar      1 RES1    0.0000
     11 C7         3.1087    0.2795    0.9523 C.ar      1 RES1    0.0000
     12 C8         1.9232   -0.5828    0.9017 C.2       1 RES1    0.0000
     13 H5         1.1942   -0.2812    0.4098 H         1 RES1    0.0000
     14 C9         1.8101   -1.7683    1.5077 C.2       1 RES1    0.0000
     15 C10        0.5268   -2.5210    1.4706 C.2       1 RES1    0.0000
     16 C11       -0.5484   -4.4745    2.2321 C.3       1 RES1    0.0000
     17 H6        -1.1004   -4.1274    2.9365 H         1 RES1    0.0000
     18 H7        -0.3044   -5.3809    2.4327 H         1 RES1    0.0000
     19 H8        -1.0335   -4.4496    1.4035 H         1 RES1    0.0000
     20 C12        2.9183   -2.3862    2.1806 C.1       1 RES1    0.0000
     21 N1         3.7896   -2.8812    2.7159 N.1       1 RES1    0.0000
     22 N2         3.1015    0.6805   -1.4909 N.pl3     1 RES1    0.0000
     23 O1         5.5039    1.7070    3.3406 O.3       1 RES1    0.0000
     24 O2         6.3820    2.7042    1.4547 O.3       1 RES1    0.0000
     25 O3         2.3437   -0.2557   -1.6641 O.2       1 RES1    0.0000
     26 O4         3.4276    1.4358   -2.3885 O.2       1 RES1    0.0000
     27 O5        -0.4566   -2.1248    0.9279 O.2       1 RES1    0.0000
     28 O6         0.6453   -3.6699    2.1146 O.3       1 RES1    0.0000
@<TRIPOS>BOND
     1    1    2 1
     2    3    1 ar
     3    4    5 1
     4    6    4 1
     5    7    3 ar
     6    8    7 ar
     7    9    8 1
     8   10    8 ar
     9   11    1 ar
    10   12   11 1
    11   13   12 1
    12   14   12 2
    13   15   14 1
    14   16   17 1
    15   18   16 1
    16   19   16 1
    17   20   14 1
    18   21   20 3
    19   22   10 1
    20   23    3 1
    21   24    4 1
    22   25   22 2
    23   26   22 2
    24   27   15 2
    25   28   15 1
    26    4   23 1
    27    7   24 1
    28   10   11 ar
    29   16   28 1
@<TRIPOS>SUBSTRUCTURE
     1 RES1 1

@<TRIPOS>CRYSIN
  10.8191    7.3220   15.4133  90.0000  91.6910  90.0000 231 1

