# MOL2 file generated by ConQuest
# Please check atom types

@<TRIPOS>MOLECULE
SECZIK
    47    49     1
SMALL
NO_CHARGES
****
Generated from CSD

@<TRIPOS>ATOM
      1 O1         3.9064    9.7352   10.1718 O.2       1 RES1    0.0000
      2 O2         4.8644   10.5712    8.4623 O.2       1 RES1    0.0000
      3 O3         0.4436   14.8083   10.3703 O.3       1 RES1    0.0000
      4 N1         1.2552    5.3354    4.5047 N.1       1 RES1    0.0000
      5 N2        -1.0848    7.4364    7.4466 N.1       1 RES1    0.0000
      6 N3         3.9817    9.9425    8.9866 N.pl3     1 RES1    0.0000
      7 C1         2.7643    8.7529    4.7032 C.ar      1 RES1    0.0000
      8 C2         3.6743    7.7053    4.5562 C.ar      1 RES1    0.0000
      9 H1         3.5609    6.9253    5.0480 H         1 RES1    0.0000
     10 C3         4.7278    7.8130    3.6991 C.ar      1 RES1    0.0000
     11 H2         5.3360    7.1156    3.6105 H         1 RES1    0.0000
     12 C4         4.8826    8.9659    2.9663 C.ar      1 RES1    0.0000
     13 H3         5.5798    9.0252    2.3539 H         1 RES1    0.0000
     14 C5         4.0340   10.0283    3.1167 C.ar      1 RES1    0.0000
     15 H4         4.1701   10.8053    2.6242 H         1 RES1    0.0000
     16 C6         2.9603    9.9483    4.0119 C.ar      1 RES1    0.0000
     17 C7         2.0962   11.1457    4.2288 C.3       1 RES1    0.0000
     18 H5         1.7633   11.4465    3.3689 H         1 RES1    0.0000
     19 H6         2.6417   11.8583    4.5969 H         1 RES1    0.0000
     20 C8         0.9055   10.9135    5.1575 C.3       1 RES1    0.0000
     21 H7         0.1643   10.5588    4.6434 H         1 RES1    0.0000
     22 H8         0.6264   11.7616    5.5366 H         1 RES1    0.0000
     23 C9         1.2412    9.9417    6.2937 C.3       1 RES1    0.0000
     24 H9         0.4346    9.7896    6.8291 H         1 RES1    0.0000
     25 C10        1.6288    8.6593    5.6269 C.2       1 RES1    0.0000
     26 C11        2.3539   10.5059    7.2150 C.3       1 RES1    0.0000
     27 H10        3.0852   10.8240    6.6447 H         1 RES1    0.0000
     28 C12        1.8565   11.6747    8.0257 C.ar      1 RES1    0.0000
     29 C13        2.4077   12.9254    7.9049 C.ar      1 RES1    0.0000
     30 H11        3.0944   13.0549    7.2909 H         1 RES1    0.0000
     31 C14        1.9769   14.0039    8.6651 C.ar      1 RES1    0.0000
     32 H12        2.3733   14.8397    8.5636 H         1 RES1    0.0000
     33 C15        0.9595   13.8215    9.5686 C.ar      1 RES1    0.0000
     34 C16        0.3825   12.5797    9.6998 C.ar      1 RES1    0.0000
     35 H13       -0.3096   12.4543   10.3071 H         1 RES1    0.0000
     36 C17        0.8210   11.5254    8.9411 C.ar      1 RES1    0.0000
     37 H14        0.4175   10.6929    9.0416 H         1 RES1    0.0000
     38 C18        0.9134    7.5289    5.8204 C.2       1 RES1    0.0000
     39 C19        1.1276    6.3034    5.0877 C.1       1 RES1    0.0000
     40 C20       -0.1873    7.4835    6.7388 C.1       1 RES1    0.0000
     41 C21        2.9036    9.4080    8.1140 C.3       1 RES1    0.0000
     42 H15        2.1885    9.0501    8.6639 H         1 RES1    0.0000
     43 H16        3.2542    8.6866    7.5684 H         1 RES1    0.0000
     44 C22        1.0908   16.0689   10.3818 C.3       1 RES1    0.0000
     45 H17        1.9885   15.9645   10.7063 H         1 RES1    0.0000
     46 H18        0.6106   16.6697   10.9551 H         1 RES1    0.0000
     47 H19        1.1133   16.4263    9.4909 H         1 RES1    0.0000
@<TRIPOS>BOND
     1    1    6 2
     2    2    6 2
     3    3   33 1
     4    4   39 3
     5    5   40 3
     6    6   41 1
     7    7    8 ar
     8    8    9 1
     9   10    8 ar
    10   11   10 1
    11   12   10 ar
    12   13   12 1
    13   14   12 ar
    14   15   14 1
    15   16    7 ar
    16   17   16 1
    17   18   17 1
    18   19   17 1
    19   20   17 1
    20   21   20 1
    21   22   20 1
    22   23   20 1
    23   24   23 1
    24   25    7 1
    25   26   23 1
    26   27   26 1
    27   28   26 1
    28   29   28 ar
    29   30   29 1
    30   31   29 ar
    31   32   31 1
    32   33   31 ar
    33   34   33 ar
    34   35   34 1
    35   36   28 ar
    36   37   36 1
    37   38   25 2
    38   39   38 1
    39   40   38 1
    40   41   26 1
    41   42   41 1
    42   43   41 1
    43   44    3 1
    44   45   44 1
    45   46   44 1
    46   47   44 1
    47   14   16 ar
    48   23   25 1
    49   34   36 ar
@<TRIPOS>SUBSTRUCTURE
     1 RES1 1

@<TRIPOS>CRYSIN
   7.0740   15.6010   17.9090  90.0000  91.7600  90.0000  14 1

