# MOL2 file generated by ConQuest
# Please check atom types

@<TRIPOS>MOLECULE
SEDHOB
   185   197     1
SMALL
NO_CHARGES
****
Generated from CSD

@<TRIPOS>ATOM
      1 C1         2.5963   12.7437   -0.6302 C.ar      1 RES1    0.0000
      2 C2         1.7685   11.7190   -0.4108 C.ar      1 RES1    0.0000
      3 H1         0.8488   11.8326   -0.5010 H         1 RES1    0.0000
      4 C3         2.2954   10.4671   -0.0420 C.ar      1 RES1    0.0000
      5 H2         1.7272    9.7528    0.1385 H         1 RES1    0.0000
      6 C4         3.6554   10.3030    0.0513 C.ar      1 RES1    0.0000
      7 H3         4.0061    9.4701    0.2676 H         1 RES1    0.0000
      8 C5         4.5315   11.3984   -0.1805 C.ar      1 RES1    0.0000
      9 C6         4.0127   12.6680   -0.4839 C.ar      1 RES1    0.0000
     10 C7         5.9488   11.2924   -0.0389 C.ar      1 RES1    0.0000
     11 C8         7.7998    9.8512    0.5866 C.3       1 RES1    0.0000
     12 H4         8.2123   10.6387    0.9741 H         1 RES1    0.0000
     13 H5         8.2633    9.6291   -0.2365 H         1 RES1    0.0000
     14 C9         7.8510    8.6876    1.5591 C.3       1 RES1    0.0000
     15 H6         7.1927    8.0314    1.2853 H         1 RES1    0.0000
     16 H7         8.7251    8.2712    1.4922 H         1 RES1    0.0000
     17 C10        7.6067    9.0309    2.9657 C.2       1 RES1    0.0000
     18 H8         6.7555    9.3186    3.2069 H         1 RES1    0.0000
     19 C11        8.5507    8.9501    3.9320 C.2       1 RES1    0.0000
     20 H9         9.4051    8.7078    3.6550 H         1 RES1    0.0000
     21 C12        8.3769    9.2101    5.3977 C.3       1 RES1    0.0000
     22 H10        8.6601    8.4226    5.8894 H         1 RES1    0.0000
     23 H11        8.9580    9.9421    5.6560 H         1 RES1    0.0000
     24 C13        6.7216   12.4005   -0.2505 C.ar      1 RES1    0.0000
     25 H12        7.6500   12.3449   -0.2630 H         1 RES1    0.0000
     26 C14        6.0675   13.6322   -0.4481 C.ar      1 RES1    0.0000
     27 C15        6.8968   14.9119   -0.4326 C.2       1 RES1    0.0000
     28 C16        6.5482   17.3349    0.0000 C.ar      1 RES1    0.0000
     29 C17        7.7752   17.8220   -0.4046 C.ar      1 RES1    0.0000
     30 H13        8.4311   17.2390   -0.7111 H         1 RES1    0.0000
     31 C18        8.0244   19.2027   -0.3517 C.ar      1 RES1    0.0000
     32 H14        8.8488   19.5207   -0.6411 H         1 RES1    0.0000
     33 C19        7.1012   20.0987    0.1105 C.ar      1 RES1    0.0000
     34 H15        7.2989   21.0073    0.1245 H         1 RES1    0.0000
     35 C20        5.8431   19.6368    0.5664 C.ar      1 RES1    0.0000
     36 C21        5.5665   18.2435    0.5073 C.ar      1 RES1    0.0000
     37 C22        4.8296   20.4722    1.0892 C.ar      1 RES1    0.0000
     38 C23        4.1754   22.6454    1.8625 C.3       1 RES1    0.0000
     39 H16        3.8361   22.2214    2.6654 H         1 RES1    0.0000
     40 H17        3.4306   22.7994    1.2619 H         1 RES1    0.0000
     41 C24        4.8174   23.9402    2.2095 C.3       1 RES1    0.0000
     42 H18        5.2435   24.3163    1.4113 H         1 RES1    0.0000
     43 C25        3.6893   24.8918    2.6934 C.3       1 RES1    0.0000
     44 H19        3.0108   24.9524    2.0181 H         1 RES1    0.0000
     45 H20        4.0559   25.7626    2.8584 H         1 RES1    0.0000
     46 H21        3.3065   24.5460    3.5041 H         1 RES1    0.0000
     47 C26        5.7798   23.7636    3.2178 C.3       1 RES1    0.0000
     48 H22        5.3512   23.7812    4.0767 H         1 RES1    0.0000
     49 H23        6.4272   24.4703    3.1680 H         1 RES1    0.0000
     50 H24        6.2198   22.9180    3.0964 H         1 RES1    0.0000
     51 C27        3.6103   19.9372    1.4160 C.ar      1 RES1    0.0000
     52 H25        2.9086   20.4823    1.6836 H         1 RES1    0.0000
     53 C28        3.4522   18.5565    1.3366 C.ar      1 RES1    0.0000
     54 C29        2.1299   17.9810    1.7987 C.2       1 RES1    0.0000
     55 C30        1.2053   15.8154    2.5783 C.ar      1 RES1    0.0000
     56 C31       -0.1106   16.2092    2.7946 C.ar      1 RES1    0.0000
     57 H26       -0.4026   17.0800    2.6483 H         1 RES1    0.0000
     58 C32       -1.0168   15.1340    3.2769 C.ar      1 RES1    0.0000
     59 H27       -1.8984   15.3662    3.4590 H         1 RES1    0.0000
     60 C33       -0.6682   13.8770    3.4652 C.ar      1 RES1    0.0000
     61 H28       -1.2991   13.2435    3.7219 H         1 RES1    0.0000
     62 C34        0.6657   13.5085    3.2738 C.ar      1 RES1    0.0000
     63 C35        1.6039   14.4903    2.8521 C.ar      1 RES1    0.0000
     64 C36        1.1428   12.1859    3.4107 C.ar      1 RES1    0.0000
     65 C37        0.6100    9.8790    3.8869 C.3       1 RES1    0.0000
     66 H29        0.9004    9.5761    3.0124 H         1 RES1    0.0000
     67 H30        1.3672    9.8184    4.4922 H         1 RES1    0.0000
     68 C38       -0.4493    9.0259    4.3615 C.3       1 RES1    0.0000
     69 H31       -1.0946    9.0031    3.6239 H         1 RES1    0.0000
     70 C39       -1.1512    9.6089    5.4258 C.3       1 RES1    0.0000
     71 H32       -0.5543    9.7452    6.1664 H         1 RES1    0.0000
     72 H33       -1.8667    9.0284    5.6949 H         1 RES1    0.0000
     73 H34       -1.5126   10.4544    5.1472 H         1 RES1    0.0000
     74 C40        0.0183    7.5518    4.5171 C.3       1 RES1    0.0000
     75 H35        0.3915    7.2439    3.6877 H         1 RES1    0.0000
     76 H36       -0.7327    7.0016    4.7536 H         1 RES1    0.0000
     77 H37        0.6827    7.4963    5.2064 H         1 RES1    0.0000
     78 C41        2.4404   11.9234    3.2583 C.ar      1 RES1    0.0000
     79 H38        2.7571   11.0552    3.3563 H         1 RES1    0.0000
     80 C42        3.3099   12.9456    2.9533 C.ar      1 RES1    0.0000
     81 C43        4.7549   12.6428    2.9346 C.2       1 RES1    0.0000
     82 C44        6.9329   13.8467    2.8973 C.ar      1 RES1    0.0000
     83 C45        7.8231   12.8043    2.7199 C.ar      1 RES1    0.0000
     84 H39        7.5208   11.9259    2.6748 H         1 RES1    0.0000
     85 C46        9.2098   13.0996    2.6094 C.ar      1 RES1    0.0000
     86 H40        9.8045   12.3954    2.4880 H         1 RES1    0.0000
     87 C47        9.7000   14.3389    2.6701 C.ar      1 RES1    0.0000
     88 H41       10.6120   14.4828    2.5565 H         1 RES1    0.0000
     89 C48        8.8646   15.3990    2.8988 C.ar      1 RES1    0.0000
     90 C49        7.4520   15.1617    3.0342 C.ar      1 RES1    0.0000
     91 C50        9.2985   16.7645    3.0420 C.ar      1 RES1    0.0000
     92 C51       11.1574   18.2738    3.2194 C.3       1 RES1    0.0000
     93 H42       10.7794   18.5363    4.0736 H         1 RES1    0.0000
     94 H43       10.8264   18.8947    2.5534 H         1 RES1    0.0000
     95 C52       12.7041   18.4328    3.3049 C.3       1 RES1    0.0000
     96 H44       13.0813   19.1825    3.8137 H         1 RES1    0.0000
     97 C53       13.3574   16.8730    3.5072 C.3       1 RES1    0.0000
     98 H45       12.6882   16.2168    3.2987 H         1 RES1    0.0000
     99 H46       13.6422   16.7594    4.4175 H         1 RES1    0.0000
    100 H47       14.1085   16.7594    2.9206 H         1 RES1    0.0000
    101 C54       13.1357   18.2107    2.0135 C.3       1 RES1    0.0000
    102 H48       14.0935   18.2890    1.9777 H         1 RES1    0.0000
    103 H49       12.7395   18.8594    1.4268 H         1 RES1    0.0000
    104 H50       12.8768   17.3273    1.7380 H         1 RES1    0.0000
    105 C55        8.4199   17.7085    3.3641 C.ar      1 RES1    0.0000
    106 H51        8.7024   18.5868    3.4808 H         1 RES1    0.0000
    107 C56        7.0587   17.3753    3.5290 C.ar      1 RES1    0.0000
    108 C57        6.1317   18.4556    3.9522 C.2       1 RES1    0.0000
    109 C58        3.8269   18.7584    4.8283 C.ar      1 RES1    0.0000
    110 C59        3.7711   20.1164    4.7722 C.ar      1 RES1    0.0000
    111 H52        4.5125   20.5984    4.4875 H         1 RES1    0.0000
    112 C60        2.5970   20.7928    5.1410 C.ar      1 RES1    0.0000
    113 H53        2.5744   21.7216    5.1005 H         1 RES1    0.0000
    114 C61        1.4876   20.1189    5.5596 C.ar      1 RES1    0.0000
    115 H54        0.7087   20.5808    5.7727 H         1 RES1    0.0000
    116 C62        1.5307   18.7559    5.6607 C.ar      1 RES1    0.0000
    117 C63        2.7202   18.0164    5.3495 C.ar      1 RES1    0.0000
    118 C64        0.4172   17.8952    6.0995 C.ar      1 RES1    0.0000
    119 C65       -1.8549   17.7993    6.7515 C.3       1 RES1    0.0000
    120 H55       -1.7434   16.8982    6.4076 H         1 RES1    0.0000
    121 H56       -1.7812   17.7463    7.7162 H         1 RES1    0.0000
    122 C66       -3.1603   18.2082    6.4480 C.3       1 RES1    0.0000
    123 H57       -3.2903   18.2713    5.4787 H         1 RES1    0.0000
    124 C67       -4.3957   17.9079    7.1093 C.3       1 RES1    0.0000
    125 H58       -5.1190   18.3445    6.6519 H         1 RES1    0.0000
    126 H59       -4.5418   16.9588    7.1047 H         1 RES1    0.0000
    127 H60       -4.3584   18.2208    8.0165 H         1 RES1    0.0000
    128 C68       -3.0501   19.5030    7.0331 C.3       1 RES1    0.0000
    129 H61       -3.8807   19.9725    6.9273 H         1 RES1    0.0000
    130 H62       -2.8461   19.4172    7.9667 H         1 RES1    0.0000
    131 H63       -2.3493   19.9927    6.5959 H         1 RES1    0.0000
    132 C69        0.5865   16.6357    6.2971 C.ar      1 RES1    0.0000
    133 H64       -0.1125   16.1183    6.6285 H         1 RES1    0.0000
    134 C70        1.8239   16.0376    6.0139 C.ar      1 RES1    0.0000
    135 C71        1.9268   14.5484    6.3158 C.2       1 RES1    0.0000
    136 C72        3.5503   12.6781    6.3702 C.ar      1 RES1    0.0000
    137 C73        2.6327   11.6988    6.5414 C.ar      1 RES1    0.0000
    138 H65        1.7287   11.8881    6.6628 H         1 RES1    0.0000
    139 C74        3.1032   10.4242    6.5274 C.ar      1 RES1    0.0000
    140 H66        2.4912    9.7503    6.7172 H         1 RES1    0.0000
    141 C75        4.3570   10.0405    6.2675 C.ar      1 RES1    0.0000
    142 H67        4.5902    9.1445    6.1695 H         1 RES1    0.0000
    143 C76        5.3177   11.0981    6.1493 C.ar      1 RES1    0.0000
    144 C77        4.9411   12.4307    6.2489 C.ar      1 RES1    0.0000
    145 C78        6.7189   10.8507    5.9361 C.ar      1 RES1    0.0000
    146 C79        7.6077   11.8982    5.9501 C.ar      1 RES1    0.0000
    147 H68        8.5214   11.7594    5.8474 H         1 RES1    0.0000
    148 C80        7.0777   13.2081    6.1306 C.ar      1 RES1    0.0000
    149 C81        7.9790   14.4096    6.2271 C.2       1 RES1    0.0000
    150 C82       10.2428   15.0860    6.1415 C.3       1 RES1    0.0000
    151 H69       10.1033   15.7094    5.4242 H         1 RES1    0.0000
    152 H70       11.1236   14.7099    6.0699 H         1 RES1    0.0000
    153 H71       10.1558   15.5403    6.9817 H         1 RES1    0.0000
    154 N1         2.0265   14.0184   -1.1016 N.pl3     1 RES1    0.0000
    155 N2         4.7642   13.7892   -0.5679 N.ar      1 RES1    0.0000
    156 N3         6.1658   15.9974   -0.0871 N.am      1 RES1    0.0000
    157 H72        5.3432   15.8382    0.1089 H         1 RES1    0.0000
    158 N4         4.3810   17.7163    0.9336 N.ar      1 RES1    0.0000
    159 N5         2.1863   16.6814    2.0850 N.am      1 RES1    0.0000
    160 H73        2.9513   16.3152    1.9419 H         1 RES1    0.0000
    161 N6         2.9352   14.1900    2.7230 N.ar      1 RES1    0.0000
    162 N7         5.5529   13.7543    2.9346 N.am      1 RES1    0.0000
    163 H74        5.1331   14.5055    2.9626 H         1 RES1    0.0000
    164 N8         6.5738   16.1736    3.3641 N.ar      1 RES1    0.0000
    165 N9         4.9378   18.0005    4.4315 N.am      1 RES1    0.0000
    166 H75        4.8562   17.1481    4.4968 H         1 RES1    0.0000
    167 N10        2.8663   16.6938    5.5284 N.ar      1 RES1    0.0000
    168 N11        3.1854   14.0335    6.2551 N.am      1 RES1    0.0000
    169 H76        3.8259   14.5938    6.1337 H         1 RES1    0.0000
    170 N12        5.8179   13.4681    6.2364 N.ar      1 RES1    0.0000
    171 O1         2.4657   14.4676   -2.1597 O.2       1 RES1    0.0000
    172 O2         1.1145   14.5330   -0.4637 O.2       1 RES1    0.0000
    173 O3         6.3892   10.0829    0.3330 O.3       1 RES1    0.0000
    174 O4         7.0540    9.5281    5.7759 O.3       1 RES1    0.0000
    175 O5         8.1019   14.8909   -0.6815 O.2       1 RES1    0.0000
    176 O6         5.1489   21.7782    1.2230 O.3       1 RES1    0.0000
    177 O7         1.1389   18.6767    1.8968 O.2       1 RES1    0.0000
    178 O8         0.1674   11.2848    3.7982 O.3       1 RES1    0.0000
    179 O9         5.1916   11.4951    2.9564 O.2       1 RES1    0.0000
    180 O10       10.6448   16.9311    2.8848 O.3       1 RES1    0.0000
    181 O11        6.4359   19.6247    3.8713 O.2       1 RES1    0.0000
    182 O12       -0.7307   18.5969    6.2675 O.3       1 RES1    0.0000
    183 O13        0.9417   13.9048    6.6068 O.2       1 RES1    0.0000
    184 O14        9.2660   14.0363    6.0606 O.3       1 RES1    0.0000
    185 O15        7.6501   15.5164    6.4527 O.2       1 RES1    0.0000
@<TRIPOS>BOND
     1    1    2 ar
     2    2    3 1
     3    4    2 ar
     4    5    4 1
     5    6    4 ar
     6    7    6 1
     7    8    6 ar
     8    9    1 ar
     9   10    8 ar
    10   11   12 1
    11   13   11 1
    12   14   11 1
    13   15   14 1
    14   16   14 1
    15   17   14 1
    16   18   17 1
    17   19   17 2
    18   20   19 1
    19   21   19 1
    20   22   21 1
    21   23   21 1
    22   24   10 ar
    23   25   24 1
    24   26   24 ar
    25   27   26 1
    26   28   29 ar
    27   29   30 1
    28   31   29 ar
    29   32   31 1
    30   33   31 ar
    31   34   33 1
    32   35   33 ar
    33   36   28 ar
    34   37   35 ar
    35   38   39 1
    36   40   38 1
    37   41   38 1
    38   42   41 1
    39   43   41 1
    40   44   43 1
    41   45   43 1
    42   46   43 1
    43   47   41 1
    44   48   47 1
    45   49   47 1
    46   50   47 1
    47   51   37 ar
    48   52   51 1
    49   53   51 ar
    50   54   53 1
    51   55   56 ar
    52   56   57 1
    53   58   56 ar
    54   59   58 1
    55   60   58 ar
    56   61   60 1
    57   62   60 ar
    58   63   55 ar
    59   64   62 ar
    60   65   66 1
    61   67   65 1
    62   68   65 1
    63   69   68 1
    64   70   68 1
    65   71   70 1
    66   72   70 1
    67   73   70 1
    68   74   68 1
    69   75   74 1
    70   76   74 1
    71   77   74 1
    72   78   64 ar
    73   79   78 1
    74   80   78 ar
    75   81   80 1
    76   82   83 ar
    77   83   84 1
    78   85   83 ar
    79   86   85 1
    80   87   85 ar
    81   88   87 1
    82   89   87 ar
    83   90   82 ar
    84   91   89 ar
    85   92   93 1
    86   94   92 1
    87   95   92 1
    88   96   95 1
    89   97   95 1
    90   98   97 1
    91   99   97 1
    92  100   97 1
    93  101   95 1
    94  102  101 1
    95  103  101 1
    96  104  101 1
    97  105   91 ar
    98  106  105 1
    99  107  105 ar
   100  108  107 1
   101  109  110 ar
   102  110  111 1
   103  112  110 ar
   104  113  112 1
   105  114  112 ar
   106  115  114 1
   107  116  114 ar
   108  117  109 ar
   109  118  116 ar
   110  119  120 1
   111  121  119 1
   112  122  119 1
   113  123  122 1
   114  124  122 1
   115  125  124 1
   116  126  124 1
   117  127  124 1
   118  128  122 1
   119  129  128 1
   120  130  128 1
   121  131  128 1
   122  132  118 ar
   123  133  132 1
   124  134  132 ar
   125  135  134 1
   126  136  137 ar
   127  137  138 1
   128  139  137 ar
   129  140  139 1
   130  141  139 ar
   131  142  141 1
   132  143  141 ar
   133  144  136 ar
   134  145  143 ar
   135  146  145 ar
   136  147  146 1
   137  148  146 ar
   138  149  148 1
   139  150  151 1
   140  152  150 1
   141  153  150 1
   142  154    1 1
   143  155    9 ar
   144  156   27 1
   145  157  156 1
   146  158   36 ar
   147  159   54 1
   148  160  159 1
   149  161   63 ar
   150  162   81 1
   151  163  162 1
   152  164   90 ar
   153  165  108 1
   154  166  165 1
   155  167  117 ar
   156  168  135 1
   157  169  168 1
   158  170  144 ar
   159  171  154 2
   160  172  154 2
   161  173   10 1
   162  174   21 1
   163  175   27 2
   164  176   37 1
   165  177   54 2
   166  178   64 1
   167  179   81 2
   168  180   91 1
   169  181  108 2
   170  182  118 1
   171  183  135 2
   172  184  149 1
   173  185  149 2
   174    8    9 ar
   175   11  173 1
   176   26  155 ar
   177   28  156 1
   178   35   36 ar
   179   38  176 1
   180   53  158 ar
   181   55  159 1
   182   62   63 ar
   183   65  178 1
   184   80  161 ar
   185   82  162 1
   186   89   90 ar
   187   92  180 1
   188  107  164 ar
   189  109  165 1
   190  116  117 ar
   191  119  182 1
   192  134  167 ar
   193  136  168 1
   194  143  144 ar
   195  145  174 1
   196  148  170 ar
   197  150  184 1
@<TRIPOS>SUBSTRUCTURE
     1 RES1 1

@<TRIPOS>CRYSIN
  19.0911   25.2401   15.8581  90.0000 101.1280  90.0000  14 1

