# MOL2 file generated by ConQuest
# Please check atom types

@<TRIPOS>MOLECULE
SEDHIV
   776   824     4
SMALL
NO_CHARGES
****
Generated from CSD

@<TRIPOS>ATOM
      1 C1        -4.7181    6.0131   30.4234 C.ar      1 RES1    0.0000
      2 C2        -5.9089    6.8318   30.4578 C.ar      1 RES1    0.0000
      3 H1        -5.8590    7.7445   30.6296 H         1 RES1    0.0000
      4 C3        -7.0817    6.2354   30.2392 C.ar      1 RES1    0.0000
      5 H2        -7.8593    6.7457   30.2579 H         1 RES1    0.0000
      6 C4        -7.1621    5.0072   30.0018 C.ar      1 RES1    0.0000
      7 H3        -8.0165    4.6521   29.9018 H         1 RES1    0.0000
      8 C5        -6.0684    4.1070   29.8768 C.ar      1 RES1    0.0000
      9 C6        -4.8656    4.6133   30.0268 C.ar      1 RES1    0.0000
     10 C7        -6.1759    2.7738   29.5832 C.ar      1 RES1    0.0000
     11 C8        -5.0377    2.0123   29.5114 C.ar      1 RES1    0.0000
     12 H4        -5.0957    1.0887   29.4177 H         1 RES1    0.0000
     13 C9        -3.7656    2.6490   29.5838 C.ar      1 RES1    0.0000
     14 C10       -2.5521    1.8137   29.3115 C.2       1 RES1    0.0000
     15 C11       -0.1537    2.2402   28.7511 C.ar      1 RES1    0.0000
     16 C12        0.4032    0.9301   28.7274 C.ar      1 RES1    0.0000
     17 H5        -0.1622    0.2017   28.8585 H         1 RES1    0.0000
     18 C13        1.7059    0.7019   28.5243 C.ar      1 RES1    0.0000
     19 H6         2.0334   -0.1690   28.5556 H         1 RES1    0.0000
     20 C14        2.5691    1.7555   28.2713 C.ar      1 RES1    0.0000
     21 H7         3.4723    1.5883   28.1245 H         1 RES1    0.0000
     22 C15        2.0894    3.0781   28.2413 C.ar      1 RES1    0.0000
     23 C16        0.7275    3.3291   28.4465 C.ar      1 RES1    0.0000
     24 C17        2.9036    4.3021   28.0402 C.ar      1 RES1    0.0000
     25 C18        5.1068    5.1235   27.5904 C.3       1 RES1    0.0000
     26 H8         4.5595    5.8597   27.2749 H         1 RES1    0.0000
     27 H9         5.5369    5.3992   28.4150 H         1 RES1    0.0000
     28 C19        6.0296    4.8188   26.6783 C.3       1 RES1    0.0000
     29 H10        6.5281    4.1963   27.2499 H         1 RES1    0.0000
     30 C20        5.9821    3.9358   25.5163 C.3       1 RES1    0.0000
     31 H11        5.2539    3.3185   25.6163 H         1 RES1    0.0000
     32 H12        6.8078    3.4498   25.4507 H         1 RES1    0.0000
     33 H13        5.8524    4.4597   24.7230 H         1 RES1    0.0000
     34 C21        7.0872    6.0035   26.7845 C.3       1 RES1    0.0000
     35 H14        6.7562    6.7706   26.3066 H         1 RES1    0.0000
     36 H15        7.9216    5.7247   26.4003 H         1 RES1    0.0000
     37 H16        7.2180    6.2336   27.7060 H         1 RES1    0.0000
     38 C22        2.3580    5.4974   28.0464 C.ar      1 RES1    0.0000
     39 H17        2.8813    6.2619   27.9527 H         1 RES1    0.0000
     40 C23        0.9970    5.5890   28.1932 C.ar      1 RES1    0.0000
     41 C24        0.4606    7.0208   28.0620 C.2       1 RES1    0.0000
     42 C25       -1.7498    8.1343   27.6341 C.ar      1 RES1    0.0000
     43 C26       -1.3714    9.4745   27.8278 C.ar      1 RES1    0.0000
     44 H18       -0.5161    9.7247   28.0933 H         1 RES1    0.0000
     45 C27       -2.3970   10.4008   27.5841 C.ar      1 RES1    0.0000
     46 H19       -2.1494   11.2981   27.5779 H         1 RES1    0.0000
     47 C28       -3.5892   10.1655   27.3811 C.ar      1 RES1    0.0000
     48 H20       -4.2006   10.8638   27.3280 H         1 RES1    0.0000
     49 C29       -4.0109    8.8648   27.2249 C.ar      1 RES1    0.0000
     50 C30       -3.0139    7.8012   27.2968 C.ar      1 RES1    0.0000
     51 C31       -5.3655    8.5183   26.9532 C.ar      1 RES1    0.0000
     52 C32       -7.7013    9.1868   26.8001 C.3       1 RES1    0.0000
     53 H21       -7.9508    8.5179   27.4561 H         1 RES1    0.0000
     54 H22       -7.8672    8.8256   25.9162 H         1 RES1    0.0000
     55 C33       -8.5533   10.5218   27.0188 C.3       1 RES1    0.0000
     56 H23       -8.2763   11.1711   26.3410 H         1 RES1    0.0000
     57 C34      -10.0265   10.1372   26.7376 C.3       1 RES1    0.0000
     58 H24      -10.0823    9.6783   25.8943 H         1 RES1    0.0000
     59 H25      -10.5634   10.9309   26.7033 H         1 RES1    0.0000
     60 H26      -10.3475    9.5622   27.4342 H         1 RES1    0.0000
     61 C35       -8.0464   11.0598   28.4587 C.3       1 RES1    0.0000
     62 H27       -8.2894   10.4296   29.1397 H         1 RES1    0.0000
     63 H28       -8.4548   11.9066   28.6430 H         1 RES1    0.0000
     64 H29       -7.0909   11.1612   28.4431 H         1 RES1    0.0000
     65 C36       -5.7070    7.1865   26.7408 C.ar      1 RES1    0.0000
     66 H30       -6.5872    6.9287   26.5815 H         1 RES1    0.0000
     67 C37       -4.6676    6.2521   26.7751 C.ar      1 RES1    0.0000
     68 C38       -5.0133    4.7836   26.5059 C.2       1 RES1    0.0000
     69 C39       -3.8033    2.6652   26.0770 C.ar      1 RES1    0.0000
     70 C40       -4.8722    1.7815   26.1907 C.ar      1 RES1    0.0000
     71 H31       -5.7289    2.1294   26.2941 H         1 RES1    0.0000
     72 C41       -4.7117    0.3947   26.1579 C.ar      1 RES1    0.0000
     73 H32       -5.4493   -0.1675   26.2254 H         1 RES1    0.0000
     74 C42       -3.4307   -0.1337   26.0208 C.ar      1 RES1    0.0000
     75 H33       -3.3024   -1.0537   26.0755 H         1 RES1    0.0000
     76 C43       -2.3405    0.7046   25.8037 C.ar      1 RES1    0.0000
     77 C44       -2.5280    2.1268   25.8084 C.ar      1 RES1    0.0000
     78 C45       -0.9837    0.2557   25.6132 C.ar      1 RES1    0.0000
     79 C46        0.4684   -1.6041   25.8037 C.3       1 RES1    0.0000
     80 H34        1.0311   -1.0230   26.3378 H         1 RES1    0.0000
     81 H35        0.8424   -1.6516   24.9104 H         1 RES1    0.0000
     82 C47        0.4329   -2.9801   26.4128 C.3       1 RES1    0.0000
     83 H36       -0.1946   -3.5388   25.9099 H         1 RES1    0.0000
     84 C48       -0.0305   -2.8768   27.8340 C.3       1 RES1    0.0000
     85 H37        0.6566   -2.4697   28.3681 H         1 RES1    0.0000
     86 H38       -0.2189   -3.7555   28.1745 H         1 RES1    0.0000
     87 H39       -0.8269   -2.3434   27.8746 H         1 RES1    0.0000
     88 C49        1.8222   -3.5933   26.3316 C.3       1 RES1    0.0000
     89 H40        2.0461   -3.7621   25.4133 H         1 RES1    0.0000
     90 H41        1.8365   -4.4193   26.8220 H         1 RES1    0.0000
     91 H42        2.4637   -2.9873   26.7127 H         1 RES1    0.0000
     92 C50        0.0371    1.1565   25.3567 C.ar      1 RES1    0.0000
     93 H43        0.9146    0.8794   25.2227 H         1 RES1    0.0000
     94 C51       -0.3329    2.5350   25.3092 C.ar      1 RES1    0.0000
     95 C52        0.8026    3.5340   25.0072 C.2       1 RES1    0.0000
     96 C53        0.9422    5.9644   24.7045 C.ar      1 RES1    0.0000
     97 C54        2.3195    6.1750   24.8841 C.ar      1 RES1    0.0000
     98 H44        2.8876    5.4504   25.0103 H         1 RES1    0.0000
     99 C55        2.8411    7.4892   24.8748 C.ar      1 RES1    0.0000
    100 H45        3.7532    7.6174   25.0010 H         1 RES1    0.0000
    101 C56        2.0188    8.6003   24.6792 C.ar      1 RES1    0.0000
    102 H46        2.3704    9.4619   24.7042 H         1 RES1    0.0000
    103 C57        0.6774    8.3984   24.4512 C.ar      1 RES1    0.0000
    104 C58        0.0944    7.1248   24.4828 C.ar      1 RES1    0.0000
    105 C59       -0.2102    9.4895   24.2138 C.ar      1 RES1    0.0000
    106 C60       -0.4881   11.8090   23.8140 C.3       1 RES1    0.0000
    107 H47       -0.7746   11.6681   22.8988 H         1 RES1    0.0000
    108 H48       -1.2806   11.7136   24.3669 H         1 RES1    0.0000
    109 C61       -0.1246   13.0955   23.8983 C.3       1 RES1    0.0000
    110 H49        0.6693   13.2142   23.3392 H         1 RES1    0.0000
    111 C62        0.3675   13.1785   25.4820 C.3       1 RES1    0.0000
    112 H50       -0.3689   12.9549   26.0567 H         1 RES1    0.0000
    113 H51        0.6678   14.0684   25.6788 H         1 RES1    0.0000
    114 H52        1.0855   12.5582   25.6257 H         1 RES1    0.0000
    115 C63       -1.0883   14.1537   23.5298 C.3       1 RES1    0.0000
    116 H53       -1.4187   13.9913   22.6458 H         1 RES1    0.0000
    117 H54       -0.6505   15.0081   23.5579 H         1 RES1    0.0000
    118 H55       -1.8212   14.1502   24.1513 H         1 RES1    0.0000
    119 C64       -1.5285    9.2312   24.0139 C.ar      1 RES1    0.0000
    120 H56       -2.1306    9.9282   23.8796 H         1 RES1    0.0000
    121 C65       -1.9718    7.9051   24.0170 C.ar      1 RES1    0.0000
    122 C66       -3.4065    7.6192   23.7090 C.2       1 RES1    0.0000
    123 C67       -4.9297    5.6907   23.3052 C.ar      1 RES1    0.0000
    124 C68       -6.1590    6.2864   23.4111 C.ar      1 RES1    0.0000
    125 H57       -6.2218    7.2051   23.5485 H         1 RES1    0.0000
    126 C69       -7.2883    5.5384   23.3205 C.ar      1 RES1    0.0000
    127 H58       -8.1048    5.9760   23.3986 H         1 RES1    0.0000
    128 C70       -7.3060    4.1725   23.1174 C.ar      1 RES1    0.0000
    129 H59       -8.0993    3.6881   23.1050 H         1 RES1    0.0000
    130 C71       -6.0489    3.5472   22.9341 C.ar      1 RES1    0.0000
    131 C72       -4.8541    4.2787   23.0075 C.ar      1 RES1    0.0000
    132 C73       -5.9392    2.1681   22.7426 C.ar      1 RES1    0.0000
    133 C74       -4.7261    1.6040   22.5140 C.ar      1 RES1    0.0000
    134 H60       -4.6477    0.6959   22.3272 H         1 RES1    0.0000
    135 C75       -3.5890    2.4321   22.5658 C.ar      1 RES1    0.0000
    136 C76       -2.2344    1.8262   22.2819 C.2       1 RES1    0.0000
    137 C77        0.0125    2.1855   21.8012 C.3       1 RES1    0.0000
    138 H61       -0.0460    1.7245   20.9622 H         1 RES1    0.0000
    139 H62        0.3127    1.5765   22.4802 H         1 RES1    0.0000
    140 H63        0.6345    2.9119   21.7243 H         1 RES1    0.0000
    141 C78       -7.5378    0.9132   29.2646 C.3       1 RES1    0.0000
    142 H64       -7.2165    0.4748   30.0674 H         1 RES1    0.0000
    143 H65       -6.9994    0.6109   28.5181 H         1 RES1    0.0000
    144 C79       -9.0484    0.5298   29.0178 C.3       1 RES1    0.0000
    145 H66       -9.1881   -0.3843   29.3115 H         1 RES1    0.0000
    146 H67       -9.6081    1.1030   29.5645 H         1 RES1    0.0000
    147 C80       -9.4788    0.6429   27.6435 C.2       1 RES1    0.0000
    148 H68       -9.6642    1.4972   27.3249 H         1 RES1    0.0000
    149 C81       -9.6311   -0.3594   26.8001 C.2       1 RES1    0.0000
    150 H69       -9.6338   -1.2181   27.1562 H         1 RES1    0.0000
    151 C82       -9.7953   -0.2289   25.3539 C.3       1 RES1    0.0000
    152 H70      -10.1782    0.6370   25.1446 H         1 RES1    0.0000
    153 H71      -10.3972   -0.9162   25.0291 H         1 RES1    0.0000
    154 C83       -8.4379   -0.3723   24.6730 C.3       1 RES1    0.0000
    155 H72       -8.0164   -1.1785   25.0072 H         1 RES1    0.0000
    156 H73       -7.8849    0.3769   24.9447 H         1 RES1    0.0000
    157 C84       -8.4298   -0.4323   23.1362 C.3       1 RES1    0.0000
    158 H74       -8.5929   -1.3395   22.8363 H         1 RES1    0.0000
    159 H75       -9.1258    0.1400   22.7770 H         1 RES1    0.0000
    160 C85       -7.0966    0.0295   22.6739 C.3       1 RES1    0.0000
    161 H76       -6.4007   -0.3259   23.2486 H         1 RES1    0.0000
    162 H77       -6.9317   -0.2703   21.7681 H         1 RES1    0.0000
    163 N1        -3.4226    6.6011   30.7608 N.pl3     1 RES1    0.0000
    164 N2        -3.5995    3.9143   29.8425 N.ar      1 RES1    0.0000
    165 N3        -1.4375    2.6216   29.0263 N.am      1 RES1    0.0000
    166 H78       -1.5835    3.4693   29.0241 H         1 RES1    0.0000
    167 N4         0.1690    4.6111   28.3700 N.ar      1 RES1    0.0000
    168 N5        -0.8925    7.0392   27.7778 N.am      1 RES1    0.0000
    169 H79       -1.2584    6.2673   27.6778 H         1 RES1    0.0000
    170 N6        -3.3725    6.4970   27.0419 N.ar      1 RES1    0.0000
    171 N7        -3.8849    4.0239   26.2329 N.am      1 RES1    0.0000
    172 H80       -3.1479    4.4588   26.1504 H         1 RES1    0.0000
    173 N8        -1.5106    3.0090   25.5673 N.ar      1 RES1    0.0000
    174 N9         0.2845    4.7590   24.8176 N.am      1 RES1    0.0000
    175 H81       -0.5721    4.7966   24.7573 H         1 RES1    0.0000
    176 N10       -1.2071    6.8645   24.2360 N.ar      1 RES1    0.0000
    177 N11       -3.7048    6.3184   23.4795 N.am      1 RES1    0.0000
    178 H82       -3.0220    5.7960   23.4329 H         1 RES1    0.0000
    179 N12       -3.6167    3.7268   22.8057 N.ar      1 RES1    0.0000
    180 O1        -2.6410    5.9075   31.5167 O.2       1 RES1    0.0000
    181 O2        -3.1306    7.7505   30.4453 O.2       1 RES1    0.0000
    182 O3        -2.5179    0.6038   29.3127 O.2       1 RES1    0.0000
    183 O4         4.2345    3.8976   27.8434 O.3       1 RES1    0.0000
    184 O5         1.1420    7.9837   28.2213 O.2       1 RES1    0.0000
    185 O6        -6.2641    9.5456   26.9485 O.3       1 RES1    0.0000
    186 O7        -6.1089    4.4134   26.5434 O.2       1 RES1    0.0000
    187 O8        -0.8274   -1.0831   25.7459 O.3       1 RES1    0.0000
    188 O9         1.9714    3.1910   24.9341 O.2       1 RES1    0.0000
    189 O10        0.3531   10.7081   24.1395 O.3       1 RES1    0.0000
    190 O11       -4.2398    8.5225   23.6922 O.2       1 RES1    0.0000
    191 O12       -1.2804    2.6979   22.1573 O.3       1 RES1    0.0000
    192 O13       -2.0899    0.6212   22.1451 O.2       1 RES1    0.0000
    193 O14       -7.4117    2.3152   29.4055 O.3       1 RES1    0.0000
    194 O15       -7.1048    1.4778   22.7317 O.3       1 RES1    0.0000
    195 C86        5.2165   13.5346   23.4332 C.ar      2 RES2    0.0000
    196 C87        5.5835   14.8432   23.4523 C.ar      2 RES2    0.0000
    197 H83        4.9273   15.5000   23.4892 H         2 RES2    0.0000
    198 C88        6.9171   15.2168   23.4167 C.ar      2 RES2    0.0000
    199 H84        7.1475   16.1157   23.3611 H         2 RES2    0.0000
    200 C89        7.8836   14.2746   23.4614 C.ar      2 RES2    0.0000
    201 H85        8.7742   14.5340   23.5235 H         2 RES2    0.0000
    202 C90        7.5614   12.8905   23.4157 C.ar      2 RES2    0.0000
    203 C91        6.1916   12.4885   23.3570 C.ar      2 RES2    0.0000
    204 C92        8.5454   11.8782   23.4585 C.ar      2 RES2    0.0000
    205 C93        8.1682   10.5520   23.3895 C.ar      2 RES2    0.0000
    206 H86        8.7881    9.8640   23.4704 H         2 RES2    0.0000
    207 C94        6.7774   10.2902   23.1880 C.ar      2 RES2    0.0000
    208 C95        6.3906    8.8674   22.9675 C.2       2 RES2    0.0000
    209 C96        4.4775    7.5353   22.0885 C.ar      2 RES2    0.0000
    210 C97        5.0043    6.2911   22.2772 C.ar      2 RES2    0.0000
    211 H87        5.8839    6.1865   22.5615 H         2 RES2    0.0000
    212 C98        4.1860    5.1531   22.0336 C.ar      2 RES2    0.0000
    213 H88        4.5414    4.3026   22.1491 H         2 RES2    0.0000
    214 C99        2.8815    5.2856   21.6263 C.ar      2 RES2    0.0000
    215 H89        2.3564    4.5311   21.4807 H         2 RES2    0.0000
    216 C100       2.3465    6.5796   21.4310 C.ar      2 RES2    0.0000
    217 C101       3.1736    7.7016   21.6266 C.ar      2 RES2    0.0000
    218 C102       0.9898    6.8178   21.0962 C.ar      2 RES2    0.0000
    219 C103      -1.2068    5.8317   20.8932 C.3       2 RES2    0.0000
    220 H90       -1.5028    6.5811   21.4338 H         2 RES2    0.0000
    221 H91       -1.6325    5.0316   21.2402 H         2 RES2    0.0000
    222 C104      -1.6457    6.0415   19.4941 C.3       2 RES2    0.0000
    223 H92       -1.4295    6.9562   19.2161 H         2 RES2    0.0000
    224 C105      -1.0347    5.0520   18.5196 C.3       2 RES2    0.0000
    225 H93       -0.0789    5.0537   18.6195 H         2 RES2    0.0000
    226 H94       -1.2627    5.3056   17.6200 H         2 RES2    0.0000
    227 H95       -1.3741    4.1723   18.7007 H         2 RES2    0.0000
    228 C106      -3.1990    5.8562   19.5285 C.3       2 RES2    0.0000
    229 H96       -3.4088    4.9499   19.7627 H         2 RES2    0.0000
    230 H97       -3.5626    6.0566   18.6601 H         2 RES2    0.0000
    231 H98       -3.5780    6.4520   20.1782 H         2 RES2    0.0000
    232 C107       0.5299    8.1078   20.9075 C.ar      2 RES2    0.0000
    233 H99       -0.3598    8.2871   20.7092 H         2 RES2    0.0000
    234 C108       1.4896    9.1326   21.0353 C.ar      2 RES2    0.0000
    235 C109       1.0120   10.5707   20.7161 C.2       2 RES2    0.0000
    236 C110       2.0261   12.7660   20.3075 C.ar      2 RES2    0.0000
    237 C111       0.8946   13.5187   20.2556 C.ar      2 RES2    0.0000
    238 H100       0.0624   13.1289   20.3968 H         2 RES2    0.0000
    239 C112       0.9979   14.9255   19.9814 C.ar      2 RES2    0.0000
    240 H101       0.2195   15.4313   19.9158 H         2 RES2    0.0000
    241 C113       2.1971   15.5338   19.8096 C.ar      2 RES2    0.0000
    242 H102       2.2448   16.4478   19.6409 H         2 RES2    0.0000
    243 C114       3.3902   14.7399   19.8955 C.ar      2 RES2    0.0000
    244 C115       3.3248   13.3702   20.0938 C.ar      2 RES2    0.0000
    245 C116       4.6906   15.3266   19.7309 C.ar      2 RES2    0.0000
    246 C117       6.0059   17.2350   19.2255 C.3       2 RES2    0.0000
    247 H103       6.4826   16.6808   18.5852 H         2 RES2    0.0000
    248 H104       6.5440   17.2978   20.0282 H         2 RES2    0.0000
    249 C118       5.7967   18.6143   18.6445 C.3       2 RES2    0.0000
    250 H105       5.2942   19.1391   19.3036 H         2 RES2    0.0000
    251 C119       7.0949   19.2965   18.4227 C.3       2 RES2    0.0000
    252 H106       7.4927   19.5108   19.2692 H         2 RES2    0.0000
    253 H107       6.9516   20.1038   17.9230 H         2 RES2    0.0000
    254 H108       7.6820   18.7157   17.9323 H         2 RES2    0.0000
    255 C120       4.9364   18.5338   17.3482 C.3       2 RES2    0.0000
    256 H109       5.3639   17.9472   16.7173 H         2 RES2    0.0000
    257 H110       4.8536   19.4085   16.9640 H         2 RES2    0.0000
    258 H111       4.0660   18.1935   17.5606 H         2 RES2    0.0000
    259 C121       5.7788   14.5001   19.8315 C.ar      2 RES2    0.0000
    260 H112       6.6404   14.8509   19.7940 H         2 RES2    0.0000
    261 C122       5.5787   13.1297   19.9886 C.ar      2 RES2    0.0000
    262 C123       6.7834   12.2356   19.9751 C.2       2 RES2    0.0000
    263 C124       7.3115    9.8022   19.7253 C.ar      2 RES2    0.0000
    264 C125       8.6285    9.7930   20.1282 C.ar      2 RES2    0.0000
    265 H113       9.0752   10.5817   20.3375 H         2 RES2    0.0000
    266 C126       9.2780    8.5265   20.2094 C.ar      2 RES2    0.0000
    267 H114      10.1734    8.5151   20.4687 H         2 RES2    0.0000
    268 C127       8.7026    7.3669   19.9470 C.ar      2 RES2    0.0000
    269 H115       9.1742    6.5716   20.0532 H         2 RES2    0.0000
    270 C128       7.3269    7.3484   19.4879 C.ar      2 RES2    0.0000
    271 C129       6.6445    8.5901   19.3857 C.ar      2 RES2    0.0000
    272 C130       6.6408    6.1889   19.2005 C.ar      2 RES2    0.0000
    273 C131       6.5624    3.7613   19.2161 C.3       2 RES2    0.0000
    274 H116       6.4612    3.6142   18.2634 H         2 RES2    0.0000
    275 H117       5.6809    3.7907   19.6191 H         2 RES2    0.0000
    276 C132       7.3937    2.6141   19.8471 C.3       2 RES2    0.0000
    277 H118       7.4750    2.7745   20.8091 H         2 RES2    0.0000
    278 C133       8.6044    2.5453   19.3286 C.3       2 RES2    0.0000
    279 H119       8.5471    2.6147   18.3728 H         2 RES2    0.0000
    280 H120       9.0081    1.7056   19.5660 H         2 RES2    0.0000
    281 H121       9.1400    3.2650   19.6690 H         2 RES2    0.0000
    282 C134       6.6367    1.2844   19.6284 C.3       2 RES2    0.0000
    283 H122       5.7458    1.3616   19.9783 H         2 RES2    0.0000
    284 H123       7.0980    0.5751   20.0845 H         2 RES2    0.0000
    285 H124       6.5971    1.0888   18.6914 H         2 RES2    0.0000
    286 C135       5.3699    6.2984   18.7726 C.ar      2 RES2    0.0000
    287 H125       4.8741    5.5346   18.5820 H         2 RES2    0.0000
    288 C136       4.7992    7.5529   18.6123 C.ar      2 RES2    0.0000
    289 C137       3.3960    7.6312   18.1016 C.2       2 RES2    0.0000
    290 C138       1.7435    9.3687   17.4788 C.ar      2 RES2    0.0000
    291 C139       0.6008    8.5885   17.4710 C.ar      2 RES2    0.0000
    292 H126       0.6597    7.6687   17.5981 H         2 RES2    0.0000
    293 C140      -0.6335    9.1898   17.2733 C.ar      2 RES2    0.0000
    294 H127      -1.3921    8.6518   17.2483 H         2 RES2    0.0000
    295 C141      -0.7803   10.4771   17.1221 C.ar      2 RES2    0.0000
    296 H128      -1.6325   10.8371   17.0296 H         2 RES2    0.0000
    297 C142       0.3535   11.3334   17.0980 C.ar      2 RES2    0.0000
    298 C143       1.6430   10.7709   17.2189 C.ar      2 RES2    0.0000
    299 C144       0.2950   12.7509   16.8953 C.ar      2 RES2    0.0000
    300 C145      -1.0088   14.7703   16.7610 C.3       2 RES2    0.0000
    301 H129      -0.7651   15.0742   15.8708 H         2 RES2    0.0000
    302 H130      -0.4646   15.2263   17.4232 H         2 RES2    0.0000
    303 C146      -2.6203   14.9482   17.0546 C.3       2 RES2    0.0000
    304 H131      -3.1277   14.3743   16.4424 H         2 RES2    0.0000
    305 C147      -3.0335   14.6536   18.4821 C.3       2 RES2    0.0000
    306 H132      -2.7088   13.7862   18.7382 H         2 RES2    0.0000
    307 H133      -3.9919   14.6683   18.5477 H         2 RES2    0.0000
    308 H134      -2.6638   15.3191   19.0662 H         2 RES2    0.0000
    309 C148      -2.7617   16.5657   16.5611 C.3       2 RES2    0.0000
    310 H135      -2.2452   17.1257   17.1452 H         2 RES2    0.0000
    311 H136      -3.6828   16.8305   16.5955 H         2 RES2    0.0000
    312 H137      -2.4363   16.6557   15.6615 H         2 RES2    0.0000
    313 C149       1.4465   13.4786   16.7510 C.ar      2 RES2    0.0000
    314 H138       1.4237   14.3923   16.5861 H         2 RES2    0.0000
    315 C150       2.6577   12.7903   16.8613 C.ar      2 RES2    0.0000
    316 C151       3.9476   13.5346   16.6548 C.2       2 RES2    0.0000
    317 C152       6.3851   13.0733   16.5642 C.ar      2 RES2    0.0000
    318 C153       6.8765   14.3766   16.6579 C.ar      2 RES2    0.0000
    319 H139       6.2729   15.0826   16.6954 H         2 RES2    0.0000
    320 C154       8.1867   14.6428   16.6985 C.ar      2 RES2    0.0000
    321 H140       8.4773   15.5244   16.7641 H         2 RES2    0.0000
    322 C155       9.1107   13.6177   16.6486 C.ar      2 RES2    0.0000
    323 H141      10.0175   13.8084   16.7360 H         2 RES2    0.0000
    324 C156       8.6953   12.2840   16.4611 C.ar      2 RES2    0.0000
    325 C157       7.2937   12.0277   16.4552 C.ar      2 RES2    0.0000
    326 C158       9.5467   11.0986   16.2425 C.ar      2 RES2    0.0000
    327 C159       9.0308    9.8614   16.1582 C.ar      2 RES2    0.0000
    328 H142       9.5702    9.1042   16.0988 H         2 RES2    0.0000
    329 C160       7.6262    9.7787   16.1588 C.ar      2 RES2    0.0000
    330 C161       7.0294    8.4130   15.9020 C.2       2 RES2    0.0000
    331 C162       7.4638    6.1160   15.6365 C.3       2 RES2    0.0000
    332 H143       6.7251    6.1699   15.0243 H         2 RES2    0.0000
    333 H144       7.1774    5.6928   16.4487 H         2 RES2    0.0000
    334 H145       8.1712    5.6025   15.2398 H         2 RES2    0.0000
    335 C163      10.8825   11.3987   23.6734 C.3       2 RES2    0.0000
    336 H146      10.6487   10.5336   23.3017 H         2 RES2    0.0000
    337 H147      11.1085   11.2867   24.6105 H         2 RES2    0.0000
    338 C164      12.0067   12.0055   22.9269 C.3       2 RES2    0.0000
    339 H148      11.9728   12.9677   23.0456 H         2 RES2    0.0000
    340 H149      12.8397   11.6932   23.3142 H         2 RES2    0.0000
    341 C165      12.0168   11.7281   21.5807 C.2       2 RES2    0.0000
    342 H150      11.3359   12.1846   21.1434 H         2 RES2    0.0000
    343 C166      12.7088   11.0088   20.7373 C.2       2 RES2    0.0000
    344 H151      13.5835   11.2765   20.9060 H         2 RES2    0.0000
    345 C167      12.8702   10.0051   19.6659 C.3       2 RES2    0.0000
    346 H152      12.3890    9.1818   19.8440 H         2 RES2    0.0000
    347 H153      13.7997    9.8155   19.4629 H         2 RES2    0.0000
    348 C168      12.2080   10.8557   18.6289 C.3       2 RES2    0.0000
    349 H154      12.7689   11.6023   18.3665 H         2 RES2    0.0000
    350 H155      11.3499   11.1877   18.9319 H         2 RES2    0.0000
    351 C169      12.0324    9.7305   17.3607 C.3       2 RES2    0.0000
    352 H156      12.8364    9.1924   17.2858 H         2 RES2    0.0000
    353 H157      11.2898    9.1367   17.5513 H         2 RES2    0.0000
    354 C170      11.7882   10.4441   16.0738 C.3       2 RES2    0.0000
    355 H158      12.6290   10.7898   15.7365 H         2 RES2    0.0000
    356 H159      11.4432    9.8151   15.4210 H         2 RES2    0.0000
    357 N13        3.8084   13.2400   23.5701 N.pl3     2 RES2    0.0000
    358 N14        5.8089   11.1928   23.2049 N.ar      2 RES2    0.0000
    359 N15        5.1818    8.7280   22.4043 N.am      2 RES2    0.0000
    360 H160       4.7782    9.4610   22.2085 H         2 RES2    0.0000
    361 N16        2.7466    8.9868   21.3811 N.ar      2 RES2    0.0000
    362 N17        2.0695   11.4146   20.5942 N.am      2 RES2    0.0000
    363 H161       2.8497   11.0708   20.7061 H         2 RES2    0.0000
    364 N18        4.4198   12.5568   20.1332 N.ar      2 RES2    0.0000
    365 N19        6.4897   10.9408   19.7365 N.am      2 RES2    0.0000
    366 H162       5.6618   10.7878   19.5628 H         2 RES2    0.0000
    367 N20        5.3711    8.6597   18.9241 N.ar      2 RES2    0.0000
    368 N21        3.0212    8.8937   17.7552 N.am      2 RES2    0.0000
    369 H163       3.6555    9.4725   17.7012 H         2 RES2    0.0000
    370 N22        2.8126   11.4660   17.0877 N.ar      2 RES2    0.0000
    371 N23        5.0391   12.7306   16.6364 N.am      2 RES2    0.0000
    372 H164       4.8758   11.8872   16.6767 H         2 RES2    0.0000
    373 N24        6.7882   10.7496   16.3034 N.ar      2 RES2    0.0000
    374 O16        3.4448   12.1968   24.1732 O.2       2 RES2    0.0000
    375 O17        3.0031   14.0488   23.1487 O.2       2 RES2    0.0000
    376 O18        7.1177    7.9619   23.2892 O.2       2 RES2    0.0000
    377 O19        0.2140    5.6941   21.0231 O.3       2 RES2    0.0000
    378 O20       -0.1548   10.8281   20.6077 O.2       2 RES2    0.0000
    379 O21        4.7435   16.6364   19.5347 O.3       2 RES2    0.0000
    380 O22        7.9339   12.6513   20.1885 O.2       2 RES2    0.0000
    381 O23        7.2827    5.0503   19.4629 O.3       2 RES2    0.0000
    382 O24        2.6916    6.6568   17.9817 O.2       2 RES2    0.0000
    383 O25       -0.9254   13.2860   16.8884 O.3       2 RES2    0.0000
    384 O26        3.9766   14.7495   16.5580 O.2       2 RES2    0.0000
    385 O27        7.9536    7.4751   15.9364 O.3       2 RES2    0.0000
    386 O28        5.8705    8.1581   15.7031 O.2       2 RES2    0.0000
    387 O29        9.8060   12.3276   23.5179 O.3       2 RES2    0.0000
    388 O30       10.8423   11.5489   16.2144 O.3       2 RES2    0.0000
    389 C171      -2.9004   13.7271    6.5376 C.ar      3 RES3    0.0000
    390 C172      -2.5595   15.0626    6.5495 C.ar      3 RES3    0.0000
    391 H165      -3.2291   15.7097    6.5501 H         3 RES3    0.0000
    392 C173      -1.2215   15.4523    6.5588 C.ar      3 RES3    0.0000
    393 H166      -0.9956   16.3528    6.5813 H         3 RES3    0.0000
    394 C174      -0.2387   14.4887    6.5345 C.ar      3 RES3    0.0000
    395 H167       0.6573   14.7406    6.5032 H         3 RES3    0.0000
    396 C175      -0.5842   13.1139    6.5554 C.ar      3 RES3    0.0000
    397 C176      -1.9305   12.6868    6.6282 C.ar      3 RES3    0.0000
    398 C177       0.4140   12.0989    6.5373 C.ar      3 RES3    0.0000
    399 C178       0.0366   10.8034    6.6551 C.ar      3 RES3    0.0000
    400 H168       0.6627   10.1174    6.6094 H         3 RES3    0.0000
    401 C179      -1.3317   10.5260    6.8484 C.ar      3 RES3    0.0000
    402 C180      -1.7163    9.0796    7.0858 C.2       3 RES3    0.0000
    403 C181      -3.5835    7.7320    7.9638 C.ar      3 RES3    0.0000
    404 C182      -3.0898    6.4772    7.7805 C.ar      3 RES3    0.0000
    405 H169      -2.2183    6.3685    7.4778 H         3 RES3    0.0000
    406 C183      -3.8788    5.3455    8.0438 C.ar      3 RES3    0.0000
    407 H170      -3.5236    4.4959    7.9245 H         3 RES3    0.0000
    408 C184      -5.1927    5.4921    8.4811 C.ar      3 RES3    0.0000
    409 H171      -5.7232    4.7431    8.6304 H         3 RES3    0.0000
    410 C185      -5.7044    6.7538    8.6919 C.ar      3 RES3    0.0000
    411 C186      -4.9121    7.9076    8.4892 C.ar      3 RES3    0.0000
    412 C187      -7.0674    7.0032    9.0689 C.ar      3 RES3    0.0000
    413 C188      -9.2500    5.9961    9.3351 C.3       3 RES3    0.0000
    414 H172      -9.6714    5.2148    8.9459 H         3 RES3    0.0000
    415 H173      -9.5513    6.7732    8.8397 H         3 RES3    0.0000
    416 C189      -9.6840    6.1237   10.7357 C.3       3 RES3    0.0000
    417 H174      -9.5163    7.0349   11.0543 H         3 RES3    0.0000
    418 C190     -11.2474    5.8418   10.6951 C.3       3 RES3    0.0000
    419 H175     -11.6736    6.4821   10.1203 H         3 RES3    0.0000
    420 H176     -11.6097    5.9161   11.5822 H         3 RES3    0.0000
    421 H177     -11.4044    4.9566   10.3577 H         3 RES3    0.0000
    422 C191      -9.0855    5.1516   11.6509 C.3       3 RES3    0.0000
    423 H178      -9.6046    4.3432   11.6446 H         3 RES3    0.0000
    424 H179      -9.0734    5.5158   12.5411 H         3 RES3    0.0000
    425 H180      -8.1870    4.9585   11.3729 H         3 RES3    0.0000
    426 C192      -7.4973    8.2714    9.2610 C.ar      3 RES3    0.0000
    427 H181      -8.3833    8.4434    9.4894 H         3 RES3    0.0000
    428 C193      -6.5941    9.3107    9.1111 C.ar      3 RES3    0.0000
    429 C194      -7.0529   10.7377    9.3700 C.2       3 RES3    0.0000
    430 C195      -6.0546   12.9764    9.7140 C.ar      3 RES3    0.0000
    431 C196      -7.1594   13.7449    9.7880 C.ar      3 RES3    0.0000
    432 H182      -8.0013   13.3591    9.6986 H         3 RES3    0.0000
    433 C197      -7.0453   15.1384    9.9985 C.ar      3 RES3    0.0000
    434 H183      -7.8143   15.6606   10.0235 H         3 RES3    0.0000
    435 C198      -5.8321   15.7311   10.1703 C.ar      3 RES3    0.0000
    436 H184      -5.7795   16.6463   10.3327 H         3 RES3    0.0000
    437 C199      -4.6458   14.9505   10.0950 C.ar      3 RES3    0.0000
    438 C200      -4.7363   13.5548    9.8889 C.ar      3 RES3    0.0000
    439 C201      -3.3121   15.5046   10.2150 C.ar      3 RES3    0.0000
    440 C202      -2.0243   17.4325   10.7763 C.3       3 RES3    0.0000
    441 H185      -1.4621   17.5076    9.9891 H         3 RES3    0.0000
    442 H186      -1.5692   16.8733   11.4228 H         3 RES3    0.0000
    443 C203      -2.2577   18.7704   11.3510 C.3       3 RES3    0.0000
    444 H187      -2.7610   19.3002   10.6982 H         3 RES3    0.0000
    445 C204      -3.1264   18.6333   12.6410 C.3       3 RES3    0.0000
    446 H188      -3.9717   18.2360   12.4161 H         3 RES3    0.0000
    447 H189      -3.2733   19.5031   13.0221 H         3 RES3    0.0000
    448 H190      -2.6693   18.0782   13.2782 H         3 RES3    0.0000
    449 C205      -0.9329   19.4971   11.6415 C.3       3 RES3    0.0000
    450 H191      -0.6634   19.3224   12.5442 H         3 RES3    0.0000
    451 H192      -1.0540   20.4430   11.5197 H         3 RES3    0.0000
    452 H193      -0.2558   19.1811   11.0387 H         3 RES3    0.0000
    453 C206      -2.2585   14.6937   10.1210 C.ar      3 RES3    0.0000
    454 H194      -1.3980   15.0476   10.1391 H         3 RES3    0.0000
    455 C207      -2.4425   13.3014    9.9919 C.ar      3 RES3    0.0000
    456 C208      -1.2708   12.3957   10.0188 C.2       3 RES3    0.0000
    457 C209      -0.7631    9.9545   10.2993 C.ar      3 RES3    0.0000
    458 C210       0.5626    9.9323    9.8673 C.ar      3 RES3    0.0000
    459 H195       1.0066   10.7141    9.6299 H         3 RES3    0.0000
    460 C211       1.2003    8.6775    9.8080 C.ar      3 RES3    0.0000
    461 H196       2.0895    8.6528    9.5362 H         3 RES3    0.0000
    462 C212       0.5949    7.5019   10.1203 C.ar      3 RES3    0.0000
    463 H197       1.0539    6.6966   10.0454 H         3 RES3    0.0000
    464 C213      -0.7356    7.5327   10.5545 C.ar      3 RES3    0.0000
    465 C214      -1.4235    8.7596   10.6601 C.ar      3 RES3    0.0000
    466 C215      -1.4629    6.3336   10.9012 C.ar      3 RES3    0.0000
    467 C216      -1.5056    3.9657   10.9668 C.3       3 RES3    0.0000
    468 H198      -2.3982    4.0100   10.5889 H         3 RES3    0.0000
    469 H199      -1.5745    3.7980   11.9195 H         3 RES3    0.0000
    470 C217      -0.6208    2.8094   10.2359 C.3       3 RES3    0.0000
    471 H200      -0.6398    2.9677    9.2676 H         3 RES3    0.0000
    472 C218       0.5949    2.7249   10.6107 C.3       3 RES3    0.0000
    473 H201       1.0962    3.4548   10.2359 H         3 RES3    0.0000
    474 H202       0.9666    1.8937   10.3046 H         3 RES3    0.0000
    475 H203       0.6386    2.7644   11.5665 H         3 RES3    0.0000
    476 C219      -1.4255    1.5112   10.5420 C.3       3 RES3    0.0000
    477 H204      -1.3619    1.3094   11.4791 H         3 RES3    0.0000
    478 H205      -1.0642    0.7823   10.0329 H         3 RES3    0.0000
    479 H206      -2.3474    1.6421   10.3077 H         3 RES3    0.0000
    480 C220      -2.7204    6.4465   11.3432 C.ar      3 RES3    0.0000
    481 H207      -3.2121    5.6886   11.5665 H         3 RES3    0.0000
    482 C221      -3.2962    7.7513   11.4663 C.ar      3 RES3    0.0000
    483 C222      -4.7046    7.8499   12.0351 C.2       3 RES3    0.0000
    484 C223      -6.2905    9.6390   12.6195 C.ar      3 RES3    0.0000
    485 C224      -7.4595    8.9134   12.6601 C.ar      3 RES3    0.0000
    486 H208      -7.4454    7.9905   12.5567 H         3 RES3    0.0000
    487 C225      -8.6855    9.5956   12.8597 C.ar      3 RES3    0.0000
    488 H209      -9.4672    9.0931   12.9034 H         3 RES3    0.0000
    489 C226      -8.7777   10.9227   12.9909 C.ar      3 RES3    0.0000
    490 H210      -9.6070   11.3301   13.0971 H         3 RES3    0.0000
    491 C227      -7.5801   11.7038   12.9603 C.ar      3 RES3    0.0000
    492 C228      -6.3171   11.0434   12.8503 C.ar      3 RES3    0.0000
    493 C229      -7.6084   13.0876   13.1096 C.ar      3 RES3    0.0000
    494 C230      -8.8758   15.1159   13.1970 C.3       3 RES3    0.0000
    495 H211      -8.3347   15.5068   12.4942 H         3 RES3    0.0000
    496 H212      -8.5433   15.4225   14.0560 H         3 RES3    0.0000
    497 C231     -10.4021   15.4874   13.0159 C.3       3 RES3    0.0000
    498 H213     -10.8942   14.9653   13.6843 H         3 RES3    0.0000
    499 C232     -10.5622   16.9352   13.4032 C.3       3 RES3    0.0000
    500 H214     -10.0429   17.1134   14.1903 H         3 RES3    0.0000
    501 H215     -11.4867   17.1178   13.5812 H         3 RES3    0.0000
    502 H216     -10.2576   17.4941   12.6879 H         3 RES3    0.0000
    503 C233     -10.8808   15.0892   11.7852 C.3       3 RES3    0.0000
    504 H217     -10.3482   15.4847   11.0918 H         3 RES3    0.0000
    505 H218     -11.7932   15.3722   11.6884 H         3 RES3    0.0000
    506 H219     -10.8338   14.1323   11.7165 H         3 RES3    0.0000
    507 C234      -6.4118   13.7634   13.2002 C.ar      3 RES3    0.0000
    508 H220      -6.3899   14.6859   13.3095 H         3 RES3    0.0000
    509 C235      -5.2403   13.0236   13.1189 C.ar      3 RES3    0.0000
    510 C236      -3.9047   13.7430   13.2408 C.2       3 RES3    0.0000
    511 C237      -1.4429   13.1217   13.3726 C.ar      3 RES3    0.0000
    512 C238      -0.9121   14.3542   13.2251 C.ar      3 RES3    0.0000
    513 H221      -1.4516   15.1086   13.1502 H         3 RES3    0.0000
    514 C239       0.4969   14.4499   13.1908 C.ar      3 RES3    0.0000
    515 H222       0.8742   15.2893   13.0565 H         3 RES3    0.0000
    516 C240       1.3354   13.3873   13.3470 C.ar      3 RES3    0.0000
    517 H223       2.2594   13.5014   13.3501 H         3 RES3    0.0000
    518 C241       0.7587   12.1052   13.5000 C.ar      3 RES3    0.0000
    519 C242      -0.6556   11.9652   13.5391 C.ar      3 RES3    0.0000
    520 C243       1.5330   10.9480   13.7249 C.ar      3 RES3    0.0000
    521 C244       0.9606    9.7241   13.8998 C.ar      3 RES3    0.0000
    522 H224       1.4572    8.9425   13.9873 H         3 RES3    0.0000
    523 C245      -0.4679    9.7448   13.9311 C.ar      3 RES3    0.0000
    524 C246      -1.1406    8.4564   14.1966 C.2       3 RES3    0.0000
    525 C247      -0.7912    6.1359   14.5120 C.3       3 RES3    0.0000
    526 H225      -0.0943    5.4783   14.4371 H         3 RES3    0.0000
    527 H226      -1.5039    5.9166   13.9092 H         3 RES3    0.0000
    528 H227      -1.1237    6.1460   15.4116 H         3 RES3    0.0000
    529 C248       2.7897   11.6598    6.4314 C.3       3 RES3    0.0000
    530 H228       3.0870   11.4865    5.5256 H         3 RES3    0.0000
    531 H229       2.5371   10.8166    6.8406 H         3 RES3    0.0000
    532 C249       3.8852   12.3326    7.2342 C.3       3 RES3    0.0000
    533 H230       4.7438   11.9545    6.9874 H         3 RES3    0.0000
    534 H231       3.9040   13.2796    7.0218 H         3 RES3    0.0000
    535 C250       3.6650   12.1550    8.6741 C.2       3 RES3    0.0000
    536 H232       2.8655   12.4806    9.0177 H         3 RES3    0.0000
    537 C251       4.4543   11.6008    9.4987 C.2       3 RES3    0.0000
    538 H233       5.3028   11.3855    9.1864 H         3 RES3    0.0000
    539 C252       4.1312   11.2350   11.0387 C.3       3 RES3    0.0000
    540 H234       4.6227   11.8222   11.6353 H         3 RES3    0.0000
    541 H235       3.1825   11.3402   11.2167 H         3 RES3    0.0000
    542 C253       4.5320    9.8532   11.2573 C.3       3 RES3    0.0000
    543 H236       5.4944    9.8141   11.3635 H         3 RES3    0.0000
    544 H237       4.2942    9.3263   10.4795 H         3 RES3    0.0000
    545 C254       3.8641    9.2522   12.4942 C.3       3 RES3    0.0000
    546 H238       2.9415    9.0578   12.2600 H         3 RES3    0.0000
    547 H239       4.2944    8.4026   12.6723 H         3 RES3    0.0000
    548 C255       3.8475   10.0236   13.7686 C.3       3 RES3    0.0000
    549 H240       3.5877    9.4357   14.4964 H         3 RES3    0.0000
    550 H241       4.7400   10.3532   13.9561 H         3 RES3    0.0000
    551 N25       -4.3378   13.4059    6.4302 N.pl3     3 RES3    0.0000
    552 N26       -2.2961   11.4072    6.8190 N.ar      3 RES3    0.0000
    553 N27       -2.9162    8.9268    7.6546 N.am      3 RES3    0.0000
    554 H242      -3.3328    9.6510    7.8557 H         3 RES3    0.0000
    555 N28       -5.3386    9.1676    8.7235 N.ar      3 RES3    0.0000
    556 N29       -6.0196   11.5994    9.4681 N.am      3 RES3    0.0000
    557 H243      -5.2377   11.2584    9.3675 H         3 RES3    0.0000
    558 N30       -3.6579   12.7417    9.8742 N.ar      3 RES3    0.0000
    559 N31       -1.5815   11.1021   10.3077 N.am      3 RES3    0.0000
    560 H244      -2.4012   10.9633   10.5295 H         3 RES3    0.0000
    561 N32       -2.6838    8.8429   11.1224 N.ar      3 RES3    0.0000
    562 N33       -5.0305    9.1126   12.3306 N.am      3 RES3    0.0000
    563 H245      -4.3780    9.6725   12.3443 H         3 RES3    0.0000
    564 N34       -5.1706   11.7369   12.9150 N.ar      3 RES3    0.0000
    565 N35       -2.8569   12.8659   13.3348 N.am      3 RES3    0.0000
    566 H246      -3.0795   12.0364   13.3782 H         3 RES3    0.0000
    567 N36       -1.2685   10.8099   13.7383 N.ar      3 RES3    0.0000
    568 O31       -4.6651   12.3950    5.8567 O.2       3 RES3    0.0000
    569 O32       -5.1474   14.2480    6.8303 O.2       3 RES3    0.0000
    570 O33       -0.9679    8.1669    6.7494 O.2       3 RES3    0.0000
    571 O34       -7.8242    5.8753    9.1892 O.3       3 RES3    0.0000
    572 O35       -8.2219   10.9922    9.5509 O.2       3 RES3    0.0000
    573 O36       -3.2907   16.8337   10.4180 O.3       3 RES3    0.0000
    574 O37       -0.1223   12.8194    9.7952 O.2       3 RES3    0.0000
    575 O38       -0.7699    5.2026   10.7076 O.3       3 RES3    0.0000
    576 O39       -5.4160    6.8767   12.1460 O.2       3 RES3    0.0000
    577 O40       -8.8610   13.6601   13.1205 O.3       3 RES3    0.0000
    578 O41       -3.7951   14.9525   13.3185 O.2       3 RES3    0.0000
    579 O42       -0.2759    7.4020   14.1875 O.3       3 RES3    0.0000
    580 O43       -2.3020    8.3210   14.3962 O.2       3 RES3    0.0000
    581 O44        1.6728   12.5793    6.4333 O.3       3 RES3    0.0000
    582 O45        2.9257   11.1410   13.7062 O.3       3 RES3    0.0000
    583 C256       3.5255    6.5072    0.1562 C.ar      4 RES4    0.0000
    584 C257       2.3983    7.3585    0.1281 C.ar      4 RES4    0.0000
    585 H247       2.5050    8.2708   -0.0156 H         4 RES4    0.0000
    586 C258       1.1011    6.8101    0.3248 C.ar      4 RES4    0.0000
    587 H248       0.3580    7.3677    0.3717 H         4 RES4    0.0000
    588 C259       0.9538    5.4369    0.4467 C.ar      4 RES4    0.0000
    589 H249       0.0977    5.0756    0.4842 H         4 RES4    0.0000
    590 C260       2.0595    4.5744    0.5098 C.ar      4 RES4    0.0000
    591 C261       3.4344    5.1743    0.3811 C.ar      4 RES4    0.0000
    592 C262       1.9784    3.1910    0.6278 C.ar      4 RES4    0.0000
    593 C263       3.0938    2.3931    0.6716 C.ar      4 RES4    0.0000
    594 H250       3.0246    1.4664    0.7215 H         4 RES4    0.0000
    595 C264       4.3494    3.0334    0.6435 C.ar      4 RES4    0.0000
    596 C265       5.5670    2.2155    0.8693 C.2       4 RES4    0.0000
    597 C266       7.9931    2.5290    1.3094 C.ar      4 RES4    0.0000
    598 C267       8.4340    1.2466    1.1432 C.ar      4 RES4    0.0000
    599 H251       7.8396    0.5534    0.9745 H         4 RES4    0.0000
    600 C268       9.8008    1.0136    1.2307 C.ar      4 RES4    0.0000
    601 H252      10.0816    0.1342    1.1089 H         4 RES4    0.0000
    602 C269      10.7659    1.9248    1.4743 C.ar      4 RES4    0.0000
    603 H253      11.6644    1.6931    1.5180 H         4 RES4    0.0000
    604 C270      10.3210    3.2566    1.6617 C.ar      4 RES4    0.0000
    605 C271       8.9350    3.5999    1.5824 C.ar      4 RES4    0.0000
    606 C272      11.1888    4.3837    1.8616 C.ar      4 RES4    0.0000
    607 C273      13.6241    4.8245    2.0678 C.3       4 RES4    0.0000
    608 H254      13.4685    5.6024    1.5118 H         4 RES4    0.0000
    609 H255      14.4300    4.3903    1.7429 H         4 RES4    0.0000
    610 C274      13.8681    5.2725    3.4140 C.3       4 RES4    0.0000
    611 H256      13.0664    5.7407    3.7295 H         4 RES4    0.0000
    612 C275      15.0472    6.2759    3.4234 C.3       4 RES4    0.0000
    613 H257      15.8767    5.7921    3.4265 H         4 RES4    0.0000
    614 H258      14.9946    6.8252    4.2074 H         4 RES4    0.0000
    615 H259      15.0016    6.8288    2.6425 H         4 RES4    0.0000
    616 C276      14.1233    4.1228    4.3293 C.3       4 RES4    0.0000
    617 H260      13.4768    3.4331    4.1606 H         4 RES4    0.0000
    618 H261      14.0496    4.4153    5.2382 H         4 RES4    0.0000
    619 H262      15.0056    3.7804    4.1731 H         4 RES4    0.0000
    620 C277      10.7497    5.5964    1.9931 C.ar      4 RES4    0.0000
    621 H263      11.3339    6.3143    2.0865 H         4 RES4    0.0000
    622 C278       9.3441    5.7904    1.9856 C.ar      4 RES4    0.0000
    623 C279       8.7984    7.1678    2.2502 C.2       4 RES4    0.0000
    624 C280       6.6875    8.2753    2.7266 C.ar      4 RES4    0.0000
    625 C281       7.1057    9.6286    2.5613 C.ar      4 RES4    0.0000
    626 H264       7.9951    9.8458    2.3989 H         4 RES4    0.0000
    627 C282       6.1303   10.5974    2.6613 C.ar      4 RES4    0.0000
    628 H265       6.4104   11.4797    2.5676 H         4 RES4    0.0000
    629 C283       4.9292   10.4182    2.8581 C.ar      4 RES4    0.0000
    630 H266       4.3514   11.1473    2.8424 H         4 RES4    0.0000
    631 C284       4.3924    9.0958    3.1079 C.ar      4 RES4    0.0000
    632 C285       5.3205    8.0465    3.0517 C.ar      4 RES4    0.0000
    633 C286       2.9598    8.7574    3.3422 C.ar      4 RES4    0.0000
    634 C287       0.6739    9.4546    3.2547 C.3       4 RES4    0.0000
    635 H267       0.3690    9.1538    4.1262 H         4 RES4    0.0000
    636 H268       0.4966    8.7569    2.6050 H         4 RES4    0.0000
    637 C288      -0.0141   10.7521    2.8612 C.3       4 RES4    0.0000
    638 H269       0.2799   11.4712    3.4578 H         4 RES4    0.0000
    639 C289       0.2851   11.1182    1.4649 C.3       4 RES4    0.0000
    640 H270       1.2367   11.1449    1.3369 H         4 RES4    0.0000
    641 H271      -0.0880   11.9828    1.2744 H         4 RES4    0.0000
    642 H272      -0.0980   10.4672    0.8746 H         4 RES4    0.0000
    643 C290      -1.4851   10.5230    3.0423 C.3       4 RES4    0.0000
    644 H273      -1.7525    9.7455    2.5488 H         4 RES4    0.0000
    645 H274      -1.9689   11.2876    2.7237 H         4 RES4    0.0000
    646 H275      -1.6761   10.3902    3.9732 H         4 RES4    0.0000
    647 C291       2.6117    7.4374    3.5577 C.ar      4 RES4    0.0000
    648 H276       1.7273    7.1894    3.7077 H         4 RES4    0.0000
    649 C292       3.6418    6.4875    3.5390 C.ar      4 RES4    0.0000
    650 C293       3.2938    5.0461    3.7548 C.2       4 RES4    0.0000
    651 C294       4.4617    2.8886    4.1025 C.ar      4 RES4    0.0000
    652 C295       3.4075    2.0187    3.9219 C.ar      4 RES4    0.0000
    653 H277       2.5439    2.3472    3.8264 H         4 RES4    0.0000
    654 C296       3.6421    0.6272    3.8810 C.ar      4 RES4    0.0000
    655 H278       2.9247    0.0455    3.7764 H         4 RES4    0.0000
    656 C297       4.9247    0.1110    3.9938 C.ar      4 RES4    0.0000
    657 H279       5.0727   -0.8020    3.9013 H         4 RES4    0.0000
    658 C298       5.9876    0.9741    4.2459 C.ar      4 RES4    0.0000
    659 C299       5.7710    2.3719    4.3227 C.ar      4 RES4    0.0000
    660 C300       7.3537    0.5291    4.3717 C.ar      4 RES4    0.0000
    661 C301       8.8903   -1.3040    4.1856 C.3       4 RES4    0.0000
    662 H280       9.2589   -1.3411    5.0820 H         4 RES4    0.0000
    663 H281       9.4573   -0.7362    3.6421 H         4 RES4    0.0000
    664 C302       8.7997   -2.7001    3.5890 C.3       4 RES4    0.0000
    665 H282       8.2339   -3.2725    4.1481 H         4 RES4    0.0000
    666 C303       8.3143   -2.6869    2.2615 C.3       4 RES4    0.0000
    667 H283       7.3802   -2.4694    2.2677 H         4 RES4    0.0000
    668 H284       8.4393   -3.5541    1.8679 H         4 RES4    0.0000
    669 H285       8.7937   -2.0302    1.7523 H         4 RES4    0.0000
    670 C304      10.3392   -3.2186    3.6358 C.3       4 RES4    0.0000
    671 H286      10.9322   -2.4699    3.5421 H         4 RES4    0.0000
    672 H287      10.4909   -3.8377    2.9174 H         4 RES4    0.0000
    673 H288      10.5049   -3.6562    4.4761 H         4 RES4    0.0000
    674 C305       8.3312    1.4472    4.6672 C.ar      4 RES4    0.0000
    675 H289       9.2113    1.1746    4.7915 H         4 RES4    0.0000
    676 C306       7.9831    2.8074    4.7781 C.ar      4 RES4    0.0000
    677 C307       9.0751    3.8123    5.0630 C.2       4 RES4    0.0000
    678 C308       9.2034    6.2610    5.4453 C.ar      4 RES4    0.0000
    679 C309      10.5666    6.4553    5.2348 C.ar      4 RES4    0.0000
    680 H290      11.1326    5.7293    5.1070 H         4 RES4    0.0000
    681 C310      11.0824    7.7860    5.2151 C.ar      4 RES4    0.0000
    682 H291      11.9814    7.9208    5.0258 H         4 RES4    0.0000
    683 C311      10.2934    8.8567    5.4656 C.ar      4 RES4    0.0000
    684 H292      10.6559    9.7143    5.4475 H         4 RES4    0.0000
    685 C312       8.9424    8.6820    5.7483 C.ar      4 RES4    0.0000
    686 C313       8.3684    7.3759    5.7670 C.ar      4 RES4    0.0000
    687 C314       8.0536    9.7530    6.0441 C.ar      4 RES4    0.0000
    688 C315       7.6864   12.0785    6.4033 C.3       4 RES4    0.0000
    689 H293       6.8668   11.9824    5.8973 H         4 RES4    0.0000
    690 H294       7.4571   11.9558    7.3404 H         4 RES4    0.0000
    691 C316       8.1188   13.4008    6.2534 C.3       4 RES4    0.0000
    692 H295       8.9237   13.5527    6.7906 H         4 RES4    0.0000
    693 C317       8.4833   13.4954    4.6697 C.3       4 RES4    0.0000
    694 H296       8.3598   12.6364    4.2605 H         4 RES4    0.0000
    695 H297       9.3969   13.7717    4.5666 H         4 RES4    0.0000
    696 H298       7.9063   14.1374    4.2449 H         4 RES4    0.0000
    697 C318       7.0857   14.3537    6.6282 C.3       4 RES4    0.0000
    698 H299       6.4812   14.4760    5.8942 H         4 RES4    0.0000
    699 H300       7.4918   15.1941    6.8531 H         4 RES4    0.0000
    700 H301       6.6029   14.0186    7.3872 H         4 RES4    0.0000
    701 C319       6.7352    9.4724    6.3068 C.ar      4 RES4    0.0000
    702 H302       6.1312   10.1605    6.4720 H         4 RES4    0.0000
    703 C320       6.3063    8.1331    6.3227 C.ar      4 RES4    0.0000
    704 C321       4.8313    7.8499    6.6476 C.2       4 RES4    0.0000
    705 C322       3.3771    5.9058    6.9608 C.ar      4 RES4    0.0000
    706 C323       2.1374    6.5143    6.8603 C.ar      4 RES4    0.0000
    707 H303       2.0803    7.4412    6.8062 H         4 RES4    0.0000
    708 C324       0.9629    5.7369    6.8375 C.ar      4 RES4    0.0000
    709 H304       0.1421    6.1570    6.7156 H         4 RES4    0.0000
    710 C325       0.9999    4.4090    6.9905 C.ar      4 RES4    0.0000
    711 H305       0.2089    3.9222    6.9874 H         4 RES4    0.0000
    712 C326       2.2389    3.7340    7.1617 C.ar      4 RES4    0.0000
    713 C327       3.4250    4.4806    7.1723 C.ar      4 RES4    0.0000
    714 C328       2.3447    2.3485    7.3094 C.ar      4 RES4    0.0000
    715 C329       3.5992    1.7760    7.5222 C.ar      4 RES4    0.0000
    716 H306       3.6942    0.8573    7.6340 H         4 RES4    0.0000
    717 C330       4.7320    2.6437    7.5603 C.ar      4 RES4    0.0000
    718 C331       6.0387    1.9941    7.7945 C.2       4 RES4    0.0000
    719 C332       8.3208    2.3589    8.2556 C.3       4 RES4    0.0000
    720 H307       8.5462    1.7044    7.5902 H         4 RES4    0.0000
    721 H308       8.3075    1.9424    9.1208 H         4 RES4    0.0000
    722 H309       8.9743    3.0609    8.2493 H         4 RES4    0.0000
    723 C333       0.5061    1.2739    0.5341 C.3       4 RES4    0.0000
    724 H310       0.8016    1.0418   -0.3592 H         4 RES4    0.0000
    725 H311       1.0761    0.8055    1.1651 H         4 RES4    0.0000
    726 C334      -0.8554    0.8046    0.7059 C.3       4 RES4    0.0000
    727 H312      -0.9004   -0.1283    0.4467 H         4 RES4    0.0000
    728 H313      -1.4374    1.3071    0.1156 H         4 RES4    0.0000
    729 C335      -1.3553    0.9382    2.0959 C.2       4 RES4    0.0000
    730 H314      -1.7450    1.7298    2.3895 H         4 RES4    0.0000
    731 C336      -1.2260   -0.1633    2.9518 C.2       4 RES4    0.0000
    732 H315      -0.9741   -0.9859    2.5988 H         4 RES4    0.0000
    733 C337      -1.4768   -0.0499    4.3792 C.3       4 RES4    0.0000
    734 H316      -2.0054   -0.8033    4.6885 H         4 RES4    0.0000
    735 H317      -1.9629    0.7663    4.5729 H         4 RES4    0.0000
    736 C338      -0.1216   -0.0344    5.0789 C.3       4 RES4    0.0000
    737 H318       0.3123    0.8082    4.8759 H         4 RES4    0.0000
    738 H319       0.4224   -0.7389    4.6978 H         4 RES4    0.0000
    739 C339      -0.1347   -0.2109    6.6032 C.3       4 RES4    0.0000
    740 H320      -0.3026   -1.1408    6.8218 H         4 RES4    0.0000
    741 H321      -0.8465    0.3246    6.9874 H         4 RES4    0.0000
    742 C340       1.2206    0.2255    7.1936 C.3       4 RES4    0.0000
    743 H322       1.3288   -0.1265    8.0931 H         4 RES4    0.0000
    744 H323       1.9529   -0.0977    6.6438 H         4 RES4    0.0000
    745 N37        4.8055    7.1004   -0.1249 N.pl3     4 RES4    0.0000
    746 N38        4.5152    4.3369    0.5354 N.ar      4 RES4    0.0000
    747 N39        6.6838    2.9782    1.1488 N.am      4 RES4    0.0000
    748 H324       6.5570    3.8250    1.2338 H         4 RES4    0.0000
    749 N40        8.4742    4.8219    1.7814 N.ar      4 RES4    0.0000
    750 N41        7.4799    7.1950    2.5370 N.am      4 RES4    0.0000
    751 H325       7.0957    6.4285    2.6082 H         4 RES4    0.0000
    752 N42        4.9429    6.7431    3.2810 N.ar      4 RES4    0.0000
    753 N43        4.3798    4.2799    4.0225 N.am      4 RES4    0.0000
    754 H326       5.1143    4.7044    4.1606 H         4 RES4    0.0000
    755 N44        6.7620    3.2788    4.5766 N.ar      4 RES4    0.0000
    756 N45        8.5735    5.0309    5.3600 N.am      4 RES4    0.0000
    757 H327       7.7287    5.0458    5.5224 H         4 RES4    0.0000
    758 N46        7.0704    7.1097    6.0497 N.ar      4 RES4    0.0000
    759 N47        4.6079    6.5334    6.8137 N.am      4 RES4    0.0000
    760 H328       5.3021    6.0240    6.8312 H         4 RES4    0.0000
    761 N48        4.6682    3.9267    7.3700 N.ar      4 RES4    0.0000
    762 O46        5.7522    6.4381   -0.5060 O.2       4 RES4    0.0000
    763 O47        4.8905    8.3343   -0.0687 O.2       4 RES4    0.0000
    764 O48        5.5505    1.0119    0.7834 O.2       4 RES4    0.0000
    765 O49       12.5531    3.9414    1.8991 O.3       4 RES4    0.0000
    766 O50        9.5354    8.1640    2.2118 O.2       4 RES4    0.0000
    767 O51        2.1236    9.7880    3.2907 O.3       4 RES4    0.0000
    768 O52        2.1325    4.6455    3.7261 O.2       4 RES4    0.0000
    769 O53        7.5520   -0.7944    4.2152 O.3       4 RES4    0.0000
    770 O54       10.2442    3.5179    5.0486 O.2       4 RES4    0.0000
    771 O55        8.5545   10.9848    6.0300 O.3       4 RES4    0.0000
    772 O56        4.0115    8.7438    6.7375 O.2       4 RES4    0.0000
    773 O57        7.0173    2.9098    7.9666 O.3       4 RES4    0.0000
    774 O58        6.2447    0.8027    7.8561 O.2       4 RES4    0.0000
    775 O59        0.6841    2.7093    0.7253 O.3       4 RES4    0.0000
    776 O60        1.1986    1.6783    7.2135 O.3       4 RES4    0.0000
@<TRIPOS>BOND
     1    1    2 ar
     2    2    3 1
     3    4    2 ar
     4    5    4 1
     5    6    4 ar
     6    7    6 1
     7    8    6 ar
     8    9    1 ar
     9   10    8 ar
    10   11   10 ar
    11   12   11 1
    12   13   11 ar
    13   14   13 1
    14   15   16 ar
    15   16   17 1
    16   18   16 ar
    17   19   18 1
    18   20   18 ar
    19   21   20 1
    20   22   20 ar
    21   23   15 ar
    22   24   22 ar
    23   25   26 1
    24   27   25 1
    25   28   25 1
    26   29   28 1
    27   30   28 1
    28   31   30 1
    29   32   30 1
    30   33   30 1
    31   34   28 1
    32   35   34 1
    33   36   34 1
    34   37   34 1
    35   38   24 ar
    36   39   38 1
    37   40   38 ar
    38   41   40 1
    39   42   43 ar
    40   43   44 1
    41   45   43 ar
    42   46   45 1
    43   47   45 ar
    44   48   47 1
    45   49   47 ar
    46   50   42 ar
    47   51   49 ar
    48   52   53 1
    49   54   52 1
    50   55   52 1
    51   56   55 1
    52   57   55 1
    53   58   57 1
    54   59   57 1
    55   60   57 1
    56   61   55 1
    57   62   61 1
    58   63   61 1
    59   64   61 1
    60   65   51 ar
    61   66   65 1
    62   67   65 ar
    63   68   67 1
    64   69   70 ar
    65   70   71 1
    66   72   70 ar
    67   73   72 1
    68   74   72 ar
    69   75   74 1
    70   76   74 ar
    71   77   69 ar
    72   78   76 ar
    73   79   80 1
    74   81   79 1
    75   82   79 1
    76   83   82 1
    77   84   82 1
    78   85   84 1
    79   86   84 1
    80   87   84 1
    81   88   82 1
    82   89   88 1
    83   90   88 1
    84   91   88 1
    85   92   78 ar
    86   93   92 1
    87   94   92 ar
    88   95   94 1
    89   96   97 ar
    90   97   98 1
    91   99   97 ar
    92  100   99 1
    93  101   99 ar
    94  102  101 1
    95  103  101 ar
    96  104   96 ar
    97  105  103 ar
    98  106  107 1
    99  108  106 1
   100  109  106 1
   101  110  109 1
   102  111  109 1
   103  112  111 1
   104  113  111 1
   105  114  111 1
   106  115  109 1
   107  116  115 1
   108  117  115 1
   109  118  115 1
   110  119  105 ar
   111  120  119 1
   112  121  119 ar
   113  122  121 1
   114  123  124 ar
   115  124  125 1
   116  126  124 ar
   117  127  126 1
   118  128  126 ar
   119  129  128 1
   120  130  128 ar
   121  131  123 ar
   122  132  130 ar
   123  133  132 ar
   124  134  133 1
   125  135  133 ar
   126  136  135 1
   127  137  138 1
   128  139  137 1
   129  140  137 1
   130  141  142 1
   131  143  141 1
   132  144  141 1
   133  145  144 1
   134  146  144 1
   135  147  144 1
   136  148  147 1
   137  149  147 2
   138  150  149 1
   139  151  149 1
   140  152  151 1
   141  153  151 1
   142  154  151 1
   143  155  154 1
   144  156  154 1
   145  157  154 1
   146  158  157 1
   147  159  157 1
   148  160  157 1
   149  161  160 1
   150  162  160 1
   151  163    1 1
   152  164    9 ar
   153  165   14 1
   154  166  165 1
   155  167   23 ar
   156  168   41 1
   157  169  168 1
   158  170   50 ar
   159  171   68 1
   160  172  171 1
   161  173   77 ar
   162  174   95 1
   163  175  174 1
   164  176  104 ar
   165  177  122 1
   166  178  177 1
   167  179  131 ar
   168  180  163 2
   169  181  163 2
   170  182   14 2
   171  183   24 1
   172  184   41 2
   173  185   51 1
   174  186   68 2
   175  187   78 1
   176  188   95 2
   177  189  105 1
   178  190  122 2
   179  191  136 1
   180  192  136 2
   181  193   10 1
   182  194  132 1
   183  195  196 ar
   184  196  197 1
   185  198  196 ar
   186  199  198 1
   187  200  198 ar
   188  201  200 1
   189  202  200 ar
   190  203  195 ar
   191  204  202 ar
   192  205  204 ar
   193  206  205 1
   194  207  205 ar
   195  208  207 1
   196  209  210 ar
   197  210  211 1
   198  212  210 ar
   199  213  212 1
   200  214  212 ar
   201  215  214 1
   202  216  214 ar
   203  217  209 ar
   204  218  216 ar
   205  219  220 1
   206  221  219 1
   207  222  219 1
   208  223  222 1
   209  224  222 1
   210  225  224 1
   211  226  224 1
   212  227  224 1
   213  228  222 1
   214  229  228 1
   215  230  228 1
   216  231  228 1
   217  232  218 ar
   218  233  232 1
   219  234  232 ar
   220  235  234 1
   221  236  237 ar
   222  237  238 1
   223  239  237 ar
   224  240  239 1
   225  241  239 ar
   226  242  241 1
   227  243  241 ar
   228  244  236 ar
   229  245  243 ar
   230  246  247 1
   231  248  246 1
   232  249  246 1
   233  250  249 1
   234  251  249 1
   235  252  251 1
   236  253  251 1
   237  254  251 1
   238  255  249 1
   239  256  255 1
   240  257  255 1
   241  258  255 1
   242  259  245 ar
   243  260  259 1
   244  261  259 ar
   245  262  261 1
   246  263  264 ar
   247  264  265 1
   248  266  264 ar
   249  267  266 1
   250  268  266 ar
   251  269  268 1
   252  270  268 ar
   253  271  263 ar
   254  272  270 ar
   255  273  274 1
   256  275  273 1
   257  276  273 1
   258  277  276 1
   259  278  276 1
   260  279  278 1
   261  280  278 1
   262  281  278 1
   263  282  276 1
   264  283  282 1
   265  284  282 1
   266  285  282 1
   267  286  272 ar
   268  287  286 1
   269  288  286 ar
   270  289  288 1
   271  290  291 ar
   272  291  292 1
   273  293  291 ar
   274  294  293 1
   275  295  293 ar
   276  296  295 1
   277  297  295 ar
   278  298  290 ar
   279  299  297 ar
   280  300  301 1
   281  302  300 1
   282  303  300 1
   283  304  303 1
   284  305  303 1
   285  306  305 1
   286  307  305 1
   287  308  305 1
   288  309  303 1
   289  310  309 1
   290  311  309 1
   291  312  309 1
   292  313  299 ar
   293  314  313 1
   294  315  313 ar
   295  316  315 1
   296  317  318 ar
   297  318  319 1
   298  320  318 ar
   299  321  320 1
   300  322  320 ar
   301  323  322 1
   302  324  322 ar
   303  325  317 ar
   304  326  324 ar
   305  327  326 ar
   306  328  327 1
   307  329  327 ar
   308  330  329 1
   309  331  332 1
   310  333  331 1
   311  334  331 1
   312  335  336 1
   313  337  335 1
   314  338  335 1
   315  339  338 1
   316  340  338 1
   317  341  338 1
   318  342  341 1
   319  343  341 2
   320  344  343 1
   321  345  343 1
   322  346  345 1
   323  347  345 1
   324  348  345 1
   325  349  348 1
   326  350  348 1
   327  351  348 1
   328  352  351 1
   329  353  351 1
   330  354  351 1
   331  355  354 1
   332  356  354 1
   333  357  195 1
   334  358  203 ar
   335  359  208 1
   336  360  359 1
   337  361  217 ar
   338  362  235 1
   339  363  362 1
   340  364  244 ar
   341  365  262 1
   342  366  365 1
   343  367  271 ar
   344  368  289 1
   345  369  368 1
   346  370  298 ar
   347  371  316 1
   348  372  371 1
   349  373  325 ar
   350  374  357 2
   351  375  357 2
   352  376  208 2
   353  377  218 1
   354  378  235 2
   355  379  245 1
   356  380  262 2
   357  381  272 1
   358  382  289 2
   359  383  299 1
   360  384  316 2
   361  385  330 1
   362  386  330 2
   363  387  204 1
   364  388  326 1
   365  389  390 ar
   366  390  391 1
   367  392  390 ar
   368  393  392 1
   369  394  392 ar
   370  395  394 1
   371  396  394 ar
   372  397  389 ar
   373  398  396 ar
   374  399  398 ar
   375  400  399 1
   376  401  399 ar
   377  402  401 1
   378  403  404 ar
   379  404  405 1
   380  406  404 ar
   381  407  406 1
   382  408  406 ar
   383  409  408 1
   384  410  408 ar
   385  411  403 ar
   386  412  410 ar
   387  413  414 1
   388  415  413 1
   389  416  413 1
   390  417  416 1
   391  418  416 1
   392  419  418 1
   393  420  418 1
   394  421  418 1
   395  422  416 1
   396  423  422 1
   397  424  422 1
   398  425  422 1
   399  426  412 ar
   400  427  426 1
   401  428  426 ar
   402  429  428 1
   403  430  431 ar
   404  431  432 1
   405  433  431 ar
   406  434  433 1
   407  435  433 ar
   408  436  435 1
   409  437  435 ar
   410  438  430 ar
   411  439  437 ar
   412  440  441 1
   413  442  440 1
   414  443  440 1
   415  444  443 1
   416  445  443 1
   417  446  445 1
   418  447  445 1
   419  448  445 1
   420  449  443 1
   421  450  449 1
   422  451  449 1
   423  452  449 1
   424  453  439 ar
   425  454  453 1
   426  455  453 ar
   427  456  455 1
   428  457  458 ar
   429  458  459 1
   430  460  458 ar
   431  461  460 1
   432  462  460 ar
   433  463  462 1
   434  464  462 ar
   435  465  457 ar
   436  466  464 ar
   437  467  468 1
   438  469  467 1
   439  470  467 1
   440  471  470 1
   441  472  470 1
   442  473  472 1
   443  474  472 1
   444  475  472 1
   445  476  470 1
   446  477  476 1
   447  478  476 1
   448  479  476 1
   449  480  466 ar
   450  481  480 1
   451  482  480 ar
   452  483  482 1
   453  484  485 ar
   454  485  486 1
   455  487  485 ar
   456  488  487 1
   457  489  487 ar
   458  490  489 1
   459  491  489 ar
   460  492  484 ar
   461  493  491 ar
   462  494  495 1
   463  496  494 1
   464  497  494 1
   465  498  497 1
   466  499  497 1
   467  500  499 1
   468  501  499 1
   469  502  499 1
   470  503  497 1
   471  504  503 1
   472  505  503 1
   473  506  503 1
   474  507  493 ar
   475  508  507 1
   476  509  507 ar
   477  510  509 1
   478  511  512 ar
   479  512  513 1
   480  514  512 ar
   481  515  514 1
   482  516  514 ar
   483  517  516 1
   484  518  516 ar
   485  519  511 ar
   486  520  518 ar
   487  521  520 ar
   488  522  521 1
   489  523  521 ar
   490  524  523 1
   491  525  526 1
   492  527  525 1
   493  528  525 1
   494  529  530 1
   495  531  529 1
   496  532  529 1
   497  533  532 1
   498  534  532 1
   499  535  532 1
   500  536  535 1
   501  537  535 2
   502  538  537 1
   503  539  537 1
   504  540  539 1
   505  541  539 1
   506  542  539 1
   507  543  542 1
   508  544  542 1
   509  545  542 1
   510  546  545 1
   511  547  545 1
   512  548  545 1
   513  549  548 1
   514  550  548 1
   515  551  389 1
   516  552  397 ar
   517  553  402 1
   518  554  553 1
   519  555  411 ar
   520  556  429 1
   521  557  556 1
   522  558  438 ar
   523  559  456 1
   524  560  559 1
   525  561  465 ar
   526  562  483 1
   527  563  562 1
   528  564  492 ar
   529  565  510 1
   530  566  565 1
   531  567  519 ar
   532  568  551 2
   533  569  551 2
   534  570  402 2
   535  571  412 1
   536  572  429 2
   537  573  439 1
   538  574  456 2
   539  575  466 1
   540  576  483 2
   541  577  493 1
   542  578  510 2
   543  579  524 1
   544  580  524 2
   545  581  398 1
   546  582  520 1
   547  583  584 ar
   548  584  585 1
   549  586  584 ar
   550  587  586 1
   551  588  586 ar
   552  589  588 1
   553  590  588 ar
   554  591  583 ar
   555  592  590 ar
   556  593  592 ar
   557  594  593 1
   558  595  593 ar
   559  596  595 1
   560  597  598 ar
   561  598  599 1
   562  600  598 ar
   563  601  600 1
   564  602  600 ar
   565  603  602 1
   566  604  602 ar
   567  605  597 ar
   568  606  604 ar
   569  607  608 1
   570  609  607 1
   571  610  607 1
   572  611  610 1
   573  612  610 1
   574  613  612 1
   575  614  612 1
   576  615  612 1
   577  616  610 1
   578  617  616 1
   579  618  616 1
   580  619  616 1
   581  620  606 ar
   582  621  620 1
   583  622  620 ar
   584  623  622 1
   585  624  625 ar
   586  625  626 1
   587  627  625 ar
   588  628  627 1
   589  629  627 ar
   590  630  629 1
   591  631  629 ar
   592  632  624 ar
   593  633  631 ar
   594  634  635 1
   595  636  634 1
   596  637  634 1
   597  638  637 1
   598  639  637 1
   599  640  639 1
   600  641  639 1
   601  642  639 1
   602  643  637 1
   603  644  643 1
   604  645  643 1
   605  646  643 1
   606  647  633 ar
   607  648  647 1
   608  649  647 ar
   609  650  649 1
   610  651  652 ar
   611  652  653 1
   612  654  652 ar
   613  655  654 1
   614  656  654 ar
   615  657  656 1
   616  658  656 ar
   617  659  651 ar
   618  660  658 ar
   619  661  662 1
   620  663  661 1
   621  664  661 1
   622  665  664 1
   623  666  664 1
   624  667  666 1
   625  668  666 1
   626  669  666 1
   627  670  664 1
   628  671  670 1
   629  672  670 1
   630  673  670 1
   631  674  660 ar
   632  675  674 1
   633  676  674 ar
   634  677  676 1
   635  678  679 ar
   636  679  680 1
   637  681  679 ar
   638  682  681 1
   639  683  681 ar
   640  684  683 1
   641  685  683 ar
   642  686  678 ar
   643  687  685 ar
   644  688  689 1
   645  690  688 1
   646  691  688 1
   647  692  691 1
   648  693  691 1
   649  694  693 1
   650  695  693 1
   651  696  693 1
   652  697  691 1
   653  698  697 1
   654  699  697 1
   655  700  697 1
   656  701  687 ar
   657  702  701 1
   658  703  701 ar
   659  704  703 1
   660  705  706 ar
   661  706  707 1
   662  708  706 ar
   663  709  708 1
   664  710  708 ar
   665  711  710 1
   666  712  710 ar
   667  713  705 ar
   668  714  712 ar
   669  715  714 ar
   670  716  715 1
   671  717  715 ar
   672  718  717 1
   673  719  720 1
   674  721  719 1
   675  722  719 1
   676  723  724 1
   677  725  723 1
   678  726  723 1
   679  727  726 1
   680  728  726 1
   681  729  726 1
   682  730  729 1
   683  731  729 2
   684  732  731 1
   685  733  731 1
   686  734  733 1
   687  735  733 1
   688  736  733 1
   689  737  736 1
   690  738  736 1
   691  739  736 1
   692  740  739 1
   693  741  739 1
   694  742  739 1
   695  743  742 1
   696  744  742 1
   697  745  583 1
   698  746  591 ar
   699  747  596 1
   700  748  747 1
   701  749  605 ar
   702  750  623 1
   703  751  750 1
   704  752  632 ar
   705  753  650 1
   706  754  753 1
   707  755  659 ar
   708  756  677 1
   709  757  756 1
   710  758  686 ar
   711  759  704 1
   712  760  759 1
   713  761  713 ar
   714  762  745 2
   715  763  745 2
   716  764  596 2
   717  765  606 1
   718  766  623 2
   719  767  633 1
   720  768  650 2
   721  769  660 1
   722  770  677 2
   723  771  687 1
   724  772  704 2
   725  773  718 1
   726  774  718 2
   727  775  592 1
   728  776  714 1
   729    8    9 ar
   730   13  164 ar
   731   15  165 1
   732   22   23 ar
   733   25  183 1
   734   40  167 ar
   735   42  168 1
   736   49   50 ar
   737   52  185 1
   738   67  170 ar
   739   69  171 1
   740   76   77 ar
   741   79  187 1
   742   94  173 ar
   743   96  174 1
   744  103  104 ar
   745  106  189 1
   746  121  176 ar
   747  123  177 1
   748  130  131 ar
   749  135  179 ar
   750  137  191 1
   751  141  193 1
   752  160  194 1
   753  202  203 ar
   754  207  358 ar
   755  209  359 1
   756  216  217 ar
   757  219  377 1
   758  234  361 ar
   759  236  362 1
   760  243  244 ar
   761  246  379 1
   762  261  364 ar
   763  263  365 1
   764  270  271 ar
   765  273  381 1
   766  288  367 ar
   767  290  368 1
   768  297  298 ar
   769  300  383 1
   770  315  370 ar
   771  317  371 1
   772  324  325 ar
   773  329  373 ar
   774  331  385 1
   775  335  387 1
   776  354  388 1
   777  396  397 ar
   778  401  552 ar
   779  403  553 1
   780  410  411 ar
   781  413  571 1
   782  428  555 ar
   783  430  556 1
   784  437  438 ar
   785  440  573 1
   786  455  558 ar
   787  457  559 1
   788  464  465 ar
   789  467  575 1
   790  482  561 ar
   791  484  562 1
   792  491  492 ar
   793  494  577 1
   794  509  564 ar
   795  511  565 1
   796  518  519 ar
   797  523  567 ar
   798  525  579 1
   799  529  581 1
   800  548  582 1
   801  590  591 ar
   802  595  746 ar
   803  597  747 1
   804  604  605 ar
   805  607  765 1
   806  622  749 ar
   807  624  750 1
   808  631  632 ar
   809  634  767 1
   810  649  752 ar
   811  651  753 1
   812  658  659 ar
   813  661  769 1
   814  676  755 ar
   815  678  756 1
   816  685  686 ar
   817  688  771 1
   818  703  758 ar
   819  705  759 1
   820  712  713 ar
   821  717  761 ar
   822  719  773 1
   823  723  775 1
   824  742  776 1
@<TRIPOS>SUBSTRUCTURE
     1 RES1 1
     2 RES2 195
     3 RES3 389
     4 RES4 583

@<TRIPOS>CRYSIN
  16.3984   18.7230   31.3139  93.7559  90.1400 110.0900   1 1

