# MOL2 file generated by ConQuest
# Please check atom types

@<TRIPOS>MOLECULE
SEDJAP
   188   200     1
SMALL
NO_CHARGES
****
Generated from CSD

@<TRIPOS>ATOM
      1 O1        14.9277   10.7609    9.5891 O.2       1 RES1    0.0000
      2 O2        16.3231   11.1329    7.9782 O.2       1 RES1    0.0000
      3 O3         9.2934   10.8200    8.3361 O.2       1 RES1    0.0000
      4 O4        12.1174    3.9353    6.3225 O.3       1 RES1    0.0000
      5 O5        16.1234    7.0073    5.4237 O.2       1 RES1    0.0000
      6 O6        17.3497   14.4597    4.2909 O.3       1 RES1    0.0000
      7 O7        12.2365   14.3414    5.1997 O.2       1 RES1    0.0000
      8 O8         6.7606    8.9761    4.9121 O.3       1 RES1    0.0000
      9 O9        10.8252    6.2368    3.6188 O.2       1 RES1    0.0000
     10 O10       17.9317    6.7466    0.9421 O.3       1 RES1    0.0000
     11 O11       16.5810   11.6898    0.9881 O.2       1 RES1    0.0000
     12 O12        8.2763   11.2515    1.5480 O.3       1 RES1    0.0000
     13 O13        9.9740    9.8807    1.0437 O.2       1 RES1    0.0000
     14 O14       10.2563   15.8156    2.0354 O.3       1 RES1    0.0000
     15 O15       11.0706   15.7070    8.3245 O.3       1 RES1    0.0000
     16 N1        15.3945   11.4604    8.6995 N.pl3     1 RES1    0.0000
     17 N2        12.6421   11.8455    8.2947 N.ar      1 RES1    0.0000
     18 N3        11.2064    9.7202    7.6660 N.am      1 RES1    0.0000
     19 H1        12.0414    9.8833    7.4397 H         1 RES1    0.0000
     20 N4        12.9423    8.0043    6.5684 N.ar      1 RES1    0.0000
     21 N5        15.0870    9.0505    5.3410 N.am      1 RES1    0.0000
     22 H2        14.3008    9.4277    5.4570 H         1 RES1    0.0000
     23 N6        14.4248   11.5835    4.9814 N.ar      1 RES1    0.0000
     24 N7        11.8508   12.1076    4.7876 N.am      1 RES1    0.0000
     25 H3        12.2821   11.3677    4.5833 H         1 RES1    0.0000
     26 N8        10.8064    9.7024    4.2434 N.ar      1 RES1    0.0000
     27 N9        12.3964    7.7907    3.0629 N.am      1 RES1    0.0000
     28 H4        12.5387    8.6580    3.0232 H         1 RES1    0.0000
     29 N10       14.5464    8.9693    1.9232 N.ar      1 RES1    0.0000
     30 N11       14.3420   11.5366    1.3853 N.am      1 RES1    0.0000
     31 H5        13.6964   10.9436    1.4616 H         1 RES1    0.0000
     32 N12       11.7260   11.9924    1.4183 N.ar      1 RES1    0.0000
     33 C1        14.8325   12.8025    8.5644 C.ar      1 RES1    0.0000
     34 C2        15.6834   13.8591    8.5835 C.ar      1 RES1    0.0000
     35 H6        16.6223   13.7214    8.6264 H         1 RES1    0.0000
     36 C3        15.1559   15.1614    8.5390 C.ar      1 RES1    0.0000
     37 H7        15.7440   15.9075    8.5422 H         1 RES1    0.0000
     38 C4        13.8044   15.3614    8.4929 C.ar      1 RES1    0.0000
     39 H8        13.4611   16.2479    8.4882 H         1 RES1    0.0000
     40 C5        12.9175   14.2681    8.4484 C.ar      1 RES1    0.0000
     41 C6        13.4186   12.9433    8.4585 C.ar      1 RES1    0.0000
     42 C7        11.5035   14.4207    8.3372 C.ar      1 RES1    0.0000
     43 C8        10.7115   13.3030    8.2499 C.ar      1 RES1    0.0000
     44 H9         9.7651   13.3784    8.2165 H         1 RES1    0.0000
     45 C9        11.3386   12.0427    8.2111 C.ar      1 RES1    0.0000
     46 C10       10.4972   10.7988    8.0684 C.2       1 RES1    0.0000
     47 C11       10.8078    8.3865    7.5578 C.ar      1 RES1    0.0000
     48 C12        9.5830    7.9043    8.0084 C.ar      1 RES1    0.0000
     49 H10        8.9191    8.5036    8.3309 H         1 RES1    0.0000
     50 C13        9.3383    6.5248    7.9830 C.ar      1 RES1    0.0000
     51 H11        8.5059    6.1996    8.3071 H         1 RES1    0.0000
     52 C14       10.2515    5.6323    7.5111 C.ar      1 RES1    0.0000
     53 H12       10.0580    4.7021    7.5207 H         1 RES1    0.0000
     54 C15       11.4883    6.0947    7.0071 C.ar      1 RES1    0.0000
     55 C16       11.7837    7.4828    7.0306 C.ar      1 RES1    0.0000
     56 C17       12.4728    5.2333    6.4515 C.ar      1 RES1    0.0000
     57 C18       12.9676    3.0755    5.5301 C.3       1 RES1    0.0000
     58 H13       13.6830    2.6940    6.0972 H         1 RES1    0.0000
     59 H14       13.3935    3.5999    4.8057 H         1 RES1    0.0000
     60 C19       12.1115    1.9314    4.9185 C.3       1 RES1    0.0000
     61 H15       11.3182    2.3222    4.4514 H         1 RES1    0.0000
     62 C20       12.9761    1.2148    3.9160 C.3       1 RES1    0.0000
     63 H16       13.1375    1.7986    3.1455 H         1 RES1    0.0000
     64 H17       12.5231    0.3979    3.6189 H         1 RES1    0.0000
     65 H18       13.8331    0.9792    4.3323 H         1 RES1    0.0000
     66 C21       11.6392    0.9936    6.0099 C.3       1 RES1    0.0000
     67 H19       12.4110    0.5289    6.3975 H         1 RES1    0.0000
     68 H20       11.0203    0.3351    5.6302 H         1 RES1    0.0000
     69 H21       11.1824    1.5080    6.7073 H         1 RES1    0.0000
     70 C22       13.6808    5.7608    6.0671 C.ar      1 RES1    0.0000
     71 H22       14.3830    5.1969    5.7668 H         1 RES1    0.0000
     72 C23       13.8531    7.1581    6.1242 C.ar      1 RES1    0.0000
     73 C24       15.1562    7.7150    5.6063 C.2       1 RES1    0.0000
     74 C25       16.1031    9.8885    4.9137 C.ar      1 RES1    0.0000
     75 C26       17.3951    9.4932    4.5960 C.ar      1 RES1    0.0000
     76 H23       17.6410    8.5769    4.6198 H         1 RES1    0.0000
     77 C27       18.3428   10.4881    4.2369 C.ar      1 RES1    0.0000
     78 H24       19.2244   10.2184    4.0066 H         1 RES1    0.0000
     79 C28       18.0443   11.7893    4.2131 C.ar      1 RES1    0.0000
     80 H25       18.7170   12.4228    3.9939 H         1 RES1    0.0000
     81 C29       16.7290   12.2343    4.5134 C.ar      1 RES1    0.0000
     82 C30       15.7324   11.2683    4.8088 C.ar      1 RES1    0.0000
     83 C31       16.3140   13.5984    4.5420 C.ar      1 RES1    0.0000
     84 C32       17.0157   15.8682    4.2973 C.3       1 RES1    0.0000
     85 H26       17.0209   16.1301    5.2521 H         1 RES1    0.0000
     86 H27       16.0706   15.9101    4.0066 H         1 RES1    0.0000
     87 C33       17.6796   16.9574    3.5983 C.3       1 RES1    0.0000
     88 H28       17.2608   16.8579    2.6959 H         1 RES1    0.0000
     89 C34       17.5479   18.3162    3.7683 C.3       1 RES1    0.0000
     90 H29       16.7710   18.6356    3.2615 H         1 RES1    0.0000
     91 H30       18.3559   18.7665    3.4442 H         1 RES1    0.0000
     92 H31       17.4204   18.5178    4.7183 H         1 RES1    0.0000
     93 C35       18.8474   16.3762    3.3664 C.3       1 RES1    0.0000
     94 H32       19.0371   15.7269    4.0765 H         1 RES1    0.0000
     95 H33       19.5517   17.0569    3.3505 H         1 RES1    0.0000
     96 H34       18.8186   15.9154    2.5021 H         1 RES1    0.0000
     97 C36       15.0014   13.9204    4.7739 C.ar      1 RES1    0.0000
     98 H35       14.7155   14.8236    4.8168 H         1 RES1    0.0000
     99 C37       14.0967   12.8663    4.9439 C.ar      1 RES1    0.0000
    100 C38       12.6243   13.1920    4.9963 C.2       1 RES1    0.0000
    101 C39       10.4553   11.9990    4.8517 C.ar      1 RES1    0.0000
    102 C40        9.6100   13.0501    5.1107 C.ar      1 RES1    0.0000
    103 H36        9.9551   13.9309    5.1901 H         1 RES1    0.0000
    104 C41        8.2391   12.8171    5.2584 C.ar      1 RES1    0.0000
    105 H37        7.6644   13.5512    5.4443 H         1 RES1    0.0000
    106 C42        7.6990   11.5654    5.1441 C.ar      1 RES1    0.0000
    107 H38        6.7698   11.4280    5.2823 H         1 RES1    0.0000
    108 C43        8.5389   10.4789    4.8200 C.ar      1 RES1    0.0000
    109 C44        9.9458   10.6878    4.6389 C.ar      1 RES1    0.0000
    110 C45        8.0933    9.1411    4.6818 C.ar      1 RES1    0.0000
    111 C46        6.2312    7.6579    4.7787 C.3       1 RES1    0.0000
    112 H39        6.6765    7.0427    5.4157 H         1 RES1    0.0000
    113 H40        6.3794    7.3202    3.8604 H         1 RES1    0.0000
    114 C47        4.7413    7.7391    5.0773 C.3       1 RES1    0.0000
    115 H41        4.6208    8.1108    5.9987 H         1 RES1    0.0000
    116 C48        4.0292    8.6371    4.1003 C.3       1 RES1    0.0000
    117 H42        4.2922    9.5691    4.2608 H         1 RES1    0.0000
    118 H43        3.0605    8.5481    4.2179 H         1 RES1    0.0000
    119 H44        4.2727    8.3831    3.1852 H         1 RES1    0.0000
    120 C49        4.1851    6.3175    5.0535 C.3       1 RES1    0.0000
    121 H45        4.4414    5.8828    4.2147 H         1 RES1    0.0000
    122 H46        3.2085    6.3489    5.1202 H         1 RES1    0.0000
    123 H47        4.5491    5.8122    5.8097 H         1 RES1    0.0000
    124 C50        8.9648    8.1546    4.2862 C.ar      1 RES1    0.0000
    125 H48        8.6673    7.2600    4.1718 H         1 RES1    0.0000
    126 C51       10.3049    8.5020    4.0569 C.ar      1 RES1    0.0000
    127 C52       11.2028    7.3979    3.5665 C.2       1 RES1    0.0000
    128 C53       13.4303    6.9694    2.5990 C.ar      1 RES1    0.0000
    129 C54       13.3973    5.5860    2.6467 C.ar      1 RES1    0.0000
    130 H49       12.6232    5.1393    2.9708 H         1 RES1    0.0000
    131 C55       14.5201    4.8403    2.2130 C.ar      1 RES1    0.0000
    132 H50       14.4811    3.8905    2.2416 H         1 RES1    0.0000
    133 C56       15.6397    5.4270    1.7650 C.ar      1 RES1    0.0000
    134 H51       16.3792    4.8932    1.4981 H         1 RES1    0.0000
    135 C57       15.7209    6.8327    1.6887 C.ar      1 RES1    0.0000
    136 C58       14.5851    7.6124    2.0608 C.ar      1 RES1    0.0000
    137 C59       16.8524    7.5270    1.2058 C.ar      1 RES1    0.0000
    138 C60       19.1292    7.3882    0.4687 C.3       1 RES1    0.0000
    139 H52       19.5185    7.9852    1.1565 H         1 RES1    0.0000
    140 H53       18.9623    7.9066   -0.3590 H         1 RES1    0.0000
    141 C61       20.1379    6.0268    0.1684 C.3       1 RES1    0.0000
    142 H54       19.9210    5.4535   -0.6212 H         1 RES1    0.0000
    143 C62       20.4004    5.3854    1.3901 C.3       1 RES1    0.0000
    144 H55       20.5650    6.0583    2.0827 H         1 RES1    0.0000
    145 H56       21.1902    4.8120    1.2948 H         1 RES1    0.0000
    146 H57       19.6295    4.8356    1.6427 H         1 RES1    0.0000
    147 C63       16.8130    8.8832    1.0676 C.ar      1 RES1    0.0000
    148 H58       17.5601    9.3649    0.7371 H         1 RES1    0.0000
    149 C64       15.6297    9.5419    1.4298 C.ar      1 RES1    0.0000
    150 C65       15.5772   11.0347    1.2487 C.2       1 RES1    0.0000
    151 C66       13.9420   12.8705    1.4234 C.ar      1 RES1    0.0000
    152 C67       14.8010   13.9439    1.4155 C.ar      1 RES1    0.0000
    153 H59       15.7357   13.8000    1.3202 H         1 RES1    0.0000
    154 C68       14.3020   15.2553    1.5458 C.ar      1 RES1    0.0000
    155 H60       14.9038   15.9913    1.5140 H         1 RES1    0.0000
    156 C69       12.9704   15.4847    1.7157 C.ar      1 RES1    0.0000
    157 H61       12.6513   16.3683    1.8603 H         1 RES1    0.0000
    158 C70       12.0672   14.3998    1.6760 C.ar      1 RES1    0.0000
    159 C71       12.5220   13.0745    1.4981 C.ar      1 RES1    0.0000
    160 C72       10.6549   14.5542    1.8031 C.ar      1 RES1    0.0000
    161 C73        9.8370   13.4515    1.6856 C.ar      1 RES1    0.0000
    162 H62        8.8939   13.5408    1.7332 H         1 RES1    0.0000
    163 C74       10.4222   12.2011    1.4933 C.ar      1 RES1    0.0000
    164 C75        9.5755   10.9609    1.3265 C.2       1 RES1    0.0000
    165 C76        7.3621   10.1556    1.3996 C.3       1 RES1    0.0000
    166 H63        7.4914    9.7367    0.5243 H         1 RES1    0.0000
    167 H64        6.4430   10.4855    1.4711 H         1 RES1    0.0000
    168 H65        7.5283    9.4958    2.1050 H         1 RES1    0.0000
    169 C77        8.8856   16.0306    2.4672 C.3       1 RES1    0.0000
    170 H66        8.5990   15.3132    3.0852 H         1 RES1    0.0000
    171 H67        8.2736   16.0410    1.6887 H         1 RES1    0.0000
    172 C78        8.8788   17.3561    3.1614 C.3       1 RES1    0.0000
    173 H68        9.2144   18.0543    2.5434 H         1 RES1    0.0000
    174 H69        7.9517   17.5909    3.4156 H         1 RES1    0.0000
    175 C79        9.7361   17.3184    4.3799 C.2       1 RES1    0.0000
    176 H70       10.6656   17.1616    4.2608 H         1 RES1    0.0000
    177 C80        9.3000   17.4862    5.6063 C.2       1 RES1    0.0000
    178 H71        8.3903   17.7323    5.7303 H         1 RES1    0.0000
    179 C81       10.1562   17.3134    6.8201 C.3       1 RES1    0.0000
    180 H72       10.0107   18.0805    7.4269 H         1 RES1    0.0000
    181 H73       11.1080   17.3239    6.5437 H         1 RES1    0.0000
    182 C82        9.8809   16.0209    7.5858 C.3       1 RES1    0.0000
    183 H74        9.1150   16.1431    8.2022 H         1 RES1    0.0000
    184 H75        9.6639   15.2870    6.9551 H         1 RES1    0.0000
    185 C83       21.5477    7.2259    0.0032 C.3       1 RES1    0.0000
    186 H76       21.4450    7.7391   -0.8261 H         1 RES1    0.0000
    187 H77       22.3942    6.7337   -0.0191 H         1 RES1    0.0000
    188 H78       21.5473    7.8412    0.7673 H         1 RES1    0.0000
@<TRIPOS>BOND
     1    1   16 2
     2    2   16 2
     3    3   46 2
     4    4   56 1
     5    5   73 2
     6    6   83 1
     7    7  100 2
     8    8  110 1
     9    9  127 2
    10   10  137 1
    11   11  150 2
    12   12  164 1
    13   13  164 2
    14   14  160 1
    15   15   42 1
    16   16   33 1
    17   17   41 ar
    18   18   19 1
    19   20   55 ar
    20   21   22 1
    21   23   82 ar
    22   24   25 1
    23   26  109 ar
    24   27   28 1
    25   29  136 ar
    26   30   31 1
    27   32  159 ar
    28   33   34 ar
    29   34   35 1
    30   36   34 ar
    31   37   36 1
    32   38   36 ar
    33   39   38 1
    34   40   38 ar
    35   41   33 ar
    36   42   40 ar
    37   43   42 ar
    38   44   43 1
    39   45   17 ar
    40   46   18 1
    41   47   18 1
    42   48   47 ar
    43   49   48 1
    44   50   48 ar
    45   51   50 1
    46   52   50 ar
    47   53   52 1
    48   54   52 ar
    49   55   47 ar
    50   56   54 ar
    51   57    4 1
    52   58   57 1
    53   59   57 1
    54   60   57 1
    55   61   60 1
    56   62   60 1
    57   63   62 1
    58   64   62 1
    59   65   62 1
    60   66   60 1
    61   67   66 1
    62   68   66 1
    63   69   66 1
    64   70   56 ar
    65   71   70 1
    66   72   20 ar
    67   73   21 1
    68   74   21 1
    69   75   74 ar
    70   76   75 1
    71   77   75 ar
    72   78   77 1
    73   79   77 ar
    74   80   79 1
    75   81   79 ar
    76   82   74 ar
    77   83   81 ar
    78   84    6 1
    79   85   84 1
    80   86   84 1
    81   87   84 1
    82   88   87 1
    83   89   87 1
    84   90   89 1
    85   91   89 1
    86   92   89 1
    87   93   87 1
    88   94   93 1
    89   95   93 1
    90   96   93 1
    91   97   83 ar
    92   98   97 1
    93   99   23 ar
    94  100   24 1
    95  101   24 1
    96  102  101 ar
    97  103  102 1
    98  104  102 ar
    99  105  104 1
   100  106  104 ar
   101  107  106 1
   102  108  106 ar
   103  109  101 ar
   104  110  108 ar
   105  111    8 1
   106  112  111 1
   107  113  111 1
   108  114  111 1
   109  115  114 1
   110  116  114 1
   111  117  116 1
   112  118  116 1
   113  119  116 1
   114  120  114 1
   115  121  120 1
   116  122  120 1
   117  123  120 1
   118  124  110 ar
   119  125  124 1
   120  126   26 ar
   121  127   27 1
   122  128   27 1
   123  129  128 ar
   124  130  129 1
   125  131  129 ar
   126  132  131 1
   127  133  131 ar
   128  134  133 1
   129  135  133 ar
   130  136  128 ar
   131  137  135 ar
   132  138   10 1
   133  139  138 1
   134  140  138 1
   135  141  138 1
   136  142  141 1
   137  143  141 1
   138  144  143 1
   139  145  143 1
   140  146  143 1
   141  147  137 ar
   142  148  147 1
   143  149   29 ar
   144  150   30 1
   145  151   30 1
   146  152  151 ar
   147  153  152 1
   148  154  152 ar
   149  155  154 1
   150  156  154 ar
   151  157  156 1
   152  158  156 ar
   153  159  151 ar
   154  160  158 ar
   155  161  160 ar
   156  162  161 1
   157  163   32 ar
   158  164  163 1
   159  165   12 1
   160  166  165 1
   161  167  165 1
   162  168  165 1
   163  169   14 1
   164  170  169 1
   165  171  169 1
   166  172  169 1
   167  173  172 1
   168  174  172 1
   169  175  172 1
   170  176  175 1
   171  177  175 2
   172  178  177 1
   173  179  177 1
   174  180  179 1
   175  181  179 1
   176  182   15 1
   177  183  182 1
   178  184  182 1
   179  185  141 1
   180  186  185 1
   181  187  185 1
   182  188  185 1
   183   40   41 ar
   184   43   45 ar
   185   45   46 1
   186   54   55 ar
   187   70   72 ar
   188   72   73 1
   189   81   82 ar
   190   97   99 ar
   191   99  100 1
   192  108  109 ar
   193  124  126 ar
   194  126  127 1
   195  135  136 ar
   196  147  149 ar
   197  149  150 1
   198  158  159 ar
   199  161  163 ar
   200  179  182 1
@<TRIPOS>SUBSTRUCTURE
     1 RES1 1

@<TRIPOS>CRYSIN
  18.8063   26.1809   16.1355  90.0000 100.0786  90.0000  14 1

