# MOL2 file generated by ConQuest
# Please check atom types

@<TRIPOS>MOLECULE
SEDMIZ
    78    82     2
SMALL
NO_CHARGES
****
Generated from CSD

@<TRIPOS>ATOM
      1 N1         7.5757   10.0998   10.9373 N.2       1 RES1    0.0000
      2 N2         8.3869    9.8277   11.9986 N.pl3     1 RES1    0.0000
      3 N3         5.0806    8.8089    4.3985 N.2       2 RES2    0.0000
      4 N4         4.5298    9.4961    3.3580 N.pl3     2 RES2    0.0000
      5 N5         2.9301   10.4165    6.4889 N.pl3     1 RES1    0.0000
      6 C1         4.7736    7.5770    4.5955 C.2       2 RES2    0.0000
      7 H1         4.1573    7.1560    4.0412 H         2 RES2    0.0000
      8 C2         5.6364    9.6726    9.6330 C.ar      1 RES1    0.0000
      9 C3         5.3944    6.8423    5.6891 C.ar      2 RES2    0.0000
     10 C4         6.5294    9.3927   10.7457 C.2       1 RES1    0.0000
     11 H2         6.3368    8.6906   11.3248 H         1 RES1    0.0000
     12 C5         8.1649    8.7119   12.8707 C.ar      1 RES1    0.0000
     13 C6         3.8711   10.1561    7.5751 C.ar      1 RES1    0.0000
     14 C7         4.4646    8.9430    9.5126 C.ar      1 RES1    0.0000
     15 H3         4.2748    8.2800   10.1373 H         1 RES1    0.0000
     16 O1         2.0315    9.6135    6.2877 O.2       1 RES1    0.0000
     17 C8         9.4492   10.7228   12.2179 C.ar      1 RES1    0.0000
     18 C9         5.9126   10.6506    8.6751 C.ar      1 RES1    0.0000
     19 H4         6.6979   11.1435    8.7333 H         1 RES1    0.0000
     20 C10        5.0331   10.8901    7.6464 C.ar      1 RES1    0.0000
     21 H5         5.2207   11.5397    7.0077 H         1 RES1    0.0000
     22 C11        3.5332    8.8887    2.5200 C.ar      2 RES2    0.0000
     23 C12        5.2413    5.4651    5.7682 C.ar      2 RES2    0.0000
     24 H6         4.7242    5.0250    5.1327 H         2 RES2    0.0000
     25 C13        6.1545    7.4773    6.6662 C.ar      2 RES2    0.0000
     26 H7         6.2811    8.3972    6.6220 H         2 RES2    0.0000
     27 C14        9.4506   11.9812   11.6413 C.ar      1 RES1    0.0000
     28 H8         8.7189   12.2654   11.1419 H         1 RES1    0.0000
     29 C15        6.5707    5.3991    7.7211 C.ar      2 RES2    0.0000
     30 C16        4.9811   10.8057    3.1407 C.ar      2 RES2    0.0000
     31 C17       10.5345   10.3313   12.9961 C.ar      1 RES1    0.0000
     32 H9        10.5358    9.4994   13.4117 H         1 RES1    0.0000
     33 O2         3.0954   11.4169    5.8118 O.2       1 RES1    0.0000
     34 N6         7.1988    4.6513    8.8117 N.pl3     2 RES2    0.0000
     35 C18        3.5720    9.1783    8.4868 C.ar      1 RES1    0.0000
     36 H10        2.7861    8.6847    8.4162 H         1 RES1    0.0000
     37 C19        6.7189    6.7642    7.6935 C.ar      2 RES2    0.0000
     38 H11        7.1954    7.1997    8.3629 H         2 RES2    0.0000
     39 C20        7.7080    8.9295   14.1478 C.ar      1 RES1    0.0000
     40 H12        7.5310    9.7951   14.4391 H         1 RES1    0.0000
     41 C21        5.9806   11.3633    3.9221 C.ar      2 RES2    0.0000
     42 H13        6.3677   10.8643    4.6052 H         2 RES2    0.0000
     43 C22       11.6056   11.1820   13.1471 C.ar      1 RES1    0.0000
     44 H14       12.3325   10.9135   13.6617 H         1 RES1    0.0000
     45 C23        5.8430    4.7380    6.7734 C.ar      2 RES2    0.0000
     46 H15        5.7544    3.8127    6.8049 H         2 RES2    0.0000
     47 C24       10.5343   12.8113   11.8067 C.ar      1 RES1    0.0000
     48 H16       10.5351   13.6520   11.4086 H         1 RES1    0.0000
     49 C25        8.4093    7.4295   12.4332 C.ar      1 RES1    0.0000
     50 H17        8.7079    7.2792   11.5656 H         1 RES1    0.0000
     51 C26        8.2082    6.3721   13.2891 C.ar      1 RES1    0.0000
     52 H18        8.3736    5.5034   13.0001 H         1 RES1    0.0000
     53 C27        1.2562    8.3087    2.1232 C.ar      2 RES2    0.0000
     54 H19        0.3597    8.3496    2.3689 H         2 RES2    0.0000
     55 C28        7.5133    7.8631   14.9952 C.ar      1 RES1    0.0000
     56 H20        7.2102    8.0105   15.8629 H         1 RES1    0.0000
     57 C29        2.2147    8.9445    2.8929 C.ar      2 RES2    0.0000
     58 H21        1.9660    9.4083    3.6601 H         2 RES2    0.0000
     59 C30        3.9001    8.2180    1.3805 C.ar      2 RES2    0.0000
     60 H22        4.7920    8.1938    1.1174 H         2 RES2    0.0000
     61 O3         7.6217    5.2713    9.7676 O.2       2 RES2    0.0000
     62 C31        4.8801   12.8512    1.8961 C.ar      2 RES2    0.0000
     63 H23        4.5104   13.3528    1.2058 H         2 RES2    0.0000
     64 C32        4.4356   11.5629    2.1157 C.ar      2 RES2    0.0000
     65 H24        3.7690   11.2031    1.5762 H         2 RES2    0.0000
     66 C33        7.7630    6.5953   14.5701 C.ar      1 RES1    0.0000
     67 H25        7.6318    5.8781   15.1480 H         1 RES1    0.0000
     68 C34       11.6198   12.4118   12.5557 C.ar      1 RES1    0.0000
     69 H26       12.3533   12.9744   12.6571 H         1 RES1    0.0000
     70 C35        6.4043   12.6566    3.6918 C.ar      2 RES2    0.0000
     71 H27        7.0652   13.0262    4.2302 H         2 RES2    0.0000
     72 O4         7.2709    3.4423    8.7254 O.2       2 RES2    0.0000
     73 C36        2.9349    7.5796    0.6271 C.ar      2 RES2    0.0000
     74 H28        3.1793    7.1190   -0.1418 H         2 RES2    0.0000
     75 C37        5.8596   13.4031    2.6781 C.ar      2 RES2    0.0000
     76 H29        6.1524   14.2727    2.5244 H         2 RES2    0.0000
     77 C38        1.6287    7.6228    1.0052 C.ar      2 RES2    0.0000
     78 H30        0.9851    7.1815    0.4985 H         2 RES2    0.0000
@<TRIPOS>BOND
     1    1    2 1
     2    2   12 1
     3    3    4 1
     4    4   22 1
     5    5   13 1
     6    6    3 2
     7    7    6 1
     8    8   10 1
     9    9    6 1
    10   10    1 2
    11   11   10 1
    12   12   39 ar
    13   13   20 ar
    14   14    8 ar
    15   15   14 1
    16   16    5 2
    17   17    2 1
    18   18    8 ar
    19   19   18 1
    20   20   18 ar
    21   21   20 1
    22   22   57 ar
    23   23    9 ar
    24   24   23 1
    25   25    9 ar
    26   26   25 1
    27   27   17 ar
    28   28   27 1
    29   29   34 1
    30   30    4 1
    31   31   17 ar
    32   32   31 1
    33   33    5 2
    34   34   61 2
    35   35   13 ar
    36   36   35 1
    37   37   25 ar
    38   38   37 1
    39   39   40 1
    40   41   30 ar
    41   42   41 1
    42   43   31 ar
    43   44   43 1
    44   45   23 ar
    45   46   45 1
    46   47   27 ar
    47   48   47 1
    48   49   12 ar
    49   50   49 1
    50   51   49 ar
    51   52   51 1
    52   53   54 1
    53   55   39 ar
    54   56   55 1
    55   57   53 ar
    56   58   57 1
    57   59   22 ar
    58   60   59 1
    59   62   63 1
    60   64   30 ar
    61   65   64 1
    62   66   51 ar
    63   67   66 1
    64   68   43 ar
    65   69   68 1
    66   70   41 ar
    67   71   70 1
    68   72   34 2
    69   73   59 ar
    70   74   73 1
    71   75   62 ar
    72   76   75 1
    73   77   53 ar
    74   78   77 1
    75   14   35 ar
    76   29   37 ar
    77   29   45 ar
    78   47   68 ar
    79   55   66 ar
    80   62   64 ar
    81   70   75 ar
    82   73   77 ar
@<TRIPOS>SUBSTRUCTURE
     1 RES1 1
     2 RES2 3

@<TRIPOS>CRYSIN
  10.8648   11.1477   16.2075  72.0840  89.0370  62.0840   2 1

