# MOL2 file generated by ConQuest
# Please check atom types

@<TRIPOS>MOLECULE
SEDTUQ03
    14    13     1
SMALL
NO_CHARGES
****
Generated from CSD

@<TRIPOS>ATOM
      1 O1         0.1519    0.4100    8.4838 O.2       1 RES1    0.0000
      2 O2         0.5563    1.3418    6.5761 O.2       1 RES1    0.0000
      3 O3        -3.5968    0.4100    8.0603 O.2       1 RES1    0.0000
      4 O4        -2.1034    1.1106    9.4509 O.2       1 RES1    0.0000
      5 N1        -0.2518    0.9729    7.4435 N.pl3     1 RES1    0.0000
      6 N2        -2.4724    0.8626    8.2990 N.pl3     1 RES1    0.0000
      7 N3        -1.3959    1.9809    4.9697 N.pl3     1 RES1    0.0000
      8 H1        -1.7313    2.2518    4.1288 H         1 RES1    0.0000
      9 H2        -0.4704    2.0133    5.1469 H         1 RES1    0.0000
     10 N4        -3.4791    1.6809    5.7730 N.pl3     1 RES1    0.0000
     11 H3        -3.7916    1.9736    4.9772 H         1 RES1    0.0000
     12 H4        -4.0497    1.3974    6.3347 H         1 RES1    0.0000
     13 C1        -1.6106    1.1305    7.2062 C.2       1 RES1    0.0000
     14 C2        -2.1778    1.5954    5.9456 C.2       1 RES1    0.0000
@<TRIPOS>BOND
     1    1    5 2
     2    2    5 2
     3    3    6 2
     4    4    6 2
     5    5   13 1
     6    6   13 1
     7    7    8 1
     8    9    7 1
     9   10   11 1
    10   12   10 1
    11   13   14 2
    12   14    7 1
    13   10   14 1
@<TRIPOS>SUBSTRUCTURE
     1 RES1 1

@<TRIPOS>CRYSIN
   6.9340    6.6228   11.3119  90.0000  90.0650  90.0000 231 1

