# MOL2 file generated by ConQuest
# Please check atom types

@<TRIPOS>MOLECULE
SEDTUQ02
    14    13     1
SMALL
NO_CHARGES
****
Generated from CSD

@<TRIPOS>ATOM
      1 O1         0.1489    0.3805    8.4630 O.2       1 RES1    0.0000
      2 O2         0.5544    1.3136    6.5515 O.2       1 RES1    0.0000
      3 O3        -3.6031    0.3766    8.0348 O.2       1 RES1    0.0000
      4 O4        -2.1118    1.0853    9.4302 O.2       1 RES1    0.0000
      5 N1        -0.2555    0.9447    7.4190 N.pl3     1 RES1    0.0000
      6 N2        -2.4794    0.8341    8.2748 N.pl3     1 RES1    0.0000
      7 N3        -1.3997    1.9668    4.9473 N.pl3     1 RES1    0.0000
      8 H1        -1.7622    2.2537    4.1376 H         1 RES1    0.0000
      9 H2        -0.4068    1.9917    5.1748 H         1 RES1    0.0000
     10 N4        -3.4852    1.6659    5.7525 N.pl3     1 RES1    0.0000
     11 H3        -3.8117    1.9458    4.9831 H         1 RES1    0.0000
     12 H4        -4.0692    1.3496    6.3360 H         1 RES1    0.0000
     13 C1        -1.6152    1.1039    7.1850 C.2       1 RES1    0.0000
     14 C2        -2.1794    1.5763    5.9236 C.2       1 RES1    0.0000
@<TRIPOS>BOND
     1    1    5 2
     2    2    5 2
     3    3    6 2
     4    4    6 2
     5    5   13 1
     6    6   13 1
     7    7    8 1
     8    9    7 1
     9   10   11 1
    10   12   10 1
    11   13   14 2
    12   14    7 1
    13   10   14 1
@<TRIPOS>SUBSTRUCTURE
     1 RES1 1

@<TRIPOS>CRYSIN
   6.9209    6.5515   11.2741  90.0000  90.0600  90.0000 231 1

