# MOL2 file generated by ConQuest
# Please check atom types

@<TRIPOS>MOLECULE
SEDTUQ
    14    13     1
SMALL
NO_CHARGES
****
Generated from CSD

@<TRIPOS>ATOM
      1 C1        -1.6816    1.1095    7.2063 C.2       1 RES1    0.0000
      2 C2        -2.2338    1.5812    5.9445 C.2       1 RES1    0.0000
      3 N1        -0.3137    0.9466    7.4465 N.pl3     1 RES1    0.0000
      4 N2        -2.5535    0.8349    8.3020 N.pl3     1 RES1    0.0000
      5 O1         0.0777    0.3797    8.4924 O.2       1 RES1    0.0000
      6 O2         0.5009    1.3197    6.5764 O.2       1 RES1    0.0000
      7 O3        -3.6825    0.3771    8.0628 O.2       1 RES1    0.0000
      8 O4        -2.1986    1.0891    9.4651 O.2       1 RES1    0.0000
      9 N3        -1.4421    1.9733    4.9649 N.3       1 RES1    0.0000
     10 H1        -1.7755    2.2532    4.1977 H         1 RES1    0.0000
     11 H2        -0.5761    1.9641    5.0576 H         1 RES1    0.0000
     12 N4        -3.5446    1.6712    5.7706 N.3       1 RES1    0.0000
     13 H3        -3.8452    1.9641    5.0463 H         1 RES1    0.0000
     14 H4        -4.0865    1.3466    6.3248 H         1 RES1    0.0000
@<TRIPOS>BOND
     1    1    2 2
     2    2    9 1
     3    3    1 1
     4    4    1 1
     5    5    3 2
     6    6    3 2
     7    7    4 2
     8    8    4 2
     9    9   10 1
    10   11    9 1
    11   12    2 1
    12   13   12 1
    13   14   12 1
@<TRIPOS>SUBSTRUCTURE
     1 RES1 1

@<TRIPOS>CRYSIN
   6.9410    6.5690   11.3150  90.0000  90.5500  90.0000 231 1

