# MOL2 file generated by ConQuest
# Please check atom types

@<TRIPOS>MOLECULE
SEDTUQ09
    14    13     1
SMALL
NO_CHARGES
****
Generated from CSD

@<TRIPOS>ATOM
      1 O1         1.3152    2.1834    3.7958 O.2       1 RES1    0.0000
      2 O2        -0.1621    2.9026    2.3971 O.2       1 RES1    0.0000
      3 O3         4.0124    1.9571    0.9122 O.2       1 RES1    0.0000
      4 O4         3.5885    2.8937    2.8242 O.2       1 RES1    0.0000
      5 N1         0.9619    2.4404    2.6386 N.pl3     1 RES1    0.0000
      6 N2         3.1991    2.3298    1.7830 N.pl3     1 RES1    0.0000
      7 N3        -0.0358    1.5943    0.1137 N.3       1 RES1    0.0000
      8 N4         2.0689    1.2918   -0.6962 N.3       1 RES1    0.0000
      9 C1         1.8316    2.1667    1.5452 C.2       1 RES1    0.0000
     10 C2         1.2801    1.6897    0.2882 C.2       1 RES1    0.0000
     11 H1        -0.3999    1.3040   -0.7782 H         1 RES1    0.0000
     12 H2        -0.6681    1.9607    0.8058 H         1 RES1    0.0000
     13 H3         1.6303    0.9878   -1.5490 H         1 RES1    0.0000
     14 H4         3.0687    1.3036   -0.5814 H         1 RES1    0.0000
@<TRIPOS>BOND
     1    1    5 2
     2    2    5 2
     3    3    6 2
     4    4    6 2
     5    5    9 1
     6    6    9 1
     7    7   10 1
     8    8   10 1
     9    9   10 2
    10   11    7 1
    11   12    7 1
    12   13    8 1
    13   14    8 1
@<TRIPOS>SUBSTRUCTURE
     1 RES1 1

@<TRIPOS>CRYSIN
   6.9220    6.5010   11.2620  90.0000  90.4850  90.0000 231 1

