# MOL2 file generated by ConQuest
# Please check atom types

@<TRIPOS>MOLECULE
SEFGAL
    48    51     1
SMALL
NO_CHARGES
****
Generated from CSD

@<TRIPOS>ATOM
      1 O1         7.0896    2.3240    0.0415 O.3       1 RES1    0.0000
      2 O2         7.2734    1.2234    3.1527 O.3       1 RES1    0.0000
      3 O3         7.4124    0.8700    1.7590 O.3       1 RES1    0.0000
      4 O4         8.0037    3.0140    2.0745 O.3       1 RES1    0.0000
      5 O5         4.7461    2.0698    3.1195 O.3       1 RES1    0.0000
      6 O6         4.2204    2.9027    5.1182 O.2       1 RES1    0.0000
      7 O7        -0.8652   -1.7925    5.2771 O.2       1 RES1    0.0000
      8 O8        -0.0746   -2.6869    3.5038 O.2       1 RES1    0.0000
      9 N1        -0.0514   -1.8399    4.3685 N.pl3     1 RES1    0.0000
     10 C1         7.9466    2.0318    1.0794 C.3       1 RES1    0.0000
     11 C2         5.6754    2.4622    0.3606 C.3       1 RES1    0.0000
     12 C3         5.4393    3.5497    1.3973 C.3       1 RES1    0.0000
     13 C4         5.7013    3.1253    2.8349 C.3       1 RES1    0.0000
     14 C5         7.1384    2.6393    3.1350 C.3       1 RES1    0.0000
     15 C6         9.3158    1.7945    0.5077 C.3       1 RES1    0.0000
     16 C7         7.6698    3.1651    4.4385 C.3       1 RES1    0.0000
     17 C8         4.9881    2.7421   -0.9394 C.ar      1 RES1    0.0000
     18 C9         5.4444    3.7202   -1.8136 C.ar      1 RES1    0.0000
     19 C10        4.7734    3.9593   -2.9997 C.ar      1 RES1    0.0000
     20 C11        3.6486    3.2229   -3.3319 C.ar      1 RES1    0.0000
     21 C12        3.2039    2.2572   -2.4731 C.ar      1 RES1    0.0000
     22 C13        3.8571    2.0223   -1.2929 C.ar      1 RES1    0.0000
     23 C14        4.0359    2.1103    4.2452 C.2       1 RES1    0.0000
     24 C15        2.9744    1.0620    4.2653 C.ar      1 RES1    0.0000
     25 C16        2.0937    1.0364    5.3305 C.ar      1 RES1    0.0000
     26 C17        1.0831    0.0863    5.3673 C.ar      1 RES1    0.0000
     27 C18        1.0011   -0.8134    4.3484 C.ar      1 RES1    0.0000
     28 C19        1.8596   -0.8132    3.2797 C.ar      1 RES1    0.0000
     29 C20        2.8600    0.1420    3.2476 C.ar      1 RES1    0.0000
     30 H1         5.3150    1.6666    0.7710 H         1 RES1    0.0000
     31 H2         4.5518    3.8666    1.3190 H         1 RES1    0.0000
     32 H3         6.0418    4.2782    1.1933 H         1 RES1    0.0000
     33 H4         5.5692    3.9006    3.3852 H         1 RES1    0.0000
     34 H5         9.8954    1.4074    1.2964 H         1 RES1    0.0000
     35 H6         9.6962    2.6205    0.2005 H         1 RES1    0.0000
     36 H7         9.2774    1.1867   -0.2135 H         1 RES1    0.0000
     37 H8         7.7700    4.2086    4.2618 H         1 RES1    0.0000
     38 H9         8.5061    2.7640    4.6663 H         1 RES1    0.0000
     39 H10        7.0522    2.9929    5.1549 H         1 RES1    0.0000
     40 H11        6.2220    4.2527   -1.5787 H         1 RES1    0.0000
     41 H12        5.1233    4.6757   -3.5857 H         1 RES1    0.0000
     42 H13        3.1774    3.4070   -4.1645 H         1 RES1    0.0000
     43 H14        2.4348    1.7374   -2.6747 H         1 RES1    0.0000
     44 H15        3.5265    1.3361   -0.6963 H         1 RES1    0.0000
     45 H16        2.1838    1.6911    6.0481 H         1 RES1    0.0000
     46 H17        0.4570    0.0719    6.0991 H         1 RES1    0.0000
     47 H18        1.7621   -1.4589    2.5632 H         1 RES1    0.0000
     48 H19        3.5091    0.1497    2.5300 H         1 RES1    0.0000
@<TRIPOS>BOND
     1    1   10 1
     2    2    3 1
     3    3   10 1
     4    4   10 1
     5    5   13 1
     6    6   23 2
     7    7    9 2
     8    8    9 2
     9    9   27 1
    10   10   15 1
    11   11    1 1
    12   12   11 1
    13   13   12 1
    14   14    2 1
    15   15   34 1
    16   16   14 1
    17   17   11 1
    18   18   17 ar
    19   19   18 ar
    20   20   19 ar
    21   21   20 ar
    22   22   17 ar
    23   23    5 1
    24   24   23 1
    25   25   24 ar
    26   26   25 ar
    27   27   26 ar
    28   28   27 ar
    29   29   24 ar
    30   30   11 1
    31   31   12 1
    32   32   12 1
    33   33   13 1
    34   35   15 1
    35   36   15 1
    36   37   16 1
    37   38   16 1
    38   39   16 1
    39   40   18 1
    40   41   19 1
    41   42   20 1
    42   43   21 1
    43   44   22 1
    44   45   25 1
    45   46   26 1
    46   47   28 1
    47   48   29 1
    48    4   14 1
    49   13   14 1
    50   21   22 ar
    51   28   29 ar
@<TRIPOS>SUBSTRUCTURE
     1 RES1 1

@<TRIPOS>CRYSIN
   8.8300    9.3300   12.3000  91.8300 104.5600 101.3000   2 1

