# MOL2 file generated by ConQuest
# Please check atom types

@<TRIPOS>MOLECULE
SEFJEU
    32    33     1
SMALL
NO_CHARGES
****
Generated from CSD

@<TRIPOS>ATOM
      1 C1         9.4381   -2.2041    3.3610 C.3       1 RES1    0.0000
      2 H1        10.2320   -1.7386    3.6343 H         1 RES1    0.0000
      3 H2         9.5958   -2.6410    2.5213 H         1 RES1    0.0000
      4 H3         9.2076   -2.8589    4.0250 H         1 RES1    0.0000
      5 C2         8.3109   -1.2245    3.2118 C.ar      1 RES1    0.0000
      6 C3         7.5588   -0.8547    4.3179 C.ar      1 RES1    0.0000
      7 H4         7.7463   -1.2342    5.1456 H         1 RES1    0.0000
      8 C4         6.5380    0.0671    4.2087 C.ar      1 RES1    0.0000
      9 H5         6.0413    0.2985    4.9607 H         1 RES1    0.0000
     10 C5         6.2482    0.6497    2.9880 C.ar      1 RES1    0.0000
     11 C6         6.9814    0.2781    1.8606 C.ar      1 RES1    0.0000
     12 H6         6.7902    0.6562    1.0329 H         1 RES1    0.0000
     13 C7         7.9957   -0.6567    1.9816 C.ar      1 RES1    0.0000
     14 H7         8.4759   -0.9098    1.2254 H         1 RES1    0.0000
     15 C8         3.8638    3.0339    1.8760 C.ar      1 RES1    0.0000
     16 C9         3.4865    3.5036    0.6360 C.ar      1 RES1    0.0000
     17 H8         3.9148    3.1755   -0.1220 H         1 RES1    0.0000
     18 C10        2.4791    4.4568    0.4867 C.ar      1 RES1    0.0000
     19 C11        1.8617    4.9575    1.6471 C.ar      1 RES1    0.0000
     20 C12        2.2342    4.4869    2.8989 C.ar      1 RES1    0.0000
     21 H9         1.8143    4.8159    3.6610 H         1 RES1    0.0000
     22 C13        3.2228    3.5341    3.0166 C.ar      1 RES1    0.0000
     23 H10        3.4656    3.2213    3.8592 H         1 RES1    0.0000
     24 C14        2.1047    4.8909   -0.8504 C.2       1 RES1    0.0000
     25 H11        2.5135    4.5022   -1.5894 H         1 RES1    0.0000
     26 N1         5.1928    1.6123    2.9974 N.2       1 RES1    0.0000
     27 N2         4.9093    2.0625    1.8703 N.2       1 RES1    0.0000
     28 N3         1.2272    5.7933   -1.0249 N.2       1 RES1    0.0000
     29 O1         1.0012    6.0548   -2.3763 O.3       1 RES1    0.0000
     30 H12        0.4323    6.6406   -2.4489 H         1 RES1    0.0000
     31 O2         0.8913    5.9067    1.5764 O.3       1 RES1    0.0000
     32 H13        0.7555    6.1001    0.7909 H         1 RES1    0.0000
@<TRIPOS>BOND
     1    1    2 1
     2    3    1 1
     3    4    1 1
     4    5    1 1
     5    6    5 ar
     6    7    6 1
     7    8    6 ar
     8    9    8 1
     9   10    8 ar
    10   11   10 ar
    11   12   11 1
    12   13    5 ar
    13   14   13 1
    14   15   16 ar
    15   16   17 1
    16   18   16 ar
    17   19   18 ar
    18   20   19 ar
    19   21   20 1
    20   22   15 ar
    21   23   22 1
    22   24   18 1
    23   25   24 1
    24   26   10 1
    25   27   15 1
    26   28   24 2
    27   29   28 1
    28   30   29 1
    29   31   19 1
    30   32   31 1
    31   11   13 ar
    32   20   22 ar
    33   26   27 2
@<TRIPOS>SUBSTRUCTURE
     1 RES1 1

@<TRIPOS>CRYSIN
  13.7543    4.6276   19.0577  90.0000  90.1700  90.0000 231 1

