# MOL2 file generated by ConQuest
# Please check atom types

@<TRIPOS>MOLECULE
SEFJUK
    86    92     1
SMALL
NO_CHARGES
****
Generated from CSD

@<TRIPOS>ATOM
      1 O1         6.6410    2.7095   -2.1247 O.3       1 RES1    0.0000
      2 O2        -0.1796    2.2899    9.0229 O.3       1 RES1    0.0000
      3 O3        11.2951    2.9142   -7.1198 O.2       1 RES1    0.0000
      4 O4         4.9636    2.4483   -3.6245 O.2       1 RES1    0.0000
      5 O5         0.3378    3.7584    7.2933 O.3       1 RES1    0.0000
      6 O6         9.7827    3.6607   -8.4829 O.2       1 RES1    0.0000
      7 N1        10.1326    3.2285   -7.3942 N.pl3     1 RES1    0.0000
      8 C1         3.0176    2.6699    5.8004 C.3       1 RES1    0.0000
      9 C2         4.0394    3.0465    0.6483 C.2       1 RES1    0.0000
     10 C3         4.1767    2.3186    3.0671 C.3       1 RES1    0.0000
     11 H1         3.9431    1.3918    2.8474 H         1 RES1    0.0000
     12 C4         9.1077    3.0777   -6.3522 C.ar      1 RES1    0.0000
     13 C5         1.9823    2.1164    6.8341 C.3       1 RES1    0.0000
     14 H2         1.9513    1.1382    6.7779 H         1 RES1    0.0000
     15 C6         0.7460    3.2706    8.5660 C.3       1 RES1    0.0000
     16 C7         0.8021    4.4366    9.5381 C.3       1 RES1    0.0000
     17 H3         1.1901    4.1367   10.3756 H         1 RES1    0.0000
     18 H4         1.3765    5.1291    9.1741 H         1 RES1    0.0000
     19 C8         8.5553    2.8097   -4.0607 C.ar      1 RES1    0.0000
     20 H5         8.8113    2.7280   -3.1712 H         1 RES1    0.0000
     21 C9         7.7757    3.1316   -6.7127 C.ar      1 RES1    0.0000
     22 H6         7.5294    3.2672   -7.5997 H         1 RES1    0.0000
     23 C10        4.2325    1.7912    5.5882 C.3       1 RES1    0.0000
     24 H7         3.9509    0.8711    5.4625 H         1 RES1    0.0000
     25 H8         4.8022    1.8291    6.3714 H         1 RES1    0.0000
     26 C11        7.2007    2.8392   -4.3879 C.ar      1 RES1    0.0000
     27 C12        2.7165    2.9681    0.7463 C.2       1 RES1    0.0000
     28 H9         2.2213    3.0018   -0.0402 H         1 RES1    0.0000
     29 C13        4.9606    2.8729    1.8505 C.3       1 RES1    0.0000
     30 C14        6.1343    2.6522   -3.3679 C.2       1 RES1    0.0000
     31 C15        2.8487    3.0684    3.2563 C.3       1 RES1    0.0000
     32 H10        3.0321    4.0280    3.3364 H         1 RES1    0.0000
     33 C16        4.7194    3.3253   -0.6796 C.3       1 RES1    0.0000
     34 H11        5.1170    4.2091   -0.6543 H         1 RES1    0.0000
     35 H12        4.0539    3.3186   -1.3846 H         1 RES1    0.0000
     36 C17        6.7690    2.1501    0.1543 C.3       1 RES1    0.0000
     37 H13        7.3937    1.4348   -0.0447 H         1 RES1    0.0000
     38 H14        7.2763    2.9698    0.2568 H         1 RES1    0.0000
     39 C18        0.8317    3.2394    4.9332 C.3       1 RES1    0.0000
     40 H15        0.1071    2.9656    4.3503 H         1 RES1    0.0000
     41 H16        0.9012    4.2066    4.9220 H         1 RES1    0.0000
     42 C19        2.1519    2.5831    4.5265 C.3       1 RES1    0.0000
     43 H17        1.9579    1.6328    4.3883 H         1 RES1    0.0000
     44 C20        9.5180    2.9007   -5.0373 C.ar      1 RES1    0.0000
     45 H18       10.4210    2.8443   -4.8238 H         1 RES1    0.0000
     46 C21        2.0781    2.5477    8.3183 C.3       1 RES1    0.0000
     47 H19        2.7977    3.2082    8.3947 H         1 RES1    0.0000
     48 C22       -1.5321    3.9252   10.2543 C.3       1 RES1    0.0000
     49 H20       -1.2214    3.5705   11.1126 H         1 RES1    0.0000
     50 C23        5.0212    2.2621    4.3539 C.3       1 RES1    0.0000
     51 H21        5.3824    3.1442    4.5312 H         1 RES1    0.0000
     52 H22        5.7687    1.6606    4.2119 H         1 RES1    0.0000
     53 C24        0.6299    2.7086    6.3625 C.3       1 RES1    0.0000
     54 H23       -0.0721    2.0254    6.3803 H         1 RES1    0.0000
     55 C25       -1.4974    2.8114    9.2322 C.3       1 RES1    0.0000
     56 H24       -2.0785    2.0936    9.5270 H         1 RES1    0.0000
     57 H25       -1.8439    3.1451    8.3903 H         1 RES1    0.0000
     58 C26        2.3835    1.4061    9.2849 C.3       1 RES1    0.0000
     59 H26        3.2293    1.0127    9.0580 H         1 RES1    0.0000
     60 H27        1.6941    0.7406    9.2233 H         1 RES1    0.0000
     61 H28        2.4200    1.7473   10.1813 H         1 RES1    0.0000
     62 C27        5.6259    4.2327    2.1725 C.3       1 RES1    0.0000
     63 H29        6.2117    4.1316    2.9255 H         1 RES1    0.0000
     64 H30        4.9484    4.8806    2.3784 H         1 RES1    0.0000
     65 H31        6.1320    4.5301    1.4114 H         1 RES1    0.0000
     66 C28        3.4265    4.1038    6.1287 C.3       1 RES1    0.0000
     67 H32        2.6394    4.6413    6.2464 H         1 RES1    0.0000
     68 H33        3.9527    4.4594    5.4089 H         1 RES1    0.0000
     69 H34        3.9432    4.1122    6.9364 H         1 RES1    0.0000
     70 C29       -0.5689    5.0146    9.8032 C.3       1 RES1    0.0000
     71 H35       -0.9072    5.4316    8.9955 H         1 RES1    0.0000
     72 H36       -0.5058    5.6970   10.4895 H         1 RES1    0.0000
     73 C30        6.0514    1.8400    1.4500 C.3       1 RES1    0.0000
     74 H37        6.7082    1.7912    2.1618 H         1 RES1    0.0000
     75 H38        5.6375    0.9663    1.3734 H         1 RES1    0.0000
     76 C31        1.9701    2.8300    2.0329 C.3       1 RES1    0.0000
     77 H39        1.5921    1.9386    2.0836 H         1 RES1    0.0000
     78 H40        1.2371    3.4644    2.0412 H         1 RES1    0.0000
     79 C32        5.7979    2.3034   -1.0027 C.3       1 RES1    0.0000
     80 H41        5.3818    1.4381   -1.1992 H         1 RES1    0.0000
     81 C33       -2.9519    4.4602   10.4325 C.3       1 RES1    0.0000
     82 H42       -3.5284    3.7474   10.7173 H         1 RES1    0.0000
     83 H43       -3.2679    4.8140    9.5984 H         1 RES1    0.0000
     84 H44       -2.9516    5.1544   11.0947 H         1 RES1    0.0000
     85 C34        6.8165    2.9799   -5.7282 C.ar      1 RES1    0.0000
     86 H45        5.9148    2.9723   -5.9560 H         1 RES1    0.0000
@<TRIPOS>BOND
     1    1   30 1
     2    2   15 1
     3    3    7 2
     4    4   30 2
     5    5   15 1
     6    6    7 2
     7    7   12 1
     8    8   13 1
     9    9   27 2
    10   10   11 1
    11   12   21 ar
    12   13   14 1
    13   15   16 1
    14   16   17 1
    15   18   16 1
    16   19   20 1
    17   21   22 1
    18   23    8 1
    19   24   23 1
    20   25   23 1
    21   26   19 ar
    22   27   28 1
    23   29    9 1
    24   30   26 1
    25   31   10 1
    26   32   31 1
    27   33    9 1
    28   34   33 1
    29   35   33 1
    30   36   37 1
    31   38   36 1
    32   39   40 1
    33   41   39 1
    34   42    8 1
    35   43   42 1
    36   44   12 ar
    37   45   44 1
    38   46   13 1
    39   47   46 1
    40   48   49 1
    41   50   10 1
    42   51   50 1
    43   52   50 1
    44   53    5 1
    45   54   53 1
    46   55    2 1
    47   56   55 1
    48   57   55 1
    49   58   46 1
    50   59   58 1
    51   60   58 1
    52   61   58 1
    53   62   29 1
    54   63   62 1
    55   64   62 1
    56   65   62 1
    57   66    8 1
    58   67   66 1
    59   68   66 1
    60   69   66 1
    61   70   16 1
    62   71   70 1
    63   72   70 1
    64   73   29 1
    65   74   73 1
    66   75   73 1
    67   76   27 1
    68   77   76 1
    69   78   76 1
    70   79    1 1
    71   80   79 1
    72   81   48 1
    73   82   81 1
    74   83   81 1
    75   84   81 1
    76   85   21 ar
    77   86   85 1
    78   10   29 1
    79   13   53 1
    80   15   46 1
    81   19   44 ar
    82   23   50 1
    83   26   85 ar
    84   31   42 1
    85   31   76 1
    86   33   79 1
    87   36   73 1
    88   36   79 1
    89   39   42 1
    90   39   53 1
    91   48   55 1
    92   48   70 1
@<TRIPOS>SUBSTRUCTURE
     1 RES1 1

@<TRIPOS>CRYSIN
   7.7190    8.4250   22.5780  90.0000  98.4600  90.0000   4 1

