# MOL2 file generated by ConQuest
# Please check atom types

@<TRIPOS>MOLECULE
SEFLUN
    49    52     1
SMALL
USER_CHARGES
****
Generated from CSD

@<TRIPOS>ATOM
      1 O1         0.6103    3.5154    7.5286 O.2       1 RES1    0.0000
      2 O2        -2.2701    3.9441    7.7965 O.3       1 RES1    0.0000
      3 O3        -2.7894    5.4491    6.2119 O.2       1 RES1   -1.0000
      4 O4        -2.7939    4.4147    3.6060 O.2       1 RES1    0.0000
      5 O5        -2.3145    2.2089    3.5718 O.3       1 RES1    0.0000
      6 O6         1.9823    0.6375    9.7732 O.3       1 RES1    0.0000
      7 N1         0.1251    2.0188    9.2218 N.am      1 RES1    0.0000
      8 N2        -2.4233    4.2966    6.3927 N.pl3     1 RES1    1.0000
      9 C1        -1.0459    1.4211    9.7381 C.ar      1 RES1    0.0000
     10 C2        -1.1722    0.5845   10.8342 C.ar      1 RES1    0.0000
     11 H1        -0.4167    0.3270   11.3498 H         1 RES1    0.0000
     12 C3        -2.4551    0.1353   11.1499 C.ar      1 RES1    0.0000
     13 H2        -2.5766   -0.4243   11.9075 H         1 RES1    0.0000
     14 C4        -3.5603    0.4869   10.3827 C.ar      1 RES1    0.0000
     15 H3        -4.4207    0.1595   10.6170 H         1 RES1    0.0000
     16 C5        -3.4130    1.3192    9.2694 C.ar      1 RES1    0.0000
     17 H4        -4.1622    1.5540    8.7342 H         1 RES1    0.0000
     18 C6        -2.1495    1.7920    8.9678 C.ar      1 RES1    0.0000
     19 C7        -1.6755    2.6317    7.8223 C.3       1 RES1    0.0000
     20 C8        -0.1592    2.7984    8.1254 C.2       1 RES1    0.0000
     21 C9         1.4446    1.9289    9.8260 C.3       1 RES1    0.0000
     22 H5         2.0558    2.5519    9.3589 H         1 RES1    0.0000
     23 H6         1.3864    2.2156   10.7715 H         1 RES1    0.0000
     24 C10        2.2422    0.2063    8.4312 C.3       1 RES1    0.0000
     25 H7         1.3933    0.0466    7.9689 H         1 RES1    0.0000
     26 H8         2.7642   -0.6230    8.4499 H         1 RES1    0.0000
     27 H9         2.7476    0.8994    7.9570 H         1 RES1    0.0000
     28 C11       -1.9709    2.0227    6.4182 C.3       1 RES1    0.0000
     29 H10       -2.8477    1.5456    6.4774 H         1 RES1    0.0000
     30 C12       -0.9350    1.0104    5.9778 C.ar      1 RES1    0.0000
     31 C13        0.1358    1.3306    5.1443 C.ar      1 RES1    0.0000
     32 H11        0.2595    2.2257    4.8486 H         1 RES1    0.0000
     33 C14        1.0231    0.3342    4.7464 C.ar      1 RES1    0.0000
     34 H12        1.7447    0.5486    4.1666 H         1 RES1    0.0000
     35 C15        0.8609   -0.9749    5.1924 C.ar      1 RES1    0.0000
     36 H13        1.4619   -1.6531    4.9059 H         1 RES1    0.0000
     37 C16       -0.1774   -1.2869    6.0542 C.ar      1 RES1    0.0000
     38 H14       -0.2746   -2.1734    6.3812 H         1 RES1    0.0000
     39 C17       -1.0771   -0.2979    6.4390 C.ar      1 RES1    0.0000
     40 H15       -1.7951   -0.5154    7.0210 H         1 RES1    0.0000
     41 C18       -2.1909    3.2665    5.6084 C.2       1 RES1    0.0000
     42 C19       -2.4617    3.3972    4.1625 C.2       1 RES1    0.0000
     43 C20       -2.5570    2.1905    2.1378 C.3       1 RES1    0.0000
     44 H16       -1.9316    2.8053    1.6785 H         1 RES1    0.0000
     45 H17       -3.4825    2.4831    1.9444 H         1 RES1    0.0000
     46 C21       -2.3484    0.7844    1.6557 C.3       1 RES1    0.0000
     47 H18       -1.4535    0.4797    1.9141 H         1 RES1    0.0000
     48 H19       -2.4334    0.7576    0.6798 H         1 RES1    0.0000
     49 H20       -3.0219    0.1978    2.0579 H         1 RES1    0.0000
@<TRIPOS>BOND
     1    1   20 2
     2    2    8 1
     3    3    8 1
     4    4   42 2
     5    5   42 1
     6    6   21 1
     7    7    9 1
     8    8   41 2
     9    9   10 ar
    10   10   11 1
    11   12   10 ar
    12   13   12 1
    13   14   12 ar
    14   15   14 1
    15   16   14 ar
    16   17   16 1
    17   18    9 ar
    18   19    2 1
    19   20    7 1
    20   21    7 1
    21   22   21 1
    22   23   21 1
    23   24    6 1
    24   25   24 1
    25   26   24 1
    26   27   24 1
    27   28   19 1
    28   29   28 1
    29   30   28 1
    30   31   30 ar
    31   32   31 1
    32   33   31 ar
    33   34   33 1
    34   35   33 ar
    35   36   35 1
    36   37   35 ar
    37   38   37 1
    38   39   30 ar
    39   40   39 1
    40   41   28 1
    41   42   41 1
    42   43    5 1
    43   44   43 1
    44   45   43 1
    45   46   43 1
    46   47   46 1
    47   48   46 1
    48   49   46 1
    49   16   18 ar
    50   18   19 1
    51   19   20 1
    52   37   39 ar
@<TRIPOS>SUBSTRUCTURE
     1 RES1 1

@<TRIPOS>CRYSIN
   9.1960   10.4470   11.7240  91.3950 110.2830 112.9250   2 1

