# MOL2 file generated by ConQuest
# Please check atom types

@<TRIPOS>MOLECULE
SEFNOG
    40    43     1
SMALL
NO_CHARGES
****
Generated from CSD

@<TRIPOS>ATOM
      1 O1         0.9713    4.7572   12.8352 O.2       1 RES1    0.0000
      2 O2         1.4140    6.2894   11.3879 O.2       1 RES1    0.0000
      3 N1         1.5314    1.2586    7.6784 N.pl3     1 RES1    0.0000
      4 N2         1.2322    5.1087   11.6852 N.pl3     1 RES1    0.0000
      5 C1         1.8157    1.5668    6.2755 C.3       1 RES1    0.0000
      6 C2         0.6679    2.2284    5.5050 C.3       1 RES1    0.0000
      7 C3         0.3226    1.2962    4.3485 C.3       1 RES1    0.0000
      8 C4         1.5114    0.3592    4.2039 C.3       1 RES1    0.0000
      9 C5         2.0114    0.1926    5.6364 C.3       1 RES1    0.0000
     10 C6         1.2079   -0.7887    6.5006 C.3       1 RES1    0.0000
     11 C7         1.8983   -2.1273    6.6862 C.3       1 RES1    0.0000
     12 C8         2.9479   -1.8355    7.7589 C.3       1 RES1    0.0000
     13 C9         2.2227   -0.9331    8.7397 C.3       1 RES1    0.0000
     14 C10        1.1914   -0.1493    7.9052 C.3       1 RES1    0.0000
     15 C11        1.4496    2.1947    8.6493 C.ar      1 RES1    0.0000
     16 C12        1.7488    3.5535    8.3865 C.ar      1 RES1    0.0000
     17 C13        1.6818    4.4905    9.3820 C.ar      1 RES1    0.0000
     18 C14        1.3122    4.1120   10.6470 C.ar      1 RES1    0.0000
     19 C15        1.0026    2.7994   10.9394 C.ar      1 RES1    0.0000
     20 C16        1.0635    1.8576    9.9619 C.ar      1 RES1    0.0000
     21 H1         2.6540    2.0955    6.2476 H         1 RES1    0.0000
     22 H2         0.9131    3.1201    5.1042 H         1 RES1    0.0000
     23 H3        -0.0739    2.4296    6.0274 H         1 RES1    0.0000
     24 H4        -0.4757    0.7444    4.5834 H         1 RES1    0.0000
     25 H5         0.0426    1.7854    3.5435 H         1 RES1    0.0000
     26 H6         1.2740   -0.5537    3.7768 H         1 RES1    0.0000
     27 H7         2.1914    0.8041    3.6618 H         1 RES1    0.0000
     28 H8         2.9975    0.0279    5.6397 H         1 RES1    0.0000
     29 H9         0.2644   -0.8715    6.1260 H         1 RES1    0.0000
     30 H10        2.2001   -2.4576    5.8484 H         1 RES1    0.0000
     31 H11        1.2296   -2.8293    7.0148 H         1 RES1    0.0000
     32 H12        3.7062   -1.3569    7.3335 H         1 RES1    0.0000
     33 H13        3.2775   -2.6280    8.1779 H         1 RES1    0.0000
     34 H14        1.6957   -1.4859    9.4297 H         1 RES1    0.0000
     35 H15        2.7740   -0.3553    9.2522 H         1 RES1    0.0000
     36 H16        0.2852   -0.1801    8.2731 H         1 RES1    0.0000
     37 H17        1.9723    3.8067    7.5372 H         1 RES1    0.0000
     38 H18        1.9401    5.4785    9.2194 H         1 RES1    0.0000
     39 H19        0.7157    2.5982   11.8101 H         1 RES1    0.0000
     40 H20        0.8783    0.9726   10.1870 H         1 RES1    0.0000
@<TRIPOS>BOND
     1    1    4 2
     2    2    4 2
     3    3    5 1
     4    4   18 1
     5    5    6 1
     6    6    7 1
     7    7    8 1
     8    8    9 1
     9    9    5 1
    10   10    9 1
    11   11   10 1
    12   12   11 1
    13   13   12 1
    14   14    3 1
    15   15    3 1
    16   16   15 ar
    17   17   16 ar
    18   18   17 ar
    19   19   18 ar
    20   20   15 ar
    21   21    5 1
    22   22    6 1
    23   23    6 1
    24   24    7 1
    25   25    7 1
    26   26    8 1
    27   27    8 1
    28   28    9 1
    29   29   10 1
    30   30   11 1
    31   31   11 1
    32   32   12 1
    33   33   12 1
    34   34   13 1
    35   35   13 1
    36   36   14 1
    37   37   16 1
    38   38   17 1
    39   39   19 1
    40   40   20 1
    41   10   14 1
    42   13   14 1
    43   19   20 ar
@<TRIPOS>SUBSTRUCTURE
     1 RES1 1

@<TRIPOS>CRYSIN
   8.6960    9.6300   16.4280  90.0000  90.0000  90.0000  19 1

