# MOL2 file generated by ConQuest
# Please check atom types

@<TRIPOS>MOLECULE
SEFPUQ
    39    43     1
SMALL
NO_CHARGES
****
Generated from CSD

@<TRIPOS>ATOM
      1 O1         5.2393    1.4783    9.1230 O.3       1 RES1    0.0000
      2 N1         6.3940    1.9665    7.2425 N.2       1 RES1    0.0000
      3 C1         4.4955    3.2007    6.0743 C.ar      1 RES1    0.0000
      4 C2         7.5528    0.7348    9.0585 C.ar      1 RES1    0.0000
      5 C3         4.4158    2.1637    8.2916 C.ar      1 RES1    0.0000
      6 C4         2.5186    3.2420    7.4702 C.ar      1 RES1    0.0000
      7 C5         4.5022    4.1939    3.8939 C.ar      1 RES1    0.0000
      8 H1         4.9443    4.4014    3.1029 H         1 RES1    0.0000
      9 O2         1.2294    3.6221    7.7270 O.3       1 RES1    0.0000
     10 C6         5.1504    3.5092    4.8694 C.ar      1 RES1    0.0000
     11 H2         6.0317    3.2420    4.7394 H         1 RES1    0.0000
     12 C7         7.4302   -0.0056   10.2137 C.ar      1 RES1    0.0000
     13 H3         6.5983   -0.0803   10.6228 H         1 RES1    0.0000
     14 C8         5.1024    2.4667    7.1509 C.ar      1 RES1    0.0000
     15 C9         3.0887    2.5597    8.5098 C.ar      1 RES1    0.0000
     16 C10        3.1632    3.5959    6.2572 C.ar      1 RES1    0.0000
     17 C11        6.4203    1.4043    8.4200 C.2       1 RES1    0.0000
     18 C12        2.0930    2.3856    9.6313 C.3       1 RES1    0.0000
     19 H4         2.4378    2.7315   10.4688 H         1 RES1    0.0000
     20 H5         1.8454    1.4544    9.7452 H         1 RES1    0.0000
     21 C13        8.5059   -0.6322   10.7672 C.ar      1 RES1    0.0000
     22 H6         8.4177   -1.1403   11.5406 H         1 RES1    0.0000
     23 C14        9.7350   -0.4906   10.1463 C.ar      1 RES1    0.0000
     24 C15        2.5149    4.3124    5.2111 C.ar      1 RES1    0.0000
     25 H7         1.6326    4.5907    5.3122 H         1 RES1    0.0000
     26 C16        8.8041    0.8739    8.4521 C.ar      1 RES1    0.0000
     27 H8         8.8927    1.3781    7.6755 H         1 RES1    0.0000
     28 C17        3.1848    4.5859    4.0704 C.ar      1 RES1    0.0000
     29 H9         2.7525    5.0471    3.3885 H         1 RES1    0.0000
     30 C18        9.8809    0.2759    8.9976 C.ar      1 RES1    0.0000
     31 H10       10.7195    0.3745    8.6045 H         1 RES1    0.0000
     32 O3        11.9781   -1.0465   10.1255 O.2       1 RES1    0.0000
     33 O4        10.7540   -1.9061   11.6545 O.2       1 RES1    0.0000
     34 N2        10.9030   -1.2151   10.6886 N.pl3     1 RES1    0.0000
     35 C19        0.9330    3.2102    9.1227 C.3       1 RES1    0.0000
     36 C20       -0.2509    3.0544    9.4821 C.3       1 RES1    0.0000
     37 H11       -0.8082    3.6913    9.0297 H         1 RES1    0.0000
     38 H12       -0.3169    3.1864   10.4303 H         1 RES1    0.0000
     39 H13       -0.5375    2.1645    9.2623 H         1 RES1    0.0000
@<TRIPOS>BOND
     1    1    5 1
     2    2   14 1
     3    3   10 ar
     4    4   12 ar
     5    5   14 ar
     6    6    9 1
     7    7    8 1
     8    9   35 1
     9   10    7 ar
    10   11   10 1
    11   12   13 1
    12   14    3 ar
    13   15    5 ar
    14   16    3 ar
    15   17    1 1
    16   18   15 1
    17   19   18 1
    18   20   18 1
    19   21   12 ar
    20   22   21 1
    21   23   21 ar
    22   24   16 ar
    23   25   24 1
    24   26    4 ar
    25   27   26 1
    26   28    7 ar
    27   29   28 1
    28   30   23 ar
    29   31   30 1
    30   32   34 2
    31   33   34 2
    32   34   23 1
    33   35   18 1
    34   36   35 1
    35   37   36 1
    36   38   36 1
    37   39   36 1
    38    2   17 2
    39    4   17 1
    40    6   15 ar
    41    6   16 ar
    42   24   28 ar
    43   26   30 ar
@<TRIPOS>SUBSTRUCTURE
     1 RES1 1

@<TRIPOS>CRYSIN
  12.7790    7.9520   16.2090  90.0000  98.1780  90.0000  14 1

