# MOL2 file generated by ConQuest
# Please check atom types

@<TRIPOS>MOLECULE
SEFQIF
    96   100     2
SMALL
NO_CHARGES
****
Generated from CSD

@<TRIPOS>ATOM
      1 O1        10.4644    0.3822    8.6805 O.3       1 RES1    0.0000
      2 H1        10.5145   -0.0185    7.9673 H         1 RES1    0.0000
      3 O2         7.8962    7.0672   22.1945 O.3       2 RES2    0.0000
      4 H2         7.6606    7.7496   22.5833 H         2 RES2    0.0000
      5 N1         9.9368    4.2435   11.5463 N.3       1 RES1    0.0000
      6 N2        10.9656    1.6998    8.5204 N.2       1 RES1    0.0000
      7 N3         8.8619    4.8755   18.2197 N.3       2 RES2    0.0000
      8 N4         8.8841    7.3933   21.2195 N.2       2 RES2    0.0000
      9 C1        10.3216    4.7029   10.2029 C.3       1 RES1    0.0000
     10 C2        11.4236    3.7808    9.5974 C.3       1 RES1    0.0000
     11 C3        10.9170    2.3766    9.6047 C.2       1 RES1    0.0000
     12 C4        10.3879    1.8964   10.9045 C.3       1 RES1    0.0000
     13 C5         9.3812    2.8818   11.5158 C.3       1 RES1    0.0000
     14 C6        11.9143    4.2584    8.2147 C.3       1 RES1    0.0000
     15 H3        12.2410    5.1580    8.2846 H         1 RES1    0.0000
     16 H4        11.1875    4.2300    7.5889 H         1 RES1    0.0000
     17 H5        12.6217    3.6847    7.9105 H         1 RES1    0.0000
     18 C7         8.9992    5.1846   12.2100 C.3       1 RES1    0.0000
     19 C8         7.6620    5.3018   11.5944 C.2       1 RES1    0.0000
     20 C9         6.5636    4.9992   12.2086 C.2       1 RES1    0.0000
     21 C10       10.8302    6.1350   10.1971 C.ar      1 RES1    0.0000
     22 C11       10.4030    7.0438    9.2569 C.ar      1 RES1    0.0000
     23 H6         9.7496    6.7933    8.6441 H         1 RES1    0.0000
     24 C12       10.9234    8.3129    9.2059 C.ar      1 RES1    0.0000
     25 H7        10.6361    8.9012    8.5451 H         1 RES1    0.0000
     26 C13       11.8531    8.7204   10.1083 C.ar      1 RES1    0.0000
     27 H8        12.1976    9.5835   10.0719 H         1 RES1    0.0000
     28 C14       12.2785    7.8403   11.0777 C.ar      1 RES1    0.0000
     29 H9        12.9055    8.1169   11.7079 H         1 RES1    0.0000
     30 C15       11.7786    6.5394   11.1242 C.ar      1 RES1    0.0000
     31 H10       12.0799    5.9449   11.7734 H         1 RES1    0.0000
     32 C16        8.9692    2.3521   12.8752 C.ar      1 RES1    0.0000
     33 C17        7.8668    1.5555   12.9844 C.ar      1 RES1    0.0000
     34 H11        7.3271    1.4145   12.2406 H         1 RES1    0.0000
     35 C18        7.5424    0.9524   14.1909 C.ar      1 RES1    0.0000
     36 H12        6.7704    0.4394   14.2681 H         1 RES1    0.0000
     37 C19        8.3709    1.1211   15.2709 C.ar      1 RES1    0.0000
     38 H13        8.1804    0.6927   16.0729 H         1 RES1    0.0000
     39 C20        9.4805    1.9200   15.1705 C.ar      1 RES1    0.0000
     40 H14       10.0156    2.0636   15.9171 H         1 RES1    0.0000
     41 C21        9.8076    2.5105   13.9697 C.ar      1 RES1    0.0000
     42 H15       10.5871    3.0126   13.8926 H         1 RES1    0.0000
     43 C22        9.5982    6.1604   18.1397 C.3       2 RES2    0.0000
     44 C23       10.2801    6.5642   19.4685 C.3       2 RES2    0.0000
     45 C24        9.2989    6.3729   20.5863 C.2       2 RES2    0.0000
     46 C25        8.7684    4.9928   20.6751 C.3       2 RES2    0.0000
     47 C26        7.9695    4.7270   19.3943 C.3       2 RES2    0.0000
     48 C27       10.8656    7.9767   19.3987 C.3       2 RES2    0.0000
     49 H16       11.4866    8.0310   18.6680 H         2 RES2    0.0000
     50 H17       11.3207    8.1762   20.2210 H         2 RES2    0.0000
     51 H18       10.1578    8.6114   19.2633 H         2 RES2    0.0000
     52 C28        8.0954    4.6344   16.9651 C.3       2 RES2    0.0000
     53 C29        6.9380    5.5459   16.7075 C.2       2 RES2    0.0000
     54 H19        6.2055    5.4917   17.2766 H         2 RES2    0.0000
     55 C30        6.8972    6.3250   15.8298 C.2       2 RES2    0.0000
     56 H20        7.6143    6.4036   15.2433 H         2 RES2    0.0000
     57 H21        6.1472    6.8644   15.7221 H         2 RES2    0.0000
     58 C31       10.6180    6.0524   17.0437 C.ar      2 RES2    0.0000
     59 C32       10.7074    6.9648   16.0118 C.ar      2 RES2    0.0000
     60 H22       10.1271    7.6907   15.9957 H         2 RES2    0.0000
     61 C33       11.6423    6.8209   14.9987 C.ar      2 RES2    0.0000
     62 H23       11.6836    7.4458   14.3117 H         2 RES2    0.0000
     63 C34       12.5023    5.7591   15.0118 C.ar      2 RES2    0.0000
     64 H24       13.1220    5.6527   14.3263 H         2 RES2    0.0000
     65 C35       12.4480    4.8489   16.0423 C.ar      2 RES2    0.0000
     66 H25       13.0454    4.1369   16.0641 H         2 RES2    0.0000
     67 C36       11.5136    4.9917   17.0364 C.ar      2 RES2    0.0000
     68 H26       11.4797    4.3631   17.7219 H         2 RES2    0.0000
     69 C37        7.3841    3.3439   19.4685 C.ar      2 RES2    0.0000
     70 C38        6.0758    3.1667   19.8106 C.ar      2 RES2    0.0000
     71 H27        5.5373    3.9148   19.9314 H         2 RES2    0.0000
     72 C39        5.5249    1.9124   19.9867 C.ar      2 RES2    0.0000
     73 H28        4.6240    1.8212   20.2021 H         2 RES2    0.0000
     74 C40        6.3134    0.8053   19.8411 C.ar      2 RES2    0.0000
     75 H29        5.9602   -0.0417   19.9925 H         2 RES2    0.0000
     76 C41        7.6258    0.9468   19.4714 C.ar      2 RES2    0.0000
     77 H30        8.1539    0.1934   19.3361 H         2 RES2    0.0000
     78 C42        8.1666    2.2102   19.3011 C.ar      2 RES2    0.0000
     79 H31        9.0647    2.3000   19.0741 H         2 RES2    0.0000
     80 H32        7.7852    3.6955   17.0000 H         2 RES2    0.0000
     81 H33        8.7737    4.6318   16.1704 H         2 RES2    0.0000
     82 H34        9.4273    6.1329   12.1824 H         1 RES1    0.0000
     83 H35        5.6604    5.0484   11.7603 H         1 RES1    0.0000
     84 H36        6.6256    4.6913   13.2158 H         1 RES1    0.0000
     85 H37        9.0058    6.8749   17.9461 H         2 RES2    0.0000
     86 H38        8.6270    2.8262   10.9743 H         1 RES1    0.0000
     87 H39       11.0528    5.8889   19.5762 H         2 RES2    0.0000
     88 H40        7.1254    5.4111   19.2997 H         2 RES2    0.0000
     89 H41        9.5139    4.2789   20.8134 H         2 RES2    0.0000
     90 H42        8.1595    4.9338   21.3665 H         2 RES2    0.0000
     91 H43        8.8392    4.8081   13.0848 H         1 RES1    0.0000
     92 H44        9.9724    0.9719   10.8579 H         1 RES1    0.0000
     93 H45        9.6364    4.6474    9.5916 H         1 RES1    0.0000
     94 H46       11.1923    1.7522   11.5565 H         1 RES1    0.0000
     95 H47       12.2873    3.8932   10.2320 H         1 RES1    0.0000
     96 H48        7.5609    5.5276   10.6250 H         1 RES1    0.0000
@<TRIPOS>BOND
     1    1    2 1
     2    3    4 1
     3    5    9 1
     4    6    1 1
     5    7   43 1
     6    8    3 1
     7    9   10 1
     8   10   11 1
     9   11    6 2
    10   12   11 1
    11   13    5 1
    12   14   10 1
    13   15   14 1
    14   16   14 1
    15   17   14 1
    16   18    5 1
    17   19   18 1
    18   20   19 2
    19   21    9 1
    20   22   21 ar
    21   23   22 1
    22   24   22 ar
    23   25   24 1
    24   26   24 ar
    25   27   26 1
    26   28   26 ar
    27   29   28 1
    28   30   21 ar
    29   31   30 1
    30   32   13 1
    31   33   32 ar
    32   34   33 1
    33   35   33 ar
    34   36   35 1
    35   37   35 ar
    36   38   37 1
    37   39   37 ar
    38   40   39 1
    39   41   32 ar
    40   42   41 1
    41   43   44 1
    42   44   45 1
    43   45    8 2
    44   46   45 1
    45   47    7 1
    46   48   44 1
    47   49   48 1
    48   50   48 1
    49   51   48 1
    50   52    7 1
    51   53   52 1
    52   54   53 1
    53   55   53 2
    54   56   55 1
    55   57   55 1
    56   58   43 1
    57   59   58 ar
    58   60   59 1
    59   61   59 ar
    60   62   61 1
    61   63   61 ar
    62   64   63 1
    63   65   63 ar
    64   66   65 1
    65   67   58 ar
    66   68   67 1
    67   69   47 1
    68   70   69 ar
    69   71   70 1
    70   72   70 ar
    71   73   72 1
    72   74   72 ar
    73   75   74 1
    74   76   74 ar
    75   77   76 1
    76   78   69 ar
    77   79   78 1
    78   80   52 1
    79   81   52 1
    80   82   18 1
    81   83   20 1
    82   84   20 1
    83   85   43 1
    84   86   13 1
    85   87   44 1
    86   88   47 1
    87   89   46 1
    88   90   46 1
    89   91   18 1
    90   92   12 1
    91   93    9 1
    92   94   12 1
    93   95   10 1
    94   96   19 1
    95   12   13 1
    96   28   30 ar
    97   39   41 ar
    98   46   47 1
    99   65   67 ar
   100   76   78 ar
@<TRIPOS>SUBSTRUCTURE
     1 RES1 1
     2 RES2 3

@<TRIPOS>CRYSIN
  10.7410   12.5554   14.6734  82.7470  87.2360  73.3590   2 1

