# MOL2 file generated by ConQuest
# Please check atom types

@<TRIPOS>MOLECULE
SEFQAX
    43    47     1
SMALL
NO_CHARGES
****
Generated from CSD

@<TRIPOS>ATOM
      1 O1         6.5236    6.1890    5.3146 O.3       1 RES1    0.0000
      2 O2         9.5960    7.8400    2.0671 O.3       1 RES1    0.0000
      3 N1         7.0612    4.0134    5.0184 N.2       1 RES1    0.0000
      4 O3         1.7391    4.5164   10.0408 O.2       1 RES1    0.0000
      5 O4         2.5935    2.5552   10.2260 O.2       1 RES1    0.0000
      6 N2         2.5475    3.6690    9.7178 N.pl3     1 RES1    0.0000
      7 C1         5.3456    4.5861    6.7025 C.ar      1 RES1    0.0000
      8 C2         4.4777    5.5637    7.1706 C.ar      1 RES1    0.0000
      9 H1         4.5213    6.4238    6.8191 H         1 RES1    0.0000
     10 C3         7.8228    4.7938    4.1621 C.ar      1 RES1    0.0000
     11 C4         6.3287    4.8644    5.6636 C.2       1 RES1    0.0000
     12 C5         8.8044    4.4115    3.2074 C.ar      1 RES1    0.0000
     13 C6         7.4954    6.1247    4.3462 C.ar      1 RES1    0.0000
     14 C7         9.0437    6.7959    2.7309 C.ar      1 RES1    0.0000
     15 C8         9.1886    3.0699    2.9703 C.ar      1 RES1    0.0000
     16 H2         8.7787    2.3798    3.4405 H         1 RES1    0.0000
     17 C9        10.4177    5.1170    1.5116 C.ar      1 RES1    0.0000
     18 H3        10.8250    5.7884    1.0136 H         1 RES1    0.0000
     19 C10        3.5170    3.9907    8.6652 C.ar      1 RES1    0.0000
     20 C11        7.9429    8.6553    3.6231 C.3       1 RES1    0.0000
     21 H4         8.0468    9.0350    4.5099 H         1 RES1    0.0000
     22 H5         7.0802    8.9148    3.2651 H         1 RES1    0.0000
     23 C12        9.4335    5.4485    2.4678 C.ar      1 RES1    0.0000
     24 C13        9.1009    9.0956    2.6812 C.3       1 RES1    0.0000
     25 C14        5.2872    3.2975    7.2434 C.ar      1 RES1    0.0000
     26 H6         5.8672    2.6387    6.9358 H         1 RES1    0.0000
     27 C15        8.6448    9.9840    1.5461 C.3       1 RES1    0.0000
     28 H7         7.9111    9.5673    1.0884 H         1 RES1    0.0000
     29 H8         9.3707   10.1171    0.9319 H         1 RES1    0.0000
     30 H9         8.3628   10.8318    1.8966 H         1 RES1    0.0000
     31 C16        4.3732    3.0013    8.2294 C.ar      1 RES1    0.0000
     32 H10        4.3337    2.1478    8.5962 H         1 RES1    0.0000
     33 C17        8.0946    7.1664    3.6481 C.ar      1 RES1    0.0000
     34 C18       10.1605    2.7868    2.0522 C.ar      1 RES1    0.0000
     35 H11       10.4185    1.9039    1.9146 H         1 RES1    0.0000
     36 C19       10.7738    3.8082    1.3164 C.ar      1 RES1    0.0000
     37 H12       11.4281    3.5966    0.6897 H         1 RES1    0.0000
     38 C20       10.2628    9.6880    3.4382 C.3       1 RES1    0.0000
     39 H13       10.5226    9.0907    4.1431 H         1 RES1    0.0000
     40 H14       10.0020   10.5319    3.8132 H         1 RES1    0.0000
     41 H15       11.0015    9.8183    2.8395 H         1 RES1    0.0000
     42 C21        3.5479    5.2722    8.1562 C.ar      1 RES1    0.0000
     43 H16        2.9605    5.9235    8.4656 H         1 RES1    0.0000
@<TRIPOS>BOND
     1    1   11 1
     2    2   14 1
     3    3   10 1
     4    4    6 2
     5    5    6 2
     6    6   19 1
     7    7    8 ar
     8    8    9 1
     9   10   12 ar
    10   11    3 2
    11   12   15 ar
    12   13    1 1
    13   14   23 ar
    14   15   16 1
    15   17   18 1
    16   19   31 ar
    17   20   21 1
    18   22   20 1
    19   23   12 ar
    20   24    2 1
    21   25    7 ar
    22   26   25 1
    23   27   24 1
    24   28   27 1
    25   29   27 1
    26   30   27 1
    27   31   25 ar
    28   32   31 1
    29   33   13 ar
    30   34   15 ar
    31   35   34 1
    32   36   17 ar
    33   37   36 1
    34   38   24 1
    35   39   38 1
    36   40   38 1
    37   41   38 1
    38   42    8 ar
    39   43   42 1
    40    7   11 1
    41   10   13 ar
    42   14   33 ar
    43   17   23 ar
    44   19   42 ar
    45   20   24 1
    46   20   33 1
    47   34   36 ar
@<TRIPOS>SUBSTRUCTURE
     1 RES1 1

@<TRIPOS>CRYSIN
   9.7120    9.9580   11.0160  71.4940  66.5090  62.4780   2 1

