# MOL2 file generated by ConQuest
# Please check atom types

@<TRIPOS>MOLECULE
SEFTEF
    42    43     1
SMALL
NO_CHARGES
****
Generated from CSD

@<TRIPOS>ATOM
      1 O1         4.5889    2.8107    3.2668 O.3       1 RES1    0.0000
      2 O2         3.4530    1.0302    4.1171 O.2       1 RES1    0.0000
      3 O3         8.5126    3.9680    2.2353 O.2       1 RES1    0.0000
      4 O4         9.0258    6.0624    2.0821 O.2       1 RES1    0.0000
      5 N1         4.7350    2.3510    5.4411 N.am      1 RES1    0.0000
      6 N2         8.4054    5.1374    2.5988 N.pl3     1 RES1    0.0000
      7 C1         4.1795    1.9928    4.2475 C.2       1 RES1    0.0000
      8 C2         4.0860    2.0479    6.7535 C.3       1 RES1    0.0000
      9 H1         4.4711    1.2687    7.2290 H         1 RES1    0.0000
     10 H2         3.0977    1.9971    6.7171 H         1 RES1    0.0000
     11 C3         4.6279    3.3906    7.2121 C.2       1 RES1    0.0000
     12 C4         5.1383    3.6349    5.9865 C.2       1 RES1    0.0000
     13 C5         5.9065    4.6913    5.3282 C.ar      1 RES1    0.0000
     14 C6         6.7970    4.4022    4.2994 C.ar      1 RES1    0.0000
     15 H3         6.9325    3.5073    4.0128 H         1 RES1    0.0000
     16 C7         7.4854    5.4453    3.7019 C.ar      1 RES1    0.0000
     17 C8         7.3495    6.7603    4.0980 C.ar      1 RES1    0.0000
     18 H4         7.8355    7.4540    3.6685 H         1 RES1    0.0000
     19 C9         6.4805    7.0375    5.1424 C.ar      1 RES1    0.0000
     20 H5         6.3837    7.9310    5.4508 H         1 RES1    0.0000
     21 C10        5.7525    6.0232    5.7392 C.ar      1 RES1    0.0000
     22 H6         5.1406    6.2314    6.4355 H         1 RES1    0.0000
     23 C11        4.6679    4.0289    8.5534 C.3       1 RES1    0.0000
     24 H7         5.0341    4.9451    8.4645 H         1 RES1    0.0000
     25 H8         5.2789    3.5146    9.1388 H         1 RES1    0.0000
     26 C12        3.2939    4.1019    9.2091 C.3       1 RES1    0.0000
     27 H9         3.3767    4.5109   10.0957 H         1 RES1    0.0000
     28 H10        2.9263    3.1984    9.2991 H         1 RES1    0.0000
     29 H11        2.6957    4.6442    8.6536 H         1 RES1    0.0000
     30 C13        4.3382    2.4878    1.8410 C.3       1 RES1    0.0000
     31 C14        4.9441    1.1482    1.5017 C.3       1 RES1    0.0000
     32 H12        4.9253    1.0176    0.5314 H         1 RES1    0.0000
     33 H13        4.4286    0.4368    1.9375 H         1 RES1    0.0000
     34 H14        5.8712    1.1191    1.8173 H         1 RES1    0.0000
     35 C15        2.8582    2.5638    1.5439 C.3       1 RES1    0.0000
     36 H15        2.7148    2.4923    0.5777 H         1 RES1    0.0000
     37 H16        2.5044    3.4202    1.8646 H         1 RES1    0.0000
     38 H17        2.3957    1.8292    1.9982 H         1 RES1    0.0000
     39 C16        5.0786    3.5980    1.1339 C.3       1 RES1    0.0000
     40 H18        4.9399    3.5191    0.1665 H         1 RES1    0.0000
     41 H19        6.0359    3.5316    1.3331 H         1 RES1    0.0000
     42 H20        4.7407    4.4651    1.4421 H         1 RES1    0.0000
@<TRIPOS>BOND
     1    1    7 1
     2    2    7 2
     3    3    6 2
     4    4    6 2
     5    5    7 1
     6    6   16 1
     7    8    5 1
     8    9    8 1
     9   10    8 1
    10   11    8 1
    11   12    5 1
    12   13   12 1
    13   14   13 ar
    14   15   14 1
    15   16   14 ar
    16   17   16 ar
    17   18   17 1
    18   19   17 ar
    19   20   19 1
    20   21   13 ar
    21   22   21 1
    22   23   11 1
    23   24   23 1
    24   25   23 1
    25   26   23 1
    26   27   26 1
    27   28   26 1
    28   29   26 1
    29   30    1 1
    30   31   30 1
    31   32   31 1
    32   33   31 1
    33   34   31 1
    34   35   30 1
    35   36   35 1
    36   37   35 1
    37   38   35 1
    38   39   30 1
    39   40   39 1
    40   41   39 1
    41   42   39 1
    42   11   12 2
    43   19   21 ar
@<TRIPOS>SUBSTRUCTURE
     1 RES1 1

@<TRIPOS>CRYSIN
   8.6405    9.7798   11.3439  68.4690  69.4730  63.8540   2 1

