# MOL2 file generated by ConQuest
# Please check atom types

@<TRIPOS>MOLECULE
SEFYEH
    26    27     1
SMALL
NO_CHARGES
****
Generated from CSD

@<TRIPOS>ATOM
      1 C1         6.9305    2.7812    3.2874 C.ar      1 RES1    0.0000
      2 C2         7.6978    3.5291    4.1796 C.ar      1 RES1    0.0000
      3 C3         9.0730    3.5071    4.1969 C.ar      1 RES1    0.0000
      4 C4         9.7439    2.7486    3.2661 C.ar      1 RES1    0.0000
      5 C5         9.0310    2.0186    2.3421 C.ar      1 RES1    0.0000
      6 C6         7.6410    1.9950    2.3580 C.ar      1 RES1    0.0000
      7 C7         6.9577    1.1149    1.3742 C.2       1 RES1    0.0000
      8 N1         7.0540    4.4434    5.1435 N.pl3     1 RES1    0.0000
      9 O1         5.7530    0.9763    1.3131 O.2       1 RES1    0.0000
     10 O2         7.7633    0.4788    0.5829 O.3       1 RES1    0.0000
     11 O3         7.6496    4.6701    6.1778 O.2       1 RES1    0.0000
     12 O4         6.0087    4.9841    4.8434 O.2       1 RES1    0.0000
     13 H1         7.2900   -0.1957   -0.1195 H         1 RES1    0.0000
     14 C1F        5.4255    2.7812    3.3511 C.ar      1 RES1    0.0000
     15 C2F        4.6582    3.5291    2.4589 C.ar      1 RES1    0.0000
     16 C6F        4.7150    1.9950    4.2805 C.ar      1 RES1    0.0000
     17 C3F        3.2830    3.5071    2.4416 C.ar      1 RES1    0.0000
     18 N1F        5.3020    4.4434    1.4950 N.pl3     1 RES1    0.0000
     19 C5F        3.3250    2.0186    4.2964 C.ar      1 RES1    0.0000
     20 C7F        5.3983    1.1149    5.2643 C.2       1 RES1    0.0000
     21 C4F        2.6121    2.7486    3.3724 C.ar      1 RES1    0.0000
     22 O3F        4.7064    4.6701    0.4607 O.2       1 RES1    0.0000
     23 O4F        6.3473    4.9841    1.7951 O.2       1 RES1    0.0000
     24 O1F        6.6030    0.9763    5.3254 O.2       1 RES1    0.0000
     25 O2F        4.5927    0.4788    6.0556 O.3       1 RES1    0.0000
     26 H1F        5.0660   -0.1957    6.7580 H         1 RES1    0.0000
@<TRIPOS>BOND
     1    1    2 ar
     2    2    3 ar
     3    3    4 ar
     4    4    5 ar
     5    5    6 ar
     6    6    1 ar
     7    7    6 1
     8    8    2 1
     9    9    7 2
    10   10    7 1
    11   11    8 2
    12   12    8 2
    13   13   10 1
    14   14    1 1
    15   15   14 ar
    16   16   14 ar
    17   17   15 ar
    18   18   15 1
    19   19   16 ar
    20   20   16 1
    21   21   17 ar
    22   22   18 2
    23   23   18 2
    24   24   20 2
    25   25   20 1
    26   26   25 1
    27   19   21 ar
@<TRIPOS>SUBSTRUCTURE
     1 RES1 1

@<TRIPOS>CRYSIN
  12.3560    8.1560   13.2770  90.0000  90.0000  90.0000  60 1

