# MOL2 file generated by ConQuest
# Please check atom types

@<TRIPOS>MOLECULE
SEGFAL
    30    30     2
SMALL
NO_CHARGES
****
Generated from CSD

@<TRIPOS>ATOM
      1 C1         9.6735    4.1246    6.3484 C.3       1 RES1    0.0000
      2 C2         9.1401    1.7197    5.6658 C.2       1 RES1    0.0000
      3 C3        10.3660    1.6352    4.0747 C.2       1 RES1    0.0000
      4 N1         9.4995    0.8734    4.7377 N.2       1 RES1    0.0000
      5 N2        10.5675    2.8624    4.4958 N.2       1 RES1    0.0000
      6 N3         9.7487    2.9041    5.5590 N.pl3     1 RES1    0.0000
      7 N4        11.1232    1.1067    2.9428 N.pl3     1 RES1    0.0000
      8 N5         8.1772    1.3895    6.6983 N.pl3     1 RES1    0.0000
      9 O1        10.8439    0.0045    2.5524 O.2       1 RES1    0.0000
     10 O2        12.0135    1.7952    2.4947 O.2       1 RES1    0.0000
     11 O3         7.6278    0.3009    6.6087 O.2       1 RES1    0.0000
     12 O4         7.9926    2.2144    7.5688 O.2       1 RES1    0.0000
     13 H1         9.9485    3.9330    7.2434 H         1 RES1    0.0000
     14 H2        10.2352    4.6881    6.0403 H         1 RES1    0.0000
     15 H3         8.8168    4.4852    6.3349 H         1 RES1    0.0000
     16 C4         4.9354    0.1026    8.8959 C.3       2 RES2    0.0000
     17 C5         3.1716    1.7513    7.9788 C.2       2 RES2    0.0000
     18 C6         1.9649    1.7186    9.5871 C.2       2 RES2    0.0000
     19 N6         3.6872    0.8846    8.8591 N.pl3     2 RES2    0.0000
     20 N7         2.8870    0.8497    9.9321 N.2       2 RES2    0.0000
     21 N8         2.0679    2.3091    8.4024 N.2       2 RES2    0.0000
     22 N9         0.8876    2.0398   10.5275 N.pl3     2 RES2    0.0000
     23 N10        3.7803    2.0668    6.6983 N.pl3     2 RES2    0.0000
     24 O5         4.8418    1.5416    6.4405 O.2       2 RES2    0.0000
     25 O6         3.1816    2.8376    6.0035 O.2       2 RES2    0.0000
     26 O7         0.1363    2.9345   10.1825 O.2       2 RES2    0.0000
     27 O8         0.8412    1.4256   11.5698 O.2       2 RES2    0.0000
     28 H4         4.9201   -0.5973    8.1274 H         2 RES2    0.0000
     29 H5         5.0810   -0.3043    9.7234 H         2 RES2    0.0000
     30 H6         5.3630    0.2028    8.2993 H         2 RES2    0.0000
@<TRIPOS>BOND
     1    1    6 1
     2    2    4 2
     3    3    4 1
     4    5    3 2
     5    6    2 1
     6    7    3 1
     7    8    2 1
     8    9    7 2
     9   10    7 2
    10   11    8 2
    11   12    8 2
    12   13    1 1
    13   14    1 1
    14   15    1 1
    15   16   19 1
    16   17   19 1
    17   18   20 2
    18   19   20 1
    19   21   17 2
    20   22   18 1
    21   23   17 1
    22   24   23 2
    23   25   23 2
    24   26   22 2
    25   27   22 2
    26   28   16 1
    27   29   16 1
    28   30   16 1
    29    5    6 1
    30   18   21 1
@<TRIPOS>SUBSTRUCTURE
     1 RES1 1
     2 RES2 16

@<TRIPOS>CRYSIN
   9.9360   12.6100   12.2770  90.0000  90.0000 116.6600  14 3

