# MOL2 file generated by ConQuest
# Please check atom types

@<TRIPOS>MOLECULE
SEGFOA
    25    23     2
SMALL
NO_CHARGES
****
Generated from CSD

@<TRIPOS>ATOM
      1 N1         5.1046    2.4161    5.3009 N.pl3     1 RES1    0.0000
      2 O1         4.8006   -0.7684    1.2499 O.2       1 RES1    0.0000
      3 O2         4.8953    1.2973    2.6907 O.3       1 RES1    0.0000
      4 O3         5.7084    3.1028    4.4127 Du        2 SUP2    0.0000
      5 O4         4.4888    3.1945    4.5290 O.2       1 RES1    0.0000
      6 O5         5.5710    2.8116    6.3664 O.2       1 RES1    0.0000
      7 O6         4.7874    2.8283    6.3389 Du        2 SUP2    0.0000
      8 C1         5.0491    0.9753    5.0508 C.ar      1 RES1    0.0000
      9 C2         4.9553    0.4705    3.7399 C.ar      1 RES1    0.0000
     10 C3         4.9328   -0.9444    3.5972 C.ar      1 RES1    0.0000
     11 C4         4.9526   -1.7487    4.7317 C.ar      1 RES1    0.0000
     12 H1         4.9553   -2.6781    4.6145 H         1 RES1    0.0000
     13 C5         5.0028   -1.2339    6.0179 C.ar      1 RES1    0.0000
     14 C6         5.0676    0.1460    6.1539 C.ar      1 RES1    0.0000
     15 H2         5.0477    0.5340    7.0332 H         1 RES1    0.0000
     16 C7         4.9777   -2.1191    7.2457 C.3       1 RES1    0.0000
     17 H3         5.7349   -1.8939    7.8631 H         1 RES1    0.0000
     18 H4         5.0610   -3.0953    6.8943 H         1 RES1    0.0000
     19 H5         4.1624   -1.9439    7.7985 H         1 RES1    0.0000
     20 C8         4.8628   -1.5226    2.2388 C.2       1 RES1    0.0000
     21 C9         4.8667   -2.9976    2.0522 C.3       1 RES1    0.0000
     22 H6         4.7570   -3.2121    1.1302 H         1 RES1    0.0000
     23 H7         4.0303   -3.3205    2.5834 H         1 RES1    0.0000
     24 H8         5.6159   -3.5041    2.4380 H         1 RES1    0.0000
     25 H9         4.8628    0.7425    1.9537 H         1 RES1    0.0000
@<TRIPOS>BOND
     1    1    5 2
     2    2   20 2
     3    3    9 1
     4    6    1 2
     5    8    1 1
     6    9    8 ar
     7   10    9 ar
     8   11   10 ar
     9   12   11 1
    10   13   11 ar
    11   14    8 ar
    12   15   14 1
    13   16   13 1
    14   17   16 1
    15   18   16 1
    16   19   16 1
    17   20   10 1
    18   21   20 1
    19   22   21 1
    20   23   21 1
    21   24   21 1
    22   25    3 1
    23   13   14 ar
@<TRIPOS>SUBSTRUCTURE
     1 RES1 1
     2 SUP2 4

@<TRIPOS>CRYSIN
  13.2140    8.3430   16.1460  90.0000  90.0000  90.0000  54 1

