# MOL2 file generated by ConQuest
# Please check atom types

@<TRIPOS>MOLECULE
SEGSEC
    33    33     1
SMALL
NO_CHARGES
****
Generated from CSD

@<TRIPOS>ATOM
      1 C1         2.6629   11.0044    0.9393 C.3       1 RES1    0.0000
      2 C2         3.7251   12.1021    0.8482 C.3       1 RES1    0.0000
      3 C3         4.6510   11.8539   -0.3358 C.3       1 RES1    0.0000
      4 C4         5.1551   10.4445   -0.3323 C.3       1 RES1    0.0000
      5 C5         4.0105    9.4324   -0.2002 C.3       1 RES1    0.0000
      6 C6         4.4146    7.9789   -0.1216 C.3       1 RES1    0.0000
      7 C7         0.7474   10.5466    2.2133 C.3       1 RES1    0.0000
      8 O1         2.0087   11.1892    2.1467 O.3       1 RES1    0.0000
      9 O2         3.1238   13.3791    0.6720 O.3       1 RES1    0.0000
     10 O3         5.8338   12.6785   -0.1511 O.3       1 RES1    0.0000
     11 O4         5.7828   10.2487   -1.6203 O.3       1 RES1    0.0000
     12 O5         3.3112    9.7468    0.9908 O.3       1 RES1    0.0000
     13 O6         5.2551    7.8768    1.0709 O.3       1 RES1    0.0000
     14 O7         5.0796   14.0437   -1.7464 O.2       1 RES1    0.0000
     15 O8         6.6861   14.6422   -0.4258 O.2       1 RES1    0.0000
     16 O9         7.5414    9.7026   -2.7542 O.2       1 RES1    0.0000
     17 O10        7.5600    9.3744   -0.6410 O.2       1 RES1    0.0000
     18 O11        6.6312    6.6495    2.1357 O.2       1 RES1    0.0000
     19 O12        5.7965    5.8745    0.3423 O.2       1 RES1    0.0000
     20 N1         5.8534   13.8976   -0.8342 N.pl3     1 RES1    0.0000
     21 N2         7.0814    9.7550   -1.6498 N.pl3     1 RES1    0.0000
     22 N3         5.9083    6.7157    1.2010 N.pl3     1 RES1    0.0000
     23 H1         2.0204   11.0596    0.1651 H         1 RES1    0.0000
     24 H2         4.1684   12.0525    1.8014 H         1 RES1    0.0000
     25 H3         4.1586   12.2731   -1.2510 H         1 RES1    0.0000
     26 H4         5.7671   10.1770    0.5154 H         1 RES1    0.0000
     27 H5         3.3838    9.5427   -0.9858 H         1 RES1    0.0000
     28 H6         3.6093    7.1984   -0.1401 H         1 RES1    0.0000
     29 H7         5.0119    7.7776   -0.9157 H         1 RES1    0.0000
     30 H8         0.1373   10.2598    1.3811 H         1 RES1    0.0000
     31 H9        -0.1275   10.8941    2.6271 H         1 RES1    0.0000
     32 H10        0.9220    9.6530    2.6671 H         1 RES1    0.0000
     33 H11        3.0307   14.2589    0.0901 H         1 RES1    0.0000
@<TRIPOS>BOND
     1    1    2 1
     2    2    3 1
     3    3    4 1
     4    4    5 1
     5    5    6 1
     6    6   13 1
     7    7    8 1
     8    8    1 1
     9    9    2 1
    10   10    3 1
    11   11    4 1
    12   12    1 1
    13   13   22 1
    14   14   20 2
    15   15   20 2
    16   16   21 2
    17   17   21 2
    18   18   22 2
    19   19   22 2
    20   20   10 1
    21   21   11 1
    22   23    1 1
    23   24    2 1
    24   25    3 1
    25   26    4 1
    26   27    5 1
    27   28    6 1
    28   29    6 1
    29   30    7 1
    30   31    7 1
    31   32    7 1
    32   33    9 1
    33    5   12 1
@<TRIPOS>SUBSTRUCTURE
     1 RES1 1

@<TRIPOS>CRYSIN
   9.8080   27.5800    5.0040  90.0000  90.0000  90.0000  19 1

