# MOL2 file generated by ConQuest
# Please check atom types

@<TRIPOS>MOLECULE
SEJCAM
    36    37     1
SMALL
NO_CHARGES
****
Generated from CSD

@<TRIPOS>ATOM
      1 O1         5.2583    3.2543    3.5534 O.3       1 RES1    0.0000
      2 O2         6.9663    6.3394    1.2151 O.2       1 RES1    0.0000
      3 O3         8.8227    5.1729    1.6387 O.3       1 RES1    0.0000
      4 N1         6.4017    2.3980    3.5534 N.2       1 RES1    0.0000
      5 C1         7.3117    3.0467    2.8747 C.2       1 RES1    0.0000
      6 C2         6.8243    4.3147    2.4268 C.2       1 RES1    0.0000
      7 C3         5.5370    4.3733    2.8642 C.2       1 RES1    0.0000
      8 C4         8.6229    2.3907    2.6264 C.ar      1 RES1    0.0000
      9 C5         9.7282    2.6944    3.4249 C.ar      1 RES1    0.0000
     10 C6        10.9240    2.0485    3.1645 C.ar      1 RES1    0.0000
     11 C7        11.0696    1.1336    2.1317 C.ar      1 RES1    0.0000
     12 C8         9.9510    0.8591    1.3575 C.ar      1 RES1    0.0000
     13 C9         8.7241    1.4565    1.5797 C.ar      1 RES1    0.0000
     14 C10        7.5096    5.3852    1.6942 C.2       1 RES1    0.0000
     15 C11        9.6128    6.1766    0.9686 C.3       1 RES1    0.0000
     16 C12        4.4433    5.3550    2.7410 C.3       1 RES1    0.0000
     17 C13        9.6296    3.7045    4.5359 C.3       1 RES1    0.0000
     18 C14       12.3835    0.4593    1.8696 C.3       1 RES1    0.0000
     19 C15        7.5354    1.0970    0.7221 C.3       1 RES1    0.0000
     20 H1        11.6751    2.2388    3.7148 H         1 RES1    0.0000
     21 H2        10.0318    0.2370    0.6440 H         1 RES1    0.0000
     22 H3         8.7747    3.6404    4.9456 H         1 RES1    0.0000
     23 H4         9.7459    4.5773    4.1800 H         1 RES1    0.0000
     24 H5        10.3043    3.5316    5.1817 H         1 RES1    0.0000
     25 H6        12.9810    0.6404    2.5848 H         1 RES1    0.0000
     26 H7        12.7519    0.7887    1.0589 H         1 RES1    0.0000
     27 H8        12.2495   -0.4785    1.7984 H         1 RES1    0.0000
     28 H9         7.8328    0.8664   -0.1510 H         1 RES1    0.0000
     29 H10        7.0791    0.3577    1.1075 H         1 RES1    0.0000
     30 H11        6.9459    1.8399    0.6701 H         1 RES1    0.0000
     31 H12       10.5334    5.9551    1.0398 H         1 RES1    0.0000
     32 H13        9.3660    6.2141    0.0521 H         1 RES1    0.0000
     33 H14        9.4583    7.0228    1.3731 H         1 RES1    0.0000
     34 H15        4.8091    6.2278    2.6525 H         1 RES1    0.0000
     35 H16        3.8964    5.3184    3.5169 H         1 RES1    0.0000
     36 H17        3.9195    5.1519    1.9755 H         1 RES1    0.0000
@<TRIPOS>BOND
     1    1    4 1
     2    2   14 2
     3    3   14 1
     4    4    5 2
     5    5    6 1
     6    6    7 2
     7    7    1 1
     8    8    5 1
     9    9    8 ar
    10   10    9 ar
    11   11   10 ar
    12   12   11 ar
    13   13    8 ar
    14   14    6 1
    15   15    3 1
    16   16    7 1
    17   17    9 1
    18   18   11 1
    19   19   13 1
    20   20   10 1
    21   21   12 1
    22   22   17 1
    23   23   17 1
    24   24   17 1
    25   25   18 1
    26   26   18 1
    27   27   18 1
    28   28   19 1
    29   29   19 1
    30   30   19 1
    31   31   15 1
    32   32   15 1
    33   33   15 1
    34   34   16 1
    35   35   16 1
    36   36   16 1
    37   12   13 ar
@<TRIPOS>SUBSTRUCTURE
     1 RES1 1

@<TRIPOS>CRYSIN
   8.8777    9.1491   17.3590  90.0000  90.0000  90.0000  19 1

