# MOL2 file generated by ConQuest
# Please check atom types

@<TRIPOS>MOLECULE
SEJCOA
    34    35     1
SMALL
NO_CHARGES
****
Generated from CSD

@<TRIPOS>ATOM
      1 O1         3.5775   25.7432    5.6239 O.3       1 RES1    0.0000
      2 O2         0.6259   28.6649    5.0015 O.2       1 RES1    0.0000
      3 N1         3.1431   24.8242    4.6343 N.2       1 RES1    0.0000
      4 N2        -0.2026   27.2344    3.4962 N.am      1 RES1    0.0000
      5 C1         2.0736   25.3589    4.1038 C.2       1 RES1    0.0000
      6 C2         1.7769   26.6333    4.7028 C.2       1 RES1    0.0000
      7 C3         2.7407   26.8067    5.6216 C.2       1 RES1    0.0000
      8 C4         1.3407   24.6306    3.0341 C.ar      1 RES1    0.0000
      9 C5         1.5079   25.0005    1.7006 C.ar      1 RES1    0.0000
     10 C6         0.7008   24.4110    0.7437 C.ar      1 RES1    0.0000
     11 C7        -0.2610   23.4631    1.0752 C.ar      1 RES1    0.0000
     12 C8        -0.3653   23.0787    2.4031 C.ar      1 RES1    0.0000
     13 C9         0.4243   23.6394    3.4020 C.ar      1 RES1    0.0000
     14 C10        0.6922   27.5841    4.4087 C.2       1 RES1    0.0000
     15 C11        3.0872   27.8644    6.6104 C.3       1 RES1    0.0000
     16 C12        2.5347   26.0235    1.2891 C.3       1 RES1    0.0000
     17 C13       -1.1654   22.8909    0.0272 C.3       1 RES1    0.0000
     18 C14        0.2746   23.1886    4.8257 C.3       1 RES1    0.0000
     19 H1        -0.8728   27.7141    3.1741 H         1 RES1    0.0000
     20 H2        -0.2474   26.4715    3.1897 H         1 RES1    0.0000
     21 H3         0.8069   24.6624   -0.1665 H         1 RES1    0.0000
     22 H4        -0.9977   22.4112    2.6389 H         1 RES1    0.0000
     23 H5         3.4058   25.6623    1.3996 H         1 RES1    0.0000
     24 H6         2.4428   26.8009    1.8306 H         1 RES1    0.0000
     25 H7         2.4022   26.2576    0.3773 H         1 RES1    0.0000
     26 H8        -2.0375   23.2550    0.1291 H         1 RES1    0.0000
     27 H9        -0.8303   23.1076   -0.8340 H         1 RES1    0.0000
     28 H10       -1.2029   21.9459    0.1229 H         1 RES1    0.0000
     29 H11       -0.4954   22.6366    4.9043 H         1 RES1    0.0000
     30 H12        1.0445   22.6944    5.0840 H         1 RES1    0.0000
     31 H13        0.1806   23.9457    5.3905 H         1 RES1    0.0000
     32 H14        2.9419   27.5350    7.4903 H         1 RES1    0.0000
     33 H15        4.0001   28.1072    6.5100 H         1 RES1    0.0000
     34 H16        2.5394   28.6273    6.4633 H         1 RES1    0.0000
@<TRIPOS>BOND
     1    1    3 1
     2    2   14 2
     3    3    5 2
     4    4   14 1
     5    5    6 1
     6    6    7 2
     7    7    1 1
     8    8    5 1
     9    9    8 ar
    10   10    9 ar
    11   11   10 ar
    12   12   11 ar
    13   13    8 ar
    14   14    6 1
    15   15    7 1
    16   16    9 1
    17   17   11 1
    18   18   13 1
    19   19    4 1
    20   20    4 1
    21   21   10 1
    22   22   12 1
    23   23   16 1
    24   24   16 1
    25   25   16 1
    26   26   17 1
    27   27   17 1
    28   28   17 1
    29   29   18 1
    30   30   18 1
    31   31   18 1
    32   32   15 1
    33   33   15 1
    34   34   15 1
    35   12   13 ar
@<TRIPOS>SUBSTRUCTURE
     1 RES1 1

@<TRIPOS>CRYSIN
   5.7154   28.8990    7.9525  90.0000 101.9670  90.0000  14 2

