# MOL2 file generated by ConQuest
# Please check atom types

@<TRIPOS>MOLECULE
SEJCUG
    41    43     1
SMALL
NO_CHARGES
****
Generated from CSD

@<TRIPOS>ATOM
      1 O1         6.5567    4.5151    3.3947 O.3       1 RES1    0.0000
      2 O2         7.8783    1.4995    0.7666 O.2       1 RES1    0.0000
      3 N1         5.1823    4.1760    3.3556 N.2       1 RES1    0.0000
      4 N2         5.8419    0.6297    1.0541 N.am      1 RES1    0.0000
      5 C1         5.1137    3.0820    2.6423 C.2       1 RES1    0.0000
      6 C2         6.4056    2.6720    2.1827 C.2       1 RES1    0.0000
      7 C3         7.2565    3.6012    2.6884 C.2       1 RES1    0.0000
      8 C4         3.7767    2.4747    2.4116 C.ar      1 RES1    0.0000
      9 C5         3.3489    1.4158    3.2296 C.ar      1 RES1    0.0000
     10 C6         2.0985    0.8698    2.9883 C.ar      1 RES1    0.0000
     11 C7         1.2707    1.3284    1.9875 C.ar      1 RES1    0.0000
     12 C8         1.7216    2.3693    1.1996 C.ar      1 RES1    0.0000
     13 C9         2.9617    2.9677    1.3912 C.ar      1 RES1    0.0000
     14 C10        6.7608    1.5551    1.2759 C.2       1 RES1    0.0000
     15 C11        8.7092    3.8433    2.6600 C.ar      1 RES1    0.0000
     16 C12        9.5950    2.8611    3.0486 C.ar      1 RES1    0.0000
     17 C13       10.9553    3.1325    3.0611 C.ar      1 RES1    0.0000
     18 C14       11.4197    4.3657    2.6653 C.ar      1 RES1    0.0000
     19 C15       10.5397    5.3338    2.2767 C.ar      1 RES1    0.0000
     20 C16        9.1871    5.0822    2.2874 C.ar      1 RES1    0.0000
     21 C17        4.2061    0.8909    4.3494 C.3       1 RES1    0.0000
     22 C18       -0.1047    0.7376    1.7905 C.3       1 RES1    0.0000
     23 C19        3.4059    4.1332    0.5359 C.3       1 RES1    0.0000
     24 H1         6.0131   -0.0447    0.4791 H         1 RES1    0.0000
     25 H2         5.0449    0.7089    1.3486 H         1 RES1    0.0000
     26 H3         1.8014    0.1514    3.5349 H         1 RES1    0.0000
     27 H4         1.1621    2.6886    0.5004 H         1 RES1    0.0000
     28 H5         4.5947    1.6196    4.8196 H         1 RES1    0.0000
     29 H6         4.8926    0.3410    3.9927 H         1 RES1    0.0000
     30 H7         3.6701    0.3813    4.9456 H         1 RES1    0.0000
     31 H8        -0.0284   -0.1954    1.6290 H         1 RES1    0.0000
     32 H9        -0.6265    0.8826    2.5695 H         1 RES1    0.0000
     33 H10       -0.5243    1.1540    1.0452 H         1 RES1    0.0000
     34 H11        2.7978    4.2469   -0.1846 H         1 RES1    0.0000
     35 H12        3.4241    4.9232    1.0629 H         1 RES1    0.0000
     36 H13        4.2756    3.9614    0.1934 H         1 RES1    0.0000
     37 H14        9.2767    2.0040    3.3059 H         1 RES1    0.0000
     38 H15       11.5690    2.4645    3.3432 H         1 RES1    0.0000
     39 H16       12.3525    4.5432    2.6618 H         1 RES1    0.0000
     40 H17       10.8616    6.1826    1.9963 H         1 RES1    0.0000
     41 H18        8.5778    5.7662    2.0354 H         1 RES1    0.0000
@<TRIPOS>BOND
     1    1    3 1
     2    2   14 2
     3    3    5 2
     4    4   14 1
     5    5    6 1
     6    6    7 2
     7    7    1 1
     8    8    5 1
     9    9    8 ar
    10   10    9 ar
    11   11   10 ar
    12   12   11 ar
    13   13    8 ar
    14   14    6 1
    15   15    7 1
    16   16   15 ar
    17   17   16 ar
    18   18   17 ar
    19   19   18 ar
    20   20   15 ar
    21   21    9 1
    22   22   11 1
    23   23   13 1
    24   24    4 1
    25   25    4 1
    26   26   10 1
    27   27   12 1
    28   28   21 1
    29   29   21 1
    30   30   21 1
    31   31   22 1
    32   32   22 1
    33   33   22 1
    34   34   23 1
    35   35   23 1
    36   36   23 1
    37   37   16 1
    38   38   17 1
    39   39   18 1
    40   40   19 1
    41   41   20 1
    42   12   13 ar
    43   19   20 ar
@<TRIPOS>SUBSTRUCTURE
     1 RES1 1

@<TRIPOS>CRYSIN
  14.4024    6.3863   18.4534  90.0000 105.9240  90.0000 231 1

