# MOL2 file generated by ConQuest
# Please check atom types

@<TRIPOS>MOLECULE
SEJCEQ
    56    59     1
SMALL
NO_CHARGES
****
Generated from CSD

@<TRIPOS>ATOM
      1 O1         9.3862   11.5162   12.2150 O.3       1 RES1    0.0000
      2 O2         6.8684   11.0403    8.8601 O.2       1 RES1    0.0000
      3 O3         5.9505    9.4480   10.1774 O.3       1 RES1    0.0000
      4 N1         8.6868   10.6182   13.0867 N.2       1 RES1    0.0000
      5 C1         7.7077   10.1374   12.3682 C.2       1 RES1    0.0000
      6 C2         7.7054   10.6834   11.0421 C.2       1 RES1    0.0000
      7 C3         8.7647   11.5260   11.0368 C.2       1 RES1    0.0000
      8 C4         6.7505    9.1775   12.9723 C.ar      1 RES1    0.0000
      9 C5         7.0741    7.8149   12.9899 C.ar      1 RES1    0.0000
     10 C6         6.1463    6.9348   13.4988 C.ar      1 RES1    0.0000
     11 C7         4.8995    7.3374   13.9391 C.ar      1 RES1    0.0000
     12 C8         4.6084    8.6950   13.8951 C.ar      1 RES1    0.0000
     13 C9         5.5150    9.6257   13.4319 C.ar      1 RES1    0.0000
     14 C10        6.8155   10.4340    9.9097 C.2       1 RES1    0.0000
     15 C11        4.9623    9.1383    9.1436 C.3       1 RES1    0.0000
     16 C12        4.4655    7.7204    9.4166 C.3       1 RES1    0.0000
     17 C13        3.4017    7.3814    8.3705 C.3       1 RES1    0.0000
     18 C14        2.2623    8.3919    8.3318 C.3       1 RES1    0.0000
     19 C15        2.7968    9.8098    8.1345 C.3       1 RES1    0.0000
     20 C16        3.8357   10.1374    9.1947 C.3       1 RES1    0.0000
     21 C17        8.3481    7.3064   12.3964 C.3       1 RES1    0.0000
     22 C18        3.8826    6.3318   14.4305 C.3       1 RES1    0.0000
     23 C19        5.1755   11.0941   13.4125 C.3       1 RES1    0.0000
     24 C20        5.5460    6.6659    9.4589 C.ar      1 RES1    0.0000
     25 C21        6.5425    6.6007    8.4973 C.ar      1 RES1    0.0000
     26 C22        7.4990    5.6033    8.5132 C.ar      1 RES1    0.0000
     27 C23        7.4884    4.6547    9.4994 C.ar      1 RES1    0.0000
     28 C24        6.5070    4.6873   10.4557 C.ar      1 RES1    0.0000
     29 C25        5.5422    5.6897   10.4380 C.ar      1 RES1    0.0000
     30 H1         9.0301   12.0524   10.2919 H         1 RES1    0.0000
     31 H2         3.7563    8.9917   14.1927 H         1 RES1    0.0000
     32 H3         6.3717    6.0124   13.5517 H         1 RES1    0.0000
     33 H4         5.3766    9.1693    8.2895 H         1 RES1    0.0000
     34 H5         3.4282   10.1065   10.0524 H         1 RES1    0.0000
     35 H6         4.1812   11.0077    9.0380 H         1 RES1    0.0000
     36 H7         2.0778   10.4275    8.1997 H         1 RES1    0.0000
     37 H8         3.1945    9.8783    7.2733 H         1 RES1    0.0000
     38 H9         1.7836    8.3511    9.1507 H         1 RES1    0.0000
     39 H10        1.6793    8.1751    7.6132 H         1 RES1    0.0000
     40 H11        3.0410    6.5258    8.5713 H         1 RES1    0.0000
     41 H12        3.8145    7.3586    7.5146 H         1 RES1    0.0000
     42 H13        4.0391    7.7269   10.2655 H         1 RES1    0.0000
     43 H14        6.5690    7.2575    7.8105 H         1 RES1    0.0000
     44 H15        8.1666    5.5756    7.8387 H         1 RES1    0.0000
     45 H16        8.1561    3.9784    9.5205 H         1 RES1    0.0000
     46 H17        6.4851    4.0224   11.1337 H         1 RES1    0.0000
     47 H18        4.8700    5.7027   11.1108 H         1 RES1    0.0000
     48 H19        9.0603    7.8899   12.6324 H         1 RES1    0.0000
     49 H20        8.2657    7.2722   11.4507 H         1 RES1    0.0000
     50 H21        8.5273    6.4361   12.7310 H         1 RES1    0.0000
     51 H22        4.3635   11.2375   13.8828 H         1 RES1    0.0000
     52 H23        5.0772   11.3842   12.5144 H         1 RES1    0.0000
     53 H24        5.8741   11.5863   13.8299 H         1 RES1    0.0000
     54 H25        3.0274    6.7425   14.4727 H         1 RES1    0.0000
     55 H26        4.1313    6.0254   15.2934 H         1 RES1    0.0000
     56 H27        3.8508    5.5951   13.8299 H         1 RES1    0.0000
@<TRIPOS>BOND
     1    1    4 1
     2    2   14 2
     3    3   14 1
     4    4    5 2
     5    5    6 1
     6    6    7 2
     7    7    1 1
     8    8    5 1
     9    9    8 ar
    10   10    9 ar
    11   11   10 ar
    12   12   11 ar
    13   13    8 ar
    14   14    6 1
    15   15    3 1
    16   16   15 1
    17   17   16 1
    18   18   17 1
    19   19   18 1
    20   20   15 1
    21   21    9 1
    22   22   11 1
    23   23   13 1
    24   24   16 1
    25   25   24 ar
    26   26   25 ar
    27   27   26 ar
    28   28   27 ar
    29   29   24 ar
    30   30    7 1
    31   31   12 1
    32   32   10 1
    33   33   15 1
    34   34   20 1
    35   35   20 1
    36   36   19 1
    37   37   19 1
    38   38   18 1
    39   39   18 1
    40   40   17 1
    41   41   17 1
    42   42   16 1
    43   43   25 1
    44   44   26 1
    45   45   27 1
    46   46   28 1
    47   47   29 1
    48   48   21 1
    49   49   21 1
    50   50   21 1
    51   51   23 1
    52   52   23 1
    53   53   23 1
    54   54   22 1
    55   55   22 1
    56   56   22 1
    57   12   13 ar
    58   19   20 1
    59   28   29 ar
@<TRIPOS>SUBSTRUCTURE
     1 RES1 1

@<TRIPOS>CRYSIN
   7.5610   16.2981   17.6110  90.0000  90.0000  90.0000  19 1

