# MOL2 file generated by ConQuest
# Please check atom types

@<TRIPOS>MOLECULE
SEJDAN
    93    96     3
SMALL
NO_CHARGES
****
Generated from CSD

@<TRIPOS>ATOM
      1 O1        -1.4296    9.4788    7.1575 O.3       1 RES1    0.0000
      2 O2         3.6697    7.8667    6.5594 O.3       2 RES2    0.0000
      3 O3         6.6143    4.0739    4.1477 O.3       3 RES3    0.0000
      4 O4        -3.7278    9.1984    9.8089 O.2       1 RES1    0.0000
      5 O5         0.7965    6.7570    8.3149 O.2       2 RES2    0.0000
      6 O6         5.5544    4.9104    7.4166 O.2       3 RES3    0.0000
      7 N1        -1.0532   10.5926    6.3815 N.2       1 RES1    0.0000
      8 N2         3.8054    8.8965    5.5883 N.2       2 RES2    0.0000
      9 N3         6.5789    4.7936    2.9361 N.2       3 RES3    0.0000
     10 N4        -2.1633    7.7253    9.0905 N.am      1 RES1    0.0000
     11 N5         2.9527    6.0781    8.4714 N.am      2 RES2    0.0000
     12 N6         6.7556    3.1536    6.6409 N.am      3 RES3    0.0000
     13 C1        -1.7243   11.6116    6.8680 C.2       1 RES1    0.0000
     14 C2        -2.5444   11.2064    7.9527 C.2       1 RES1    0.0000
     15 C3        -2.3173    9.8959    8.0890 C.2       1 RES1    0.0000
     16 C4         2.6064    9.3915    5.4350 C.2       2 RES2    0.0000
     17 C5         1.6687    8.7261    6.2603 C.2       2 RES2    0.0000
     18 C6         2.3690    7.8038    6.9286 C.2       2 RES2    0.0000
     19 C7         6.0544    5.9621    3.2277 C.2       3 RES3    0.0000
     20 C8         5.7448    6.0403    4.6039 C.2       3 RES3    0.0000
     21 C9         6.1140    4.8666    5.1264 C.2       3 RES3    0.0000
     22 C10       -1.5028   12.9590    6.2906 C.ar      1 RES1    0.0000
     23 C11       -0.9779   13.9565    7.1255 C.ar      1 RES1    0.0000
     24 C12       -0.7275   15.2133    6.5765 C.ar      1 RES1    0.0000
     25 C13       -0.9965   15.5042    5.2532 C.ar      1 RES1    0.0000
     26 C14       -1.5294   14.5051    4.4638 C.ar      1 RES1    0.0000
     27 C15       -1.7793   13.2216    4.9522 C.ar      1 RES1    0.0000
     28 C16       -2.7978    8.9016    9.0583 C.2       1 RES1    0.0000
     29 C17        2.3632   10.5289    4.5131 C.ar      2 RES2    0.0000
     30 C18        2.0874   11.7941    5.0526 C.ar      2 RES2    0.0000
     31 C19        1.7839   12.8372    4.2007 C.ar      2 RES2    0.0000
     32 C20        1.7439   12.6721    2.8320 C.ar      2 RES2    0.0000
     33 C21        2.0400   11.4214    2.3152 C.ar      2 RES2    0.0000
     34 C22        2.3439   10.3351    3.1368 C.ar      2 RES2    0.0000
     35 C23        1.9813    6.8274    7.9622 C.2       2 RES2    0.0000
     36 C24        5.8917    6.9921    2.1732 C.ar      3 RES3    0.0000
     37 C25        6.4636    8.2549    2.3758 C.ar      3 RES3    0.0000
     38 C26        6.3024    9.2310    1.4065 C.ar      3 RES3    0.0000
     39 C27        5.5825    9.0030    0.2499 C.ar      3 RES3    0.0000
     40 C28        5.0376    7.7414    0.0663 C.ar      3 RES3    0.0000
     41 C29        5.1782    6.7323    0.9995 C.ar      3 RES3    0.0000
     42 C30        6.1156    4.3091    6.4913 C.2       3 RES3    0.0000
     43 C31       -0.6761   13.7038    8.5793 C.3       1 RES1    0.0000
     44 C32       -0.7611   16.8877    4.6834 C.3       1 RES1    0.0000
     45 C33       -2.3250   12.1731    4.0171 C.3       1 RES1    0.0000
     46 C34        2.1350   12.0289    6.5329 C.3       2 RES2    0.0000
     47 C35        1.3898   13.8295    1.9215 C.3       2 RES2    0.0000
     48 C36        2.6395    8.9893    2.5234 C.3       2 RES2    0.0000
     49 C37        7.2279    8.5925    3.6309 C.3       3 RES3    0.0000
     50 C38        5.3971   10.0809   -0.7913 C.3       3 RES3    0.0000
     51 C39        4.5419    5.3836    0.7288 C.3       3 RES3    0.0000
     52 H1        -2.3762    7.1359    9.7871 H         1 RES1    0.0000
     53 H2        -1.5235    7.5757    8.5756 H         1 RES1    0.0000
     54 H3         2.7383    5.5085    9.1435 H         2 RES2    0.0000
     55 H4         3.7890    6.1081    8.1023 H         2 RES2    0.0000
     56 H5         6.7544    2.7845    7.5344 H         3 RES3    0.0000
     57 H6         7.1689    2.7974    5.9442 H         3 RES3    0.0000
     58 H7        -3.1078   11.7677    8.4809 H         1 RES1    0.0000
     59 H8         0.7601    8.8828    6.3228 H         2 RES2    0.0000
     60 H9         5.3786    6.7208    5.0734 H         3 RES3    0.0000
     61 H10       -0.3589   15.8911    7.1293 H         1 RES1    0.0000
     62 H11       -1.7317   14.6962    3.5552 H         1 RES1    0.0000
     63 H12       -1.4906   13.5951    9.0583 H         1 RES1    0.0000
     64 H13       -0.1963   14.4422    8.9371 H         1 RES1    0.0000
     65 H14       -0.1524   12.9162    8.6626 H         1 RES1    0.0000
     66 H15       -1.3991   17.4934    5.0431 H         1 RES1    0.0000
     67 H16        0.1146   17.1804    4.9087 H         1 RES1    0.0000
     68 H17       -0.8501   16.8608    3.7369 H         1 RES1    0.0000
     69 H18       -3.0104   12.5543    3.4794 H         1 RES1    0.0000
     70 H19       -1.6272   11.8522    3.4586 H         1 RES1    0.0000
     71 H20       -2.6834   11.4520    4.5225 H         1 RES1    0.0000
     72 H21        1.5979   13.6932    4.5661 H         2 RES2    0.0000
     73 H22        2.0365   11.2994    1.3725 H         2 RES2    0.0000
     74 H23        3.0052   11.8263    6.8586 H         2 RES2    0.0000
     75 H24        1.4989   11.4681    6.9646 H         2 RES2    0.0000
     76 H25        1.9322   12.9376    6.7166 H         2 RES2    0.0000
     77 H26        1.0931   14.5665    2.4420 H         2 RES2    0.0000
     78 H27        0.6979   13.5645    1.3251 H         2 RES2    0.0000
     79 H28        2.1558   14.0856    1.4198 H         2 RES2    0.0000
     80 H29        2.3393    8.9792    1.6224 H         2 RES2    0.0000
     81 H30        2.1883    8.3117    3.0137 H         2 RES2    0.0000
     82 H31        3.5747    8.8284    2.5481 H         2 RES2    0.0000
     83 H32        6.6991   10.0830    1.5428 H         3 RES3    0.0000
     84 H33        4.5500    7.5641   -0.7288 H         3 RES3    0.0000
     85 H34        7.8072    7.8718    3.8524 H         3 RES3    0.0000
     86 H35        6.6183    8.7395    4.3446 H         3 RES3    0.0000
     87 H36        7.7422    9.3777    3.4870 H         3 RES3    0.0000
     88 H37        5.8675   10.8628   -0.5263 H         3 RES3    0.0000
     89 H38        4.4721   10.2833   -0.8765 H         3 RES3    0.0000
     90 H39        5.7331    9.7770   -1.6261 H         3 RES3    0.0000
     91 H40        3.9571    5.4527   -0.0170 H         3 RES3    0.0000
     92 H41        5.2191    4.7440    0.5433 H         3 RES3    0.0000
     93 H42        4.0483    5.1077    1.4936 H         3 RES3    0.0000
@<TRIPOS>BOND
     1    1    7 1
     2    2    8 1
     3    3    9 1
     4    4   28 2
     5    5   35 2
     6    6   42 2
     7    7   13 2
     8    8   16 2
     9    9   19 2
    10   10   28 1
    11   11   35 1
    12   12   42 1
    13   13   14 1
    14   14   15 2
    15   15    1 1
    16   16   17 1
    17   17   18 2
    18   18    2 1
    19   19   20 1
    20   20   21 2
    21   21    3 1
    22   22   13 1
    23   23   22 ar
    24   24   23 ar
    25   25   24 ar
    26   26   25 ar
    27   27   22 ar
    28   28   15 1
    29   29   16 1
    30   30   29 ar
    31   31   30 ar
    32   32   31 ar
    33   33   32 ar
    34   34   29 ar
    35   35   18 1
    36   36   19 1
    37   37   36 ar
    38   38   37 ar
    39   39   38 ar
    40   40   39 ar
    41   41   36 ar
    42   42   21 1
    43   43   23 1
    44   44   25 1
    45   45   27 1
    46   46   30 1
    47   47   32 1
    48   48   34 1
    49   49   37 1
    50   50   39 1
    51   51   41 1
    52   52   10 1
    53   53   10 1
    54   54   11 1
    55   55   11 1
    56   56   12 1
    57   57   12 1
    58   58   14 1
    59   59   17 1
    60   60   20 1
    61   61   24 1
    62   62   26 1
    63   63   43 1
    64   64   43 1
    65   65   43 1
    66   66   44 1
    67   67   44 1
    68   68   44 1
    69   69   45 1
    70   70   45 1
    71   71   45 1
    72   72   31 1
    73   73   33 1
    74   74   46 1
    75   75   46 1
    76   76   46 1
    77   77   47 1
    78   78   47 1
    79   79   47 1
    80   80   48 1
    81   81   48 1
    82   82   48 1
    83   83   38 1
    84   84   40 1
    85   85   49 1
    86   86   49 1
    87   87   49 1
    88   88   50 1
    89   89   50 1
    90   90   50 1
    91   91   51 1
    92   92   51 1
    93   93   51 1
    94   26   27 ar
    95   33   34 ar
    96   40   41 ar
@<TRIPOS>SUBSTRUCTURE
     1 RES1 1
     2 RES2 2
     3 RES3 3

@<TRIPOS>CRYSIN
   8.0557   12.5000   19.0940  91.8994  96.6238 103.2161   2 1

