# MOL2 file generated by ConQuest
# Please check atom types

@<TRIPOS>MOLECULE
SEJDER
    59    63     1
SMALL
NO_CHARGES
****
Generated from CSD

@<TRIPOS>ATOM
      1 O1         2.4734   -0.7285   12.2167 O.3       1 RES1    0.0000
      2 O2         4.4741   -1.3245   15.3219 O.2       1 RES1    0.0000
      3 O3         6.5087   -0.9316   14.4739 O.3       1 RES1    0.0000
      4 N1         2.8956    0.5851   12.4963 N.2       1 RES1    0.0000
      5 C1         4.1054    0.5717   12.9165 C.2       1 RES1    0.0000
      6 C2         4.7122   -0.8067   12.9852 C.3       1 RES1    0.0000
      7 C3         3.5415   -1.6770   12.5298 C.3       1 RES1    0.0000
      8 C4         4.8107    1.7999   13.3535 C.ar      1 RES1    0.0000
      9 C5         5.9366    2.2341   12.6369 C.ar      1 RES1    0.0000
     10 C6         6.6657    3.2981   13.1291 C.ar      1 RES1    0.0000
     11 C7         6.3181    3.9591   14.2927 C.ar      1 RES1    0.0000
     12 C8         5.1829    3.5318   14.9674 C.ar      1 RES1    0.0000
     13 C9         4.4204    2.4611   14.5238 C.ar      1 RES1    0.0000
     14 C10        5.1896   -1.0728   14.3915 C.2       1 RES1    0.0000
     15 C11        7.1044   -1.0064   15.7895 C.3       1 RES1    0.0000
     16 C12        3.7842   -2.5887   11.3310 C.3       1 RES1    0.0000
     17 C13        4.9467   -3.5505   11.6358 C.3       1 RES1    0.0000
     18 C14        5.1720   -4.4907   10.4554 C.3       1 RES1    0.0000
     19 C15        3.9080   -5.3194   10.2194 C.3       1 RES1    0.0000
     20 C16        2.7446   -4.3868    9.9029 C.3       1 RES1    0.0000
     21 C17        2.5284   -3.4327   11.0665 C.3       1 RES1    0.0000
     22 C18        4.1107   -1.8002   10.0570 C.3       1 RES1    0.0000
     23 C19        4.3261   -2.7521    8.8850 C.3       1 RES1    0.0000
     24 C20        5.4895   -3.6810    9.2015 C.3       1 RES1    0.0000
     25 C21        3.0563   -3.5799    8.6490 C.3       1 RES1    0.0000
     26 C22        6.3337    1.5885   11.3344 C.3       1 RES1    0.0000
     27 C23        7.1278    5.1245   14.8017 C.3       1 RES1    0.0000
     28 C24        3.2029    2.0248   15.3106 C.3       1 RES1    0.0000
     29 H1         5.4350   -0.8789   12.3724 H         1 RES1    0.0000
     30 H2         3.2618   -2.2124   13.2631 H         1 RES1    0.0000
     31 H3         7.4340    3.5864   12.6520 H         1 RES1    0.0000
     32 H4         4.9198    3.9872   15.7593 H         1 RES1    0.0000
     33 H5         5.5578    1.4332   10.8087 H         1 RES1    0.0000
     34 H6         6.7682    0.7631   11.5085 H         1 RES1    0.0000
     35 H7         6.9246    2.1642   10.8639 H         1 RES1    0.0000
     36 H8         8.0506    4.8989   14.7866 H         1 RES1    0.0000
     37 H9         6.9779    5.8802   14.2458 H         1 RES1    0.0000
     38 H10        6.8658    5.3282   15.6907 H         1 RES1    0.0000
     39 H11        3.1494    2.5274   16.1159 H         1 RES1    0.0000
     40 H12        2.4206    2.1718   14.7933 H         1 RES1    0.0000
     41 H13        3.2757    1.1013   15.5199 H         1 RES1    0.0000
     42 H14        6.9856   -0.1775   16.2382 H         1 RES1    0.0000
     43 H15        6.6853   -1.6993   16.2884 H         1 RES1    0.0000
     44 H16        8.0317   -1.1928   15.7074 H         1 RES1    0.0000
     45 H17        4.7376   -4.0607   12.4092 H         1 RES1    0.0000
     46 H18        5.7372   -3.0477   11.7915 H         1 RES1    0.0000
     47 H19        5.8984   -5.0708   10.6480 H         1 RES1    0.0000
     48 H20        4.0486   -5.9101    9.4877 H         1 RES1    0.0000
     49 H21        3.7085   -5.8230   10.9996 H         1 RES1    0.0000
     50 H22        1.9570   -4.8994    9.7623 H         1 RES1    0.0000
     51 H23        2.3218   -3.9353   11.8467 H         1 RES1    0.0000
     52 H24        1.8035   -2.8538   10.8623 H         1 RES1    0.0000
     53 H25        3.3891   -1.2153    9.8577 H         1 RES1    0.0000
     54 H26        4.9009   -1.2915   10.1976 H         1 RES1    0.0000
     55 H27        4.5258   -2.2503    8.1032 H         1 RES1    0.0000
     56 H28        6.2740   -3.1662    9.3471 H         1 RES1    0.0000
     57 H29        5.6300   -4.2716    8.4698 H         1 RES1    0.0000
     58 H30        3.1930   -4.1696    7.9173 H         1 RES1    0.0000
     59 H31        2.3299   -2.9988    8.4564 H         1 RES1    0.0000
@<TRIPOS>BOND
     1    1    4 1
     2    2   14 2
     3    3   14 1
     4    4    5 2
     5    5    6 1
     6    6    7 1
     7    7    1 1
     8    8    5 1
     9    9    8 ar
    10   10    9 ar
    11   11   10 ar
    12   12   11 ar
    13   13    8 ar
    14   14    6 1
    15   15    3 1
    16   16    7 1
    17   17   16 1
    18   18   17 1
    19   19   18 1
    20   20   19 1
    21   21   16 1
    22   22   16 1
    23   23   22 1
    24   24   18 1
    25   25   20 1
    26   26    9 1
    27   27   11 1
    28   28   13 1
    29   29    6 1
    30   30    7 1
    31   31   10 1
    32   32   12 1
    33   33   26 1
    34   34   26 1
    35   35   26 1
    36   36   27 1
    37   37   27 1
    38   38   27 1
    39   39   28 1
    40   40   28 1
    41   41   28 1
    42   42   15 1
    43   43   15 1
    44   44   15 1
    45   45   17 1
    46   46   17 1
    47   47   18 1
    48   48   19 1
    49   49   19 1
    50   50   20 1
    51   51   21 1
    52   52   21 1
    53   53   22 1
    54   54   22 1
    55   55   23 1
    56   56   24 1
    57   57   24 1
    58   58   25 1
    59   59   25 1
    60   12   13 ar
    61   20   21 1
    62   23   24 1
    63   23   25 1
@<TRIPOS>SUBSTRUCTURE
     1 RES1 1

@<TRIPOS>CRYSIN
   6.4005    9.6092   16.9445  97.8100  93.9680  91.4590   2 1

