# MOL2 file generated by ConQuest
# Please check atom types

@<TRIPOS>MOLECULE
SEJDIV
    70    73     1
SMALL
NO_CHARGES
****
Generated from CSD

@<TRIPOS>ATOM
      1 O1         4.0728    6.9315    8.9090 O.3       1 RES1    0.0000
      2 O2         2.2938    8.7106   11.9311 O.2       1 RES1    0.0000
      3 O3         0.2948    8.8393   10.8994 O.3       1 RES1    0.0000
      4 N1         3.3258    5.8953    9.5143 N.2       1 RES1    0.0000
      5 C1         2.2220    6.3697    9.9693 C.2       1 RES1    0.0000
      6 C2         2.0601    7.8592    9.6982 C.3       1 RES1    0.0000
      7 C3         3.4824    8.2138    9.2730 C.3       1 RES1    0.0000
      8 C4         1.2825    5.5597   10.7491 C.ar      1 RES1    0.0000
      9 C5         0.0031    5.2751   10.2415 C.ar      1 RES1    0.0000
     10 C6        -0.8884    4.5481   11.0591 C.ar      1 RES1    0.0000
     11 C7        -0.5339    4.1294   12.3057 C.ar      1 RES1    0.0000
     12 C8         0.7249    4.4271   12.7990 C.ar      1 RES1    0.0000
     13 C9         1.6492    5.1280   12.0358 C.ar      1 RES1    0.0000
     14 C10        1.6010    8.5400   10.9734 C.2       1 RES1    0.0000
     15 C11       -0.3598    9.3250   12.1200 C.3       1 RES1    0.0000
     16 C12       -1.4185    8.3111   12.5036 C.3       1 RES1    0.0000
     17 C13       -2.1884    8.7807   13.7288 C.3       1 RES1    0.0000
     18 C14       -2.7789   10.1718   13.5183 C.3       1 RES1    0.0000
     19 C15       -1.7026   11.1692   13.0885 C.3       1 RES1    0.0000
     20 C16       -0.9548   10.6877   11.8322 C.3       1 RES1    0.0000
     21 C17        0.0657   11.7159   11.3778 C.ar      1 RES1    0.0000
     22 C18        3.6413    9.1958    8.1139 C.3       1 RES1    0.0000
     23 C19       -0.4018    5.7150    8.8593 C.3       1 RES1    0.0000
     24 C20       -1.5071    3.3420   13.1762 C.3       1 RES1    0.0000
     25 C21        3.0180    5.4103   12.5998 C.3       1 RES1    0.0000
     26 C22       -0.1421   12.4464   10.2225 C.ar      1 RES1    0.0000
     27 C23        0.7501   13.4165    9.8201 C.ar      1 RES1    0.0000
     28 C24        1.8684   13.6668   10.5328 C.ar      1 RES1    0.0000
     29 C25        2.1304   12.9505   11.6945 C.ar      1 RES1    0.0000
     30 C26        1.2183   11.9638   12.1223 C.ar      1 RES1    0.0000
     31 C27        5.1568    9.3618    7.8463 C.3       1 RES1    0.0000
     32 C28        2.9637    8.7072    6.8413 C.3       1 RES1    0.0000
     33 C29        3.0638   10.5418    8.5581 C.3       1 RES1    0.0000
     34 H1         1.3833    8.1296    9.0137 H         1 RES1    0.0000
     35 H2         3.9186    8.7024   10.0289 H         1 RES1    0.0000
     36 H3        -1.7996    4.3275   10.7120 H         1 RES1    0.0000
     37 H4         0.9770    4.1283   13.7195 H         1 RES1    0.0000
     38 H5         0.2796    9.4223   12.8823 H         1 RES1    0.0000
     39 H6        -0.9808    7.4335   12.7030 H         1 RES1    0.0000
     40 H7        -2.0563    8.1996   11.7410 H         1 RES1    0.0000
     41 H8        -1.5659    8.8056   14.5113 H         1 RES1    0.0000
     42 H9        -2.9309    8.1367   13.9142 H         1 RES1    0.0000
     43 H10       -3.1921   10.4849   14.3736 H         1 RES1    0.0000
     44 H11       -3.4801   10.1244   12.8069 H         1 RES1    0.0000
     45 H12       -1.0449   11.2783   13.8341 H         1 RES1    0.0000
     46 H13       -2.1342   12.0503   12.8925 H         1 RES1    0.0000
     47 H14       -1.5850   10.5904   11.0623 H         1 RES1    0.0000
     48 H15       -1.3413    5.4233    8.6791 H         1 RES1    0.0000
     49 H16       -0.3445    6.7112    8.7958 H         1 RES1    0.0000
     50 H17        0.2101    5.3012    8.1853 H         1 RES1    0.0000
     51 H18       -1.0763    3.1273   14.0505 H         1 RES1    0.0000
     52 H19       -2.3305    3.8875   13.3341 H         1 RES1    0.0000
     53 H20       -1.7546    2.4928   12.7083 H         1 RES1    0.0000
     54 H21        3.0860    5.0272   13.5212 H         1 RES1    0.0000
     55 H22        3.1654    6.3981   12.6384 H         1 RES1    0.0000
     56 H23        3.7115    4.9916   12.0132 H         1 RES1    0.0000
     57 H24       -0.9487   12.2650    9.6596 H         1 RES1    0.0000
     58 H25        0.5683   13.9467    8.9923 H         1 RES1    0.0000
     59 H26        2.5131   14.3677   10.2286 H         1 RES1    0.0000
     60 H27        2.9614   13.1248   12.2229 H         1 RES1    0.0000
     61 H28        1.3917   11.4491   12.9618 H         1 RES1    0.0000
     62 H29        3.1555   11.2012    7.8121 H         1 RES1    0.0000
     63 H30        3.5634   10.8727    9.3590 H         1 RES1    0.0000
     64 H31        2.0968   10.4327    8.7894 H         1 RES1    0.0000
     65 H32        3.0982    9.3832    6.1167 H         1 RES1    0.0000
     66 H33        1.9852    8.5850    7.0057 H         1 RES1    0.0000
     67 H34        3.3671    7.8355    6.5632 H         1 RES1    0.0000
     68 H35        5.2874    9.9987    7.0872 H         1 RES1    0.0000
     69 H36        5.6044    9.7212    8.6651 H         1 RES1    0.0000
     70 H37        5.5570    8.4759    7.6104 H         1 RES1    0.0000
@<TRIPOS>BOND
     1    1    4 1
     2    2   14 2
     3    3   14 1
     4    4    5 2
     5    5    6 1
     6    6    7 1
     7    7    1 1
     8    8    5 1
     9    9    8 ar
    10   10    9 ar
    11   11   10 ar
    12   12   11 ar
    13   13    8 ar
    14   14    6 1
    15   15    3 1
    16   16   15 1
    17   17   16 1
    18   18   17 1
    19   19   18 1
    20   20   15 1
    21   21   20 1
    22   22    7 1
    23   23    9 1
    24   24   11 1
    25   25   13 1
    26   26   21 ar
    27   27   26 ar
    28   28   27 ar
    29   29   28 ar
    30   30   21 ar
    31   31   22 1
    32   32   22 1
    33   33   22 1
    34   34    6 1
    35   35    7 1
    36   36   10 1
    37   37   12 1
    38   38   15 1
    39   39   16 1
    40   40   16 1
    41   41   17 1
    42   42   17 1
    43   43   18 1
    44   44   18 1
    45   45   19 1
    46   46   19 1
    47   47   20 1
    48   48   23 1
    49   49   23 1
    50   50   23 1
    51   51   24 1
    52   52   24 1
    53   53   24 1
    54   54   25 1
    55   55   25 1
    56   56   25 1
    57   57   26 1
    58   58   27 1
    59   59   28 1
    60   60   29 1
    61   61   30 1
    62   62   33 1
    63   63   33 1
    64   64   33 1
    65   65   32 1
    66   66   32 1
    67   67   32 1
    68   68   31 1
    69   69   31 1
    70   70   31 1
    71   12   13 ar
    72   19   20 1
    73   29   30 ar
@<TRIPOS>SUBSTRUCTURE
     1 RES1 1

@<TRIPOS>CRYSIN
   7.6385   11.8594   29.2414  90.0000  90.0000  90.0000  19 1

