# MOL2 file generated by ConQuest
# Please check atom types

@<TRIPOS>MOLECULE
SEJNEA
    36    36     1
SMALL
NO_CHARGES
****
Generated from CSD

@<TRIPOS>ATOM
      1 C1         7.3746    0.3701    1.2275 C.ar      1 RES1    0.0000
      2 C2         6.6768    1.1888    0.2903 C.ar      1 RES1    0.0000
      3 C3         6.7033    0.9614   -1.0738 C.ar      1 RES1    0.0000
      4 C4         7.3499   -0.1415   -1.5584 C.ar      1 RES1    0.0000
      5 C5         7.9227   -1.0485   -0.6810 C.ar      1 RES1    0.0000
      6 C6         7.9241   -0.7997    0.6597 C.ar      1 RES1    0.0000
      7 C7         7.8337   -0.3941    3.5503 C.3       1 RES1    0.0000
      8 C8         7.6240    2.0491    3.0422 C.3       1 RES1    0.0000
      9 C9         6.6151    2.3523    4.1523 C.3       1 RES1    0.0000
     10 C10        9.0473    2.3662    3.5033 C.3       1 RES1    0.0000
     11 C11        6.7456   -1.4705    3.5737 C.3       1 RES1    0.0000
     12 C12        9.2478   -0.9904    3.5097 C.3       1 RES1    0.0000
     13 N1         7.5378    0.6557    2.5469 N.3       1 RES1    0.0000
     14 N2         5.7519    2.2550    0.6874 N.pl3     1 RES1    0.0000
     15 N3         7.3458   -0.3929   -2.9867 N.pl3     1 RES1    0.0000
     16 O1         5.0457    2.0705    1.6673 O.2       1 RES1    0.0000
     17 O2         5.6763    3.2555   -0.0192 O.2       1 RES1    0.0000
     18 O3         6.8714    0.4611   -3.7189 O.2       1 RES1    0.0000
     19 O4         7.8157   -1.4414   -3.3901 O.2       1 RES1    0.0000
     20 H1         6.1800    1.6713   -1.7079 H         1 RES1    0.0000
     21 H2         8.3803   -1.9354   -1.0888 H         1 RES1    0.0000
     22 H3         8.4142   -1.5096    1.2745 H         1 RES1    0.0000
     23 H4         7.7914    0.1958    4.4554 H         1 RES1    0.0000
     24 H5         7.4045    2.6959    2.2053 H         1 RES1    0.0000
     25 H6         6.5540    3.4096    4.2676 H         1 RES1    0.0000
     26 H7         6.9647    1.8836    5.0511 H         1 RES1    0.0000
     27 H8         5.6354    1.9505    3.8940 H         1 RES1    0.0000
     28 H9         9.0646    3.4235    3.7296 H         1 RES1    0.0000
     29 H10        9.8038    2.1438    2.7646 H         1 RES1    0.0000
     30 H11        9.2244    1.7964    4.3935 H         1 RES1    0.0000
     31 H12        6.9508   -2.1640    4.3700 H         1 RES1    0.0000
     32 H13        6.7403   -2.0162    2.6237 H         1 RES1    0.0000
     33 H14        5.7666   -1.0321    3.7168 H         1 RES1    0.0000
     34 H15        9.9593   -0.3196    3.0528 H         1 RES1    0.0000
     35 H16        9.2197   -1.9190    2.9546 H         1 RES1    0.0000
     36 H17        9.5578   -1.1976    4.5302 H         1 RES1    0.0000
@<TRIPOS>BOND
     1    1    2 ar
     2    2    3 ar
     3    3    4 ar
     4    4    5 ar
     5    5    6 ar
     6    6    1 ar
     7    7   11 1
     8    8    9 1
     9    9   25 1
    10   10    8 1
    11   11   31 1
    12   12    7 1
    13   13    1 1
    14   14    2 1
    15   15    4 1
    16   16   14 2
    17   17   14 2
    18   18   15 2
    19   19   15 2
    20   20    3 1
    21   21    5 1
    22   22    6 1
    23   23    7 1
    24   24    8 1
    25   26    9 1
    26   27    9 1
    27   28   10 1
    28   29   10 1
    29   30   10 1
    30   32   11 1
    31   33   11 1
    32   34   12 1
    33   35   12 1
    34   36   12 1
    35    7   13 1
    36    8   13 1
@<TRIPOS>SUBSTRUCTURE
     1 RES1 1

@<TRIPOS>CRYSIN
  10.0590   12.6330   21.3800  90.0000  86.8900  90.0000  15 1

