# MOL2 file generated by ConQuest
# Please check atom types

@<TRIPOS>MOLECULE
SEKCAN
    92    96     2
SMALL
NO_CHARGES
****
Generated from CSD

@<TRIPOS>ATOM
      1 O1         6.7749   10.2094    5.6886 O.3       1 RES1    0.0000
      2 O2         6.8070    3.2592   10.7122 O.3       2 RES2    0.0000
      3 O3         8.2193   -0.2158   11.9795 O.3       2 RES2    0.0000
      4 H1         8.9327    0.0577   12.2767 H         2 RES2    0.0000
      5 O4         5.3660    6.7794    7.4180 O.3       1 RES1    0.0000
      6 H2         4.6351    7.0320    7.6933 H         1 RES1    0.0000
      7 O5         6.3670   -1.8377   10.6464 O.3       2 RES2    0.0000
      8 O6         2.8930    6.7175    6.0559 O.3       1 RES1    0.0000
      9 O7         3.2303    9.1016    4.6542 O.3       1 RES1    0.0000
     10 O8         4.9556    0.2017    9.3603 O.3       2 RES2    0.0000
     11 O9         1.5221    6.9225    4.1929 O.3       1 RES1    0.0000
     12 O10        5.1093   -2.5622    8.8218 O.3       2 RES2    0.0000
     13 O11        2.1489    9.3652    6.6994 O.3       1 RES1    0.0000
     14 O12        4.0100   -0.4164   11.3995 O.3       2 RES2    0.0000
     15 N1         5.9813   10.1299    4.4803 N.3       1 RES1    0.0000
     16 N2         6.2425    2.8457    9.4497 N.3       2 RES2    0.0000
     17 C1         6.8502   10.5434    3.3858 C.3       1 RES1    0.0000
     18 H3         7.0722   11.4706    3.4877 H         1 RES1    0.0000
     19 H4         6.3962   10.4114    2.5505 H         1 RES1    0.0000
     20 H5         7.6529   10.0183    3.4000 H         1 RES1    0.0000
     21 C2         6.5579    3.8589    8.4447 C.3       2 RES2    0.0000
     22 H6         6.1078    4.6784    8.6638 H         2 RES2    0.0000
     23 H7         6.2666    3.5554    7.5827 H         2 RES2    0.0000
     24 H8         7.5062    4.0076    8.4280 H         2 RES2    0.0000
     25 C3         5.6015    8.7221    4.4023 C.3       1 RES1    0.0000
     26 H9         5.4378    8.4629    3.4710 H         1 RES1    0.0000
     27 C4         6.9015    1.5765    9.1825 C.3       2 RES2    0.0000
     28 H10        6.8814    1.3779    8.2234 H         2 RES2    0.0000
     29 C5         8.3541    1.7930    9.6544 C.3       2 RES2    0.0000
     30 H11        8.8192    2.2899    8.9498 H         2 RES2    0.0000
     31 C6         6.8100    7.9669    4.9654 C.3       1 RES1    0.0000
     32 H12        7.5102    7.9652    4.2808 H         1 RES1    0.0000
     33 C7         8.1562    2.7415   10.8159 C.3       2 RES2    0.0000
     34 H13        8.2737    2.2732   11.6568 H         2 RES2    0.0000
     35 H14        8.7991    3.4659   10.7740 H         2 RES2    0.0000
     36 C8         7.2380    8.9121    6.0662 C.3       1 RES1    0.0000
     37 H15        6.8462    8.6450    6.9127 H         1 RES1    0.0000
     38 H16        8.2034    8.9106    6.1572 H         1 RES1    0.0000
     39 C9         6.2314    0.4694    9.9641 C.3       2 RES2    0.0000
     40 H17        6.1008    0.7557   10.8929 H         2 RES2    0.0000
     41 C10        4.3679    8.4584    5.2534 C.3       1 RES1    0.0000
     42 H18        4.5096    8.8195    6.1530 H         1 RES1    0.0000
     43 C11        7.0522   -0.7920    9.9385 C.3       2 RES2    0.0000
     44 H19        7.1978   -1.0683    9.0103 H         2 RES2    0.0000
     45 C12        4.1148    6.9679    5.3432 C.3       1 RES1    0.0000
     46 H20        4.0495    6.5919    4.4415 H         1 RES1    0.0000
     47 C13        8.3872   -0.5924   10.6193 C.3       2 RES2    0.0000
     48 H21        8.8996   -1.4264   10.5757 H         2 RES2    0.0000
     49 C14        5.2278    6.2802    6.0966 C.3       1 RES1    0.0000
     50 H22        5.0430    5.3187    6.1342 H         1 RES1    0.0000
     51 C15        6.5298    6.5037    5.3615 C.3       1 RES1    0.0000
     52 H23        6.5258    5.9621    4.5563 H         1 RES1    0.0000
     53 H24        7.2571    6.1913    5.9213 H         1 RES1    0.0000
     54 C16        9.1567    0.5040    9.9088 C.3       2 RES2    0.0000
     55 H25        9.4682    0.1609    9.0562 H         2 RES2    0.0000
     56 H26        9.9383    0.7254   10.4379 H         2 RES2    0.0000
     57 C17        5.0601   -2.1087   10.1503 C.3       2 RES2    0.0000
     58 C18        1.7610    7.3653    5.5118 C.3       1 RES1    0.0000
     59 C19        4.2233   -0.7982   10.0627 C.3       2 RES2    0.0000
     60 C20        2.0343    8.8878    5.3701 C.3       1 RES1    0.0000
     61 C21        0.6198    7.0304    6.4583 C.3       1 RES1    0.0000
     62 H27        0.5023    6.0775    6.4932 H         1 RES1    0.0000
     63 H28       -0.1889    7.4402    6.1425 H         1 RES1    0.0000
     64 H29        0.8238    7.3612    7.3364 H         1 RES1    0.0000
     65 C22        4.4875   -3.1321   11.1152 C.3       2 RES2    0.0000
     66 H30        5.0510   -3.9090   11.1288 H         2 RES2    0.0000
     67 H31        3.6054   -3.3809   10.8324 H         2 RES2    0.0000
     68 H32        4.4453   -2.7512   11.9971 H         2 RES2    0.0000
     69 C23        1.2718    5.5448    4.0188 C.3       1 RES1    0.0000
     70 H33        1.1332    5.3597    3.0869 H         1 RES1    0.0000
     71 H34        0.4882    5.2960    4.5145 H         1 RES1    0.0000
     72 H35        2.0242    5.0410    4.3371 H         1 RES1    0.0000
     73 C24        5.8286   -3.7755    8.5943 C.3       2 RES2    0.0000
     74 H36        5.8014   -3.9940    7.6599 H         2 RES2    0.0000
     75 H37        5.4257   -4.4856    9.1001 H         2 RES2    0.0000
     76 H38        6.7407   -3.6632    8.8705 H         2 RES2    0.0000
     77 C25        2.9294   -0.9681    9.2854 C.3       2 RES2    0.0000
     78 H39        2.4582   -0.1320    9.2629 H         2 RES2    0.0000
     79 H40        2.3829   -1.6313    9.7137 H         2 RES2    0.0000
     80 H41        3.1283   -1.2489    8.3883 H         2 RES2    0.0000
     81 C26        0.9453    9.6147    4.5966 C.3       1 RES1    0.0000
     82 H42        1.1653   10.5479    4.5354 H         1 RES1    0.0000
     83 H43        0.1065    9.5130    5.0510 H         1 RES1    0.0000
     84 H44        0.8780    9.2444    3.7131 H         1 RES1    0.0000
     85 C27        3.3613    0.8483   11.5827 C.3       2 RES2    0.0000
     86 H45        3.2599    1.0243   12.5209 H         2 RES2    0.0000
     87 H46        2.4964    0.8285   11.1664 H         2 RES2    0.0000
     88 H47        3.8917    1.5417   11.1831 H         2 RES2    0.0000
     89 C28        2.4904   10.7513    6.8434 C.3       1 RES1    0.0000
     90 H48        2.5436   10.9728    7.7768 H         1 RES1    0.0000
     91 H49        1.8163   11.2930    6.4243 H         1 RES1    0.0000
     92 H50        3.3392   10.9182    6.4264 H         1 RES1    0.0000
@<TRIPOS>BOND
     1    1   15 1
     2    2   16 1
     3    3    4 1
     4    5    6 1
     5    7   43 1
     6    8   45 1
     7    9   41 1
     8   10   39 1
     9   11   58 1
    10   12   57 1
    11   13   60 1
    12   14   59 1
    13   15   17 1
    14   16   21 1
    15   17   18 1
    16   19   17 1
    17   20   17 1
    18   21   22 1
    19   23   21 1
    20   24   21 1
    21   25   15 1
    22   26   25 1
    23   27   16 1
    24   28   27 1
    25   29   27 1
    26   30   29 1
    27   31   25 1
    28   32   31 1
    29   33    2 1
    30   34   33 1
    31   35   33 1
    32   36    1 1
    33   37   36 1
    34   38   36 1
    35   39   27 1
    36   40   39 1
    37   41   25 1
    38   42   41 1
    39   43   39 1
    40   44   43 1
    41   45   41 1
    42   46   45 1
    43   47    3 1
    44   48   47 1
    45   49    5 1
    46   50   49 1
    47   51   31 1
    48   52   51 1
    49   53   51 1
    50   54   29 1
    51   55   54 1
    52   56   54 1
    53   57    7 1
    54   58    8 1
    55   59   10 1
    56   60    9 1
    57   61   58 1
    58   62   61 1
    59   63   61 1
    60   64   61 1
    61   65   57 1
    62   66   65 1
    63   67   65 1
    64   68   65 1
    65   69   11 1
    66   70   69 1
    67   71   69 1
    68   72   69 1
    69   73   12 1
    70   74   73 1
    71   75   73 1
    72   76   73 1
    73   77   59 1
    74   78   77 1
    75   79   77 1
    76   80   77 1
    77   81   60 1
    78   82   81 1
    79   83   81 1
    80   84   81 1
    81   85   14 1
    82   86   85 1
    83   87   85 1
    84   88   85 1
    85   89   13 1
    86   90   89 1
    87   91   89 1
    88   92   89 1
    89   29   33 1
    90   31   36 1
    91   43   47 1
    92   45   49 1
    93   47   54 1
    94   49   51 1
    95   57   59 1
    96   58   60 1
@<TRIPOS>SUBSTRUCTURE
     1 RES1 1
     2 RES2 2

@<TRIPOS>CRYSIN
  10.0458   15.1747   20.8717  90.0000  90.0000  90.0000  19 1

