# MOL2 file generated by ConQuest
# Please check atom types

@<TRIPOS>MOLECULE
SEKCIV
    92    96     2
SMALL
NO_CHARGES
****
Generated from CSD

@<TRIPOS>ATOM
      1 N1         6.9837    2.0806   14.5697 N.3       1 RES1    0.0000
      2 N2        -1.3575    6.7005   12.2199 N.3       2 RES2    0.0000
      3 O1         6.3313    3.3013   14.1218 O.3       1 RES1    0.0000
      4 O2        -0.9059    7.8243   13.0166 O.3       2 RES2    0.0000
      5 O3         2.3242    3.3982   15.4081 O.3       1 RES1    0.0000
      6 H1         1.9722    2.9876   16.0231 H         1 RES1    0.0000
      7 O4         3.2375    7.9747   13.1006 O.3       2 RES2    0.0000
      8 H2         3.7941    7.6093   12.6214 H         2 RES2    0.0000
      9 O5         3.3805    1.4869   16.8545 O.3       1 RES1    0.0000
     10 O6         2.7711    6.3160   11.1964 O.3       2 RES2    0.0000
     11 O7         5.7473    0.1534   16.3643 O.3       1 RES1    0.0000
     12 O8         0.4278    4.9466   10.6997 O.3       2 RES2    0.0000
     13 O9         4.9516    1.7845   18.5561 O.3       1 RES1    0.0000
     14 O10        1.8156    6.8177    9.1310 O.3       2 RES2    0.0000
     15 O11        3.9950   -1.2609   16.9870 O.3       1 RES1    0.0000
     16 O12        2.3316    3.6104   10.5464 O.3       2 RES2    0.0000
     17 C1        -2.7970    6.5916   12.4283 C.3       2 RES2    0.0000
     18 H3        -3.2329    7.3685   12.0702 H         2 RES2    0.0000
     19 H4        -2.9804    6.5270   13.3696 H         2 RES2    0.0000
     20 H5        -3.1260    5.8064   11.9826 H         2 RES2    0.0000
     21 C2         8.2509    1.9921   13.8579 C.3       1 RES1    0.0000
     22 H6         8.8278    2.7035   14.1434 H         1 RES1    0.0000
     23 H7         8.0933    2.0650   12.9133 H         1 RES1    0.0000
     24 H8         8.6656    1.1478   14.0485 H         1 RES1    0.0000
     25 C3         6.0465    1.0186   14.1890 C.3       1 RES1    0.0000
     26 H9         6.5469    0.1947   14.0083 H         1 RES1    0.0000
     27 C4        -0.6119    5.5527   12.7414 C.3       2 RES2    0.0000
     28 H10       -1.1437    4.7380   12.6250 H         2 RES2    0.0000
     29 C5         5.4005    1.5077   12.8933 C.3       1 RES1    0.0000
     30 H11        5.9626    1.3240   12.1250 H         1 RES1    0.0000
     31 H12        4.5286    1.1054   12.7564 H         1 RES1    0.0000
     32 C6        -0.4497    5.8461   14.2332 C.3       2 RES2    0.0000
     33 H13       -1.2414    5.5905   14.7310 H         2 RES2    0.0000
     34 H14        0.3226    5.3885   14.6032 H         2 RES2    0.0000
     35 C7         5.2899    3.0052   13.1612 C.3       1 RES1    0.0000
     36 H15        5.4677    3.4951   12.3330 H         1 RES1    0.0000
     37 C8        -0.2544    7.3556   14.2375 C.3       2 RES2    0.0000
     38 H16       -0.7124    7.7385   15.0157 H         2 RES2    0.0000
     39 C9         3.9683    3.4748   13.7470 C.3       1 RES1    0.0000
     40 H17        3.3472    3.6086   13.0155 H         1 RES1    0.0000
     41 H18        4.1149    4.3403   14.1616 H         1 RES1    0.0000
     42 C10        1.1741    7.8474   14.2087 C.3       2 RES2    0.0000
     43 H19        1.5188    7.8225   15.1142 H         2 RES2    0.0000
     44 H20        1.1667    8.7765   13.9280 H         2 RES2    0.0000
     45 C11        3.2937    2.5678   14.7774 C.3       1 RES1    0.0000
     46 H21        2.8302    1.8444   14.3040 H         1 RES1    0.0000
     47 C12        2.1491    7.0954   13.3134 C.3       2 RES2    0.0000
     48 H22        2.4735    6.3074   13.7966 H         2 RES2    0.0000
     49 C13        4.2466    1.9533   15.8041 C.3       1 RES1    0.0000
     50 H23        4.8641    2.6324   16.1472 H         1 RES1    0.0000
     51 C14        1.5870    6.6415   11.9596 C.3       2 RES2    0.0000
     52 H24        1.0939    7.3731   11.5300 H         2 RES2    0.0000
     53 C15        5.0152    0.7538   15.2799 C.3       1 RES1    0.0000
     54 H25        4.3701    0.0969   14.9427 H         1 RES1    0.0000
     55 C16        0.7253    5.3931   12.0323 C.3       2 RES2    0.0000
     56 H26        1.2358    4.6909   12.4863 H         2 RES2    0.0000
     57 C17        4.0513    0.8793   17.9517 C.3       1 RES1    0.0000
     58 C18        2.5196    5.8507    9.8781 C.3       2 RES2    0.0000
     59 C19        4.9240   -0.2953   17.4308 C.3       1 RES1    0.0000
     60 C20        1.5741    4.6365    9.9212 C.3       2 RES2    0.0000
     61 C21        2.9537    0.4235   18.9105 C.3       1 RES1    0.0000
     62 H27        2.4523    1.1856   19.2094 H         1 RES1    0.0000
     63 H28        3.3509   -0.0148   19.6657 H         1 RES1    0.0000
     64 H29        2.3666   -0.1873   18.4575 H         1 RES1    0.0000
     65 C22        3.8937    5.5324    9.3156 C.3       2 RES2    0.0000
     66 H30        4.4328    6.3268    9.3182 H         2 RES2    0.0000
     67 H31        3.8043    5.2104    8.4167 H         2 RES2    0.0000
     68 H32        4.3130    4.8598    9.8547 H         2 RES2    0.0000
     69 C23        4.3876    3.0310   18.9795 C.3       1 RES1    0.0000
     70 H33        5.0724    3.5745   19.3773 H         1 RES1    0.0000
     71 H34        3.6965    2.8668   19.6255 H         1 RES1    0.0000
     72 H35        4.0153    3.4877   18.2203 H         1 RES1    0.0000
     73 C24        2.4597    8.0744    8.9477 C.3       2 RES2    0.0000
     74 H36        1.8938    8.6510    8.4276 H         2 RES2    0.0000
     75 H37        3.2910    7.9434    8.4860 H         2 RES2    0.0000
     76 H38        2.6274    8.4757    9.8036 H         2 RES2    0.0000
     77 C25        5.8797   -0.8498   18.4824 C.3       1 RES1    0.0000
     78 H39        6.3875   -1.5722   18.1035 H         1 RES1    0.0000
     79 H40        5.3774   -1.1718   19.2350 H         1 RES1    0.0000
     80 H41        6.4778   -0.1559   18.7714 H         1 RES1    0.0000
     81 C26        1.0552    4.2379    8.5503 C.3       2 RES2    0.0000
     82 H42        0.4709    3.4813    8.6357 H         2 RES2    0.0000
     83 H43        1.7943    4.0072    7.9823 H         2 RES2    0.0000
     84 H44        0.5723    4.9723    8.1648 H         2 RES2    0.0000
     85 C27        4.5379   -2.4350   16.4005 C.3       1 RES1    0.0000
     86 H45        3.8236   -3.0199   16.1362 H         1 RES1    0.0000
     87 H46        5.0982   -2.8815   17.0377 H         1 RES1    0.0000
     88 H47        5.0576   -2.1960   15.6289 H         1 RES1    0.0000
     89 C28        1.6773    2.3658   10.6906 C.3       2 RES2    0.0000
     90 H48        2.2662    1.7420   11.1212 H         2 RES2    0.0000
     91 H49        1.4331    2.0299    9.8255 H         2 RES2    0.0000
     92 H50        0.8866    2.4792   11.2234 H         2 RES2    0.0000
@<TRIPOS>BOND
     1    1    3 1
     2    2    4 1
     3    3   35 1
     4    4   37 1
     5    5    6 1
     6    7    8 1
     7    9   49 1
     8   10   51 1
     9   11   53 1
    10   12   55 1
    11   13   57 1
    12   14   58 1
    13   15   59 1
    14   16   60 1
    15   17    2 1
    16   18   17 1
    17   19   17 1
    18   20   17 1
    19   21    1 1
    20   22   21 1
    21   23   21 1
    22   24   21 1
    23   25    1 1
    24   26   25 1
    25   27    2 1
    26   28   27 1
    27   29   25 1
    28   30   29 1
    29   31   29 1
    30   32   27 1
    31   33   32 1
    32   34   32 1
    33   35   29 1
    34   36   35 1
    35   37   32 1
    36   38   37 1
    37   39   35 1
    38   40   39 1
    39   41   39 1
    40   42   37 1
    41   43   42 1
    42   44   42 1
    43   45    5 1
    44   46   45 1
    45   47    7 1
    46   48   47 1
    47   49   45 1
    48   50   49 1
    49   51   47 1
    50   52   51 1
    51   53   25 1
    52   54   53 1
    53   55   27 1
    54   56   55 1
    55   57    9 1
    56   58   10 1
    57   59   11 1
    58   60   12 1
    59   61   57 1
    60   62   61 1
    61   63   61 1
    62   64   61 1
    63   65   58 1
    64   66   65 1
    65   67   65 1
    66   68   65 1
    67   69   13 1
    68   70   69 1
    69   71   69 1
    70   72   69 1
    71   73   14 1
    72   74   73 1
    73   75   73 1
    74   76   73 1
    75   77   59 1
    76   78   77 1
    77   79   77 1
    78   80   77 1
    79   81   60 1
    80   82   81 1
    81   83   81 1
    82   84   81 1
    83   85   15 1
    84   86   85 1
    85   87   85 1
    86   88   85 1
    87   89   16 1
    88   90   89 1
    89   91   89 1
    90   92   89 1
    91   39   45 1
    92   42   47 1
    93   49   53 1
    94   51   55 1
    95   57   59 1
    96   58   60 1
@<TRIPOS>SUBSTRUCTURE
     1 RES1 1
     2 RES2 2

@<TRIPOS>CRYSIN
   9.2158    9.2268   36.4990  90.0000  90.0000  90.0000  19 1

