# MOL2 file generated by ConQuest
# Please check atom types

@<TRIPOS>MOLECULE
SEKCIX
    62    64     1
SMALL
NO_CHARGES
****
Generated from CSD

@<TRIPOS>ATOM
      1 N1         4.2761   10.8369    6.4716 N.pl3     1 RES1    0.0000
      2 O1         4.6369   17.3365    3.8817 O.2       1 RES1    0.0000
      3 O2         3.5664   15.8720    2.6007 O.3       1 RES1    0.0000
      4 C1         4.1999    9.4206    6.7617 C.ar      1 RES1    0.0000
      5 C2         4.0814   11.4368    5.2543 C.2       1 RES1    0.0000
      6 O3         3.9632    5.3938    7.6166 O.3       1 RES1    0.0000
      7 C3         4.6906   11.8086    7.3914 C.2       1 RES1    0.0000
      8 C4         4.1281   13.8432    4.4163 C.2       1 RES1    0.0000
      9 H1         3.7250   13.6120    3.6108 H         1 RES1    0.0000
     10 C5         4.4893   15.0979    4.5873 C.2       1 RES1    0.0000
     11 H2         4.9449   15.2954    5.3735 H         1 RES1    0.0000
     12 O4         6.2126   13.1010   11.6874 O.3       1 RES1    0.0000
     13 C6         4.9730   11.5375    8.7761 C.2       1 RES1    0.0000
     14 H3         4.8022   10.6819    9.0963 H         1 RES1    0.0000
     15 C7         3.2868    7.5956    7.9621 C.ar      1 RES1    0.0000
     16 H4         2.7091    7.2628    8.6111 H         1 RES1    0.0000
     17 C8         4.2540   16.2094    3.6807 C.2       1 RES1    0.0000
     18 C9         4.3204   12.7951    5.4096 C.2       1 RES1    0.0000
     19 C10        2.5786    9.7993    4.1141 C.ar      1 RES1    0.0000
     20 H5         2.2122    9.5639    4.9365 H         1 RES1    0.0000
     21 C11        5.0497    8.5715    6.0694 C.ar      1 RES1    0.0000
     22 H6         5.6511    8.9113    5.4458 H         1 RES1    0.0000
     23 C12        4.6907   13.0045    6.7341 C.2       1 RES1    0.0000
     24 H7         4.9039   13.8271    7.1109 H         1 RES1    0.0000
     25 C13        3.3216    8.9430    7.6937 C.ar      1 RES1    0.0000
     26 H8         2.7520    9.5253    8.1427 H         1 RES1    0.0000
     27 C14        4.9878    7.2027    6.3211 C.ar      1 RES1    0.0000
     28 H9         5.5353    6.6140    5.8527 H         1 RES1    0.0000
     29 C15        2.0925    9.2247    2.9571 C.ar      1 RES1    0.0000
     30 H10        1.3873    8.6195    2.9848 H         1 RES1    0.0000
     31 C16        3.6106   10.7276    4.0599 C.ar      1 RES1    0.0000
     32 C17        4.1175    6.7334    7.2626 C.ar      1 RES1    0.0000
     33 C18        2.6755    9.5681    1.7747 C.ar      1 RES1    0.0000
     34 C19        5.5633   12.1113   11.0577 C.2       1 RES1    0.0000
     35 C20        4.1787   11.0258    2.8318 C.ar      1 RES1    0.0000
     36 H11        4.8978   11.6139    2.7909 H         1 RES1    0.0000
     37 C21        5.4587   12.4280    9.6165 C.2       1 RES1    0.0000
     38 H12        5.7371   13.2579    9.3034 H         1 RES1    0.0000
     39 C22        3.2899   16.9214    1.6338 C.3       1 RES1    0.0000
     40 H13        4.0000   17.5808    1.6676 H         1 RES1    0.0000
     41 H14        3.2792   16.5390    0.7429 H         1 RES1    0.0000
     42 O5         5.1814   11.1425   11.5814 O.2       1 RES1    0.0000
     43 C23        4.8928    4.5085    7.0615 C.3       1 RES1    0.0000
     44 H15        5.7665    4.7032    7.4083 H         1 RES1    0.0000
     45 H16        4.8982    4.6068    6.1068 H         1 RES1    0.0000
     46 H17        4.6519    3.6070    7.2891 H         1 RES1    0.0000
     47 N2         2.1266    8.9849    0.5418 N.pl3     1 RES1    0.0000
     48 O6         2.5591    9.3185   -0.5346 O.2       1 RES1    0.0000
     49 C24        3.6974   10.4657    1.6784 C.ar      1 RES1    0.0000
     50 H18        4.0588   10.6913    0.8512 H         1 RES1    0.0000
     51 C25        2.0212   17.5717    1.8903 C.3       1 RES1    0.0000
     52 H19        2.0862   18.0958    2.6910 H         1 RES1    0.0000
     53 H20        1.3369   16.9065    1.9975 H         1 RES1    0.0000
     54 H21        1.7996   18.1418    1.1510 H         1 RES1    0.0000
     55 O7         1.1652    8.1534    0.6791 O.2       1 RES1    0.0000
     56 C26        6.9506   14.1251   13.6656 C.3       1 RES1    0.0000
     57 H22        6.4740   14.8981   13.3537 H         1 RES1    0.0000
     58 H23        7.8611   14.1688   13.3670 H         1 RES1    0.0000
     59 H24        6.9299   14.1026   14.6252 H         1 RES1    0.0000
     60 C27        6.3357   12.9475   13.1502 C.3       1 RES1    0.0000
     61 H25        5.4588   12.8275   13.5476 H         1 RES1    0.0000
     62 H26        6.8772   12.1704   13.3597 H         1 RES1    0.0000
@<TRIPOS>BOND
     1    1    4 1
     2    2   17 2
     3    3   17 1
     4    4   21 ar
     5    5    1 1
     6    6   32 1
     7    7    1 1
     8    8    9 1
     9   10    8 2
    10   11   10 1
    11   12   34 1
    12   13    7 1
    13   14   13 1
    14   15   16 1
    15   17   10 1
    16   18    5 2
    17   19   20 1
    18   21   22 1
    19   23    7 2
    20   24   23 1
    21   25    4 ar
    22   26   25 1
    23   27   21 ar
    24   28   27 1
    25   29   19 ar
    26   30   29 1
    27   31    5 1
    28   32   15 ar
    29   33   29 ar
    30   34   37 1
    31   35   31 ar
    32   36   35 1
    33   37   13 2
    34   38   37 1
    35   39    3 1
    36   40   39 1
    37   41   39 1
    38   42   34 2
    39   43    6 1
    40   44   43 1
    41   45   43 1
    42   46   43 1
    43   47   33 1
    44   48   47 2
    45   49   33 ar
    46   50   49 1
    47   51   39 1
    48   52   51 1
    49   53   51 1
    50   54   51 1
    51   55   47 2
    52   56   57 1
    53   58   56 1
    54   59   56 1
    55   60   12 1
    56   61   60 1
    57   62   60 1
    58    8   18 1
    59   15   25 ar
    60   18   23 1
    61   19   31 ar
    62   27   32 ar
    63   35   49 ar
    64   56   60 1
@<TRIPOS>SUBSTRUCTURE
     1 RES1 1

@<TRIPOS>CRYSIN
   9.3368   11.6923   12.0811  94.3710  90.7210 103.3280   2 1

