# MOL2 file generated by ConQuest
# Please check atom types

@<TRIPOS>MOLECULE
SEKGUL
    64    62     2
SMALL
NO_CHARGES
****
Generated from CSD

@<TRIPOS>ATOM
      1 O1         7.3226    3.9550    5.7036 O.2       1 RES1    0.0000
      2 O2         8.9271    2.5262    5.7352 O.2       1 RES1    0.0000
      3 O3         5.2080   -0.1334    1.9744 O.2       1 RES1    0.0000
      4 N1         7.7779    2.8400    5.6038 N.pl3     1 RES1    0.0000
      5 N2         5.9598    1.9922    2.1235 N.am      1 RES1    0.0000
      6 H1         5.7112    2.8316    2.0457 H         1 RES1    0.0000
      7 C1         6.8021    1.6829    5.2129 C.3       1 RES1    0.0000
      8 C2         7.3392    1.0179    3.9522 C.3       1 RES1    0.0000
      9 H2         6.8352    0.2042    3.8603 H         1 RES1    0.0000
     10 H3         8.2767    0.7526    4.1316 H         1 RES1    0.0000
     11 C3         7.3305    1.7200    2.5901 C.3       1 RES1    0.0000
     12 C4         5.4176    2.2581    5.0949 C.3       1 RES1    0.0000
     13 H4         5.1911    2.5428    5.8285 H         1 RES1    0.0000
     14 H5         4.8169    1.4548    4.8236 H         1 RES1    0.0000
     15 H6         5.4036    3.0712    4.4073 H         1 RES1    0.0000
     16 C5         6.9056    0.6853    6.3784 C.3       1 RES1    0.0000
     17 H7         6.2380   -0.0712    6.1587 H         1 RES1    0.0000
     18 H8         7.8452    0.4454    6.4458 H         1 RES1    0.0000
     19 H9         6.6012    1.0047    7.1780 H         1 RES1    0.0000
     20 C6         8.0502    3.0641    2.5898 C.3       1 RES1    0.0000
     21 H10        8.9336    2.9582    2.8640 H         1 RES1    0.0000
     22 H11        7.6294    3.6919    3.1325 H         1 RES1    0.0000
     23 H12        8.1427    3.4442    1.5806 H         1 RES1    0.0000
     24 C7         8.0320    0.8114    1.5677 C.3       1 RES1    0.0000
     25 H13        7.5960   -0.0432    1.5461 H         1 RES1    0.0000
     26 H14        8.9011    0.7279    1.7658 H         1 RES1    0.0000
     27 H15        8.0539    1.2571    0.6317 H         1 RES1    0.0000
     28 C8         5.0193    1.0822    1.8815 C.2       1 RES1    0.0000
     29 C9         3.6740    1.6226    1.4700 C.3       1 RES1    0.0000
     30 H16        3.2333    1.1045    0.8470 H         1 RES1    0.0000
     31 H17        3.7208    2.5798    1.2203 H         1 RES1    0.0000
     32 H18        3.1699    1.5345    2.2395 H         1 RES1    0.0000
     33 O4         1.9799    8.8095    5.5098 O.2       2 RES2    0.0000
     34 O5         0.4912    7.3302    5.0203 O.2       2 RES2    0.0000
     35 O6         4.9653    4.7244    2.2303 O.2       2 RES2    0.0000
     36 N3         1.6454    7.7057    5.2256 N.pl3     2 RES2    0.0000
     37 N4         4.1512    6.8297    2.1303 N.am      2 RES2    0.0000
     38 H19        4.3725    7.6174    2.0543 H         2 RES2    0.0000
     39 C10        2.7523    6.6227    5.0387 C.3       2 RES2    0.0000
     40 C11        2.4966    5.8877    3.7310 C.3       2 RES2    0.0000
     41 H20        1.5703    5.5792    3.7196 H         2 RES2    0.0000
     42 H21        3.0493    5.1335    3.7670 H         2 RES2    0.0000
     43 C12        2.7232    6.5394    2.3618 C.3       2 RES2    0.0000
     44 C13        4.1093    7.2812    5.1452 C.3       2 RES2    0.0000
     45 H22        4.1649    7.6441    5.9290 H         2 RES2    0.0000
     46 H23        4.7715    6.4346    4.9528 H         2 RES2    0.0000
     47 H24        4.1443    8.0265    4.5078 H         2 RES2    0.0000
     48 C14        2.5190    5.6622    6.2147 C.3       2 RES2    0.0000
     49 H25        1.6183    5.1802    6.0008 H         2 RES2    0.0000
     50 H26        2.6137    6.1879    7.0201 H         2 RES2    0.0000
     51 H27        3.2541    5.0761    6.1587 H         2 RES2    0.0000
     52 C15        1.9889    7.8611    2.1979 C.3       2 RES2    0.0000
     53 H28        2.3071    8.4952    2.7434 H         2 RES2    0.0000
     54 H29        2.1157    8.2747    1.2619 H         2 RES2    0.0000
     55 H30        1.0189    7.7690    2.3127 H         2 RES2    0.0000
     56 C16        2.2208    5.5868    1.2765 C.3       2 RES2    0.0000
     57 H31        1.2704    5.4835    1.3121 H         2 RES2    0.0000
     58 H32        2.4968    5.9583    0.3302 H         2 RES2    0.0000
     59 H33        2.5838    4.6974    1.4169 H         2 RES2    0.0000
     60 C17        5.1413    5.9396    2.0918 C.2       2 RES2    0.0000
     61 C18        6.5104    6.4976    1.8490 C.3       2 RES2    0.0000
     62 H34        6.5687    7.3418    1.6639 H         2 RES2    0.0000
     63 H35        6.8850    6.4590    2.5841 H         2 RES2    0.0000
     64 H36        7.0409    5.8443    1.2490 H         2 RES2    0.0000
@<TRIPOS>BOND
     1    1    4 2
     2    2    4 2
     3    3   28 2
     4    4    7 1
     5    5    6 1
     6    7    8 1
     7    8    9 1
     8   10    8 1
     9   11    5 1
    10   12    7 1
    11   13   12 1
    12   14   12 1
    13   15   12 1
    14   16    7 1
    15   17   16 1
    16   18   16 1
    17   19   16 1
    18   20   11 1
    19   21   20 1
    20   22   20 1
    21   23   20 1
    22   24   11 1
    23   25   24 1
    24   26   24 1
    25   27   24 1
    26   28    5 1
    27   29   28 1
    28   30   29 1
    29   31   29 1
    30   32   29 1
    31   33   36 2
    32   34   36 2
    33   35   60 2
    34   36   39 1
    35   37   38 1
    36   39   40 1
    37   40   41 1
    38   42   40 1
    39   43   37 1
    40   44   39 1
    41   45   44 1
    42   46   44 1
    43   47   44 1
    44   48   39 1
    45   49   48 1
    46   50   48 1
    47   51   48 1
    48   52   43 1
    49   53   52 1
    50   54   52 1
    51   55   52 1
    52   56   43 1
    53   57   56 1
    54   58   56 1
    55   59   56 1
    56   60   37 1
    57   61   60 1
    58   62   61 1
    59   63   61 1
    60   64   61 1
    61    8   11 1
    62   40   43 1
@<TRIPOS>SUBSTRUCTURE
     1 RES1 1
     2 RES2 33

@<TRIPOS>CRYSIN
   8.4145    9.7316   14.8350  99.0690 101.1830  90.9950   2 1

