# MOL2 file generated by ConQuest
# Please check atom types

@<TRIPOS>MOLECULE
SEKGIZ
   123   126     3
SMALL
USER_CHARGES
****
Generated from CSD

@<TRIPOS>ATOM
      1 O1        -3.2951   10.5377   11.0717 O.2       1 RES1    0.0000
      2 O2        -3.0140    6.7394    8.6299 O.2       1 RES1   -1.0000
      3 O3        -0.6797   11.4505    5.6711 O.3       1 RES1    0.0000
      4 N1        -3.6076    9.2999   10.9347 N.3       1 RES1    0.0000
      5 N2        -3.4926    7.3465    9.6660 N.pl3     1 RES1    1.0000
      6 C1        -3.2858    8.6643    9.7949 C.2       1 RES1    0.0000
      7 C2        -4.3213    8.6580   12.0733 C.3       1 RES1    0.0000
      8 C3        -5.0083    7.4180   11.5449 C.3       1 RES1    0.0000
      9 H1        -5.3216    6.9023   12.3047 H         1 RES1    0.0000
     10 H2        -5.7905    7.6982   11.0464 H         1 RES1    0.0000
     11 C4        -4.2019    6.5004   10.6630 C.3       1 RES1    0.0000
     12 C5        -5.3891    9.6506   12.5522 C.3       1 RES1    0.0000
     13 H3        -6.0287    9.7951   11.8523 H         1 RES1    0.0000
     14 H4        -4.9706   10.4849   12.7813 H         1 RES1    0.0000
     15 H5        -5.8350    9.2924   13.3247 H         1 RES1    0.0000
     16 C6        -3.3221    8.4614   13.1992 C.3       1 RES1    0.0000
     17 H6        -2.6458    7.8396   12.9218 H         1 RES1    0.0000
     18 H7        -3.7746    8.1175   13.9729 H         1 RES1    0.0000
     19 H8        -2.9143    9.3025   13.4157 H         1 RES1    0.0000
     20 C7        -3.1466    5.6666   11.3756 C.3       1 RES1    0.0000
     21 H9        -2.5481    6.2480   11.8523 H         1 RES1    0.0000
     22 H10       -2.6506    5.1591   10.7298 H         1 RES1    0.0000
     23 H11       -3.5736    5.0681   11.9939 H         1 RES1    0.0000
     24 C8        -5.1538    5.5941    9.9032 C.3       1 RES1    0.0000
     25 H12       -5.8192    6.1267    9.4611 H         1 RES1    0.0000
     26 H13       -5.5822    4.9923   10.5168 H         1 RES1    0.0000
     27 H14       -4.6630    5.0908    9.2504 H         1 RES1    0.0000
     28 C9        -2.6234    9.4018    8.7036 C.ar      1 RES1    0.0000
     29 C10       -3.2356    9.5634    7.4855 C.ar      1 RES1    0.0000
     30 H15       -4.0889    9.2140    7.3577 H         1 RES1    0.0000
     31 C11       -2.6210   10.2307    6.4482 C.ar      1 RES1    0.0000
     32 H16       -3.0564   10.3232    5.6320 H         1 RES1    0.0000
     33 C12       -1.3707   10.7570    6.6209 C.ar      1 RES1    0.0000
     34 C13       -0.7489   10.6066    7.8263 C.ar      1 RES1    0.0000
     35 H17        0.0976   10.9699    7.9552 H         1 RES1    0.0000
     36 C14       -1.3579    9.9283    8.8452 C.ar      1 RES1    0.0000
     37 H18       -0.9080    9.8204    9.6522 H         1 RES1    0.0000
     38 C15       -1.2040   11.4434    4.3483 C.3       1 RES1    0.0000
     39 H19       -0.6337   11.9603    3.7750 H         1 RES1    0.0000
     40 H20       -2.0846   11.8239    4.3518 H         1 RES1    0.0000
     41 H21       -1.2477   10.5404    4.0260 H         1 RES1    0.0000
     42 O4         3.9884   10.6804    4.2366 O.2       2 RES2    0.0000
     43 O5         5.0040    6.8520    2.0055 O.2       2 RES2   -1.0000
     44 O6         6.5775   11.7418   -1.1939 O.3       2 RES2    0.0000
     45 N3         4.0107    9.3970    4.1952 N.3       2 RES2    0.0000
     46 N4         4.5869    7.4306    3.0658 N.pl3     2 RES2    1.0000
     47 C16        4.5374    8.7754    3.1245 C.2       2 RES2    0.0000
     48 C17        3.4760    8.6903    5.4006 C.3       2 RES2    0.0000
     49 C18        3.1095    7.3040    5.0045 C.3       2 RES2    0.0000
     50 H22        2.3039    7.3419    4.4646 H         2 RES2    0.0000
     51 H23        2.8994    6.8013    5.8070 H         2 RES2    0.0000
     52 C19        4.2403    6.5044    4.1802 C.3       2 RES2    0.0000
     53 C20        2.1036    9.2924    5.6976 C.3       2 RES2    0.0000
     54 H24        2.2070   10.2044    5.9797 H         2 RES2    0.0000
     55 H25        1.6773    8.7896    6.3953 H         2 RES2    0.0000
     56 H26        1.5627    9.2620    4.9055 H         2 RES2    0.0000
     57 C21        4.3269    9.0170    6.5472 C.3       2 RES2    0.0000
     58 H27        5.2029    8.6481    6.4091 H         2 RES2    0.0000
     59 H28        3.9454    8.6431    7.3451 H         2 RES2    0.0000
     60 H29        4.3894    9.9695    6.6382 H         2 RES2    0.0000
     61 C22        3.4212    5.3546    3.6875 C.3       2 RES2    0.0000
     62 H30        3.9748    4.7674    3.1694 H         2 RES2    0.0000
     63 H31        2.7050    5.6846    3.1406 H         2 RES2    0.0000
     64 H32        3.0599    4.8761    4.4370 H         2 RES2    0.0000
     65 C23        5.4888    6.0661    4.7927 C.3       2 RES2    0.0000
     66 H33        6.0392    5.6441    4.1284 H         2 RES2    0.0000
     67 H34        5.2975    5.4370    5.4938 H         2 RES2    0.0000
     68 H35        5.9509    6.8240    5.1577 H         2 RES2    0.0000
     69 C24        5.0794    9.5647    2.0101 C.ar      2 RES2    0.0000
     70 C25        6.4132    9.4558    1.6785 C.ar      2 RES2    0.0000
     71 H36        6.9566    8.8906    2.1793 H         2 RES2    0.0000
     72 C26        6.9717   10.1647    0.6194 C.ar      2 RES2    0.0000
     73 H37        7.8742   10.0781    0.4168 H         2 RES2    0.0000
     74 C27        6.1557   11.0020   -0.1255 C.ar      2 RES2    0.0000
     75 C28        4.8278   11.1248    0.2153 C.ar      2 RES2    0.0000
     76 H38        4.2784   11.6950   -0.2740 H         2 RES2    0.0000
     77 C29        4.3033   10.4214    1.2641 C.ar      2 RES2    0.0000
     78 H39        3.4042   10.5253    1.4782 H         2 RES2    0.0000
     79 C30        7.9036   11.5083   -1.6521 C.3       2 RES2    0.0000
     80 H40        8.0862   12.0765   -2.4038 H         2 RES2    0.0000
     81 H41        7.9936   10.5910   -1.9169 H         2 RES2    0.0000
     82 H42        8.5252   11.7001   -0.9463 H         2 RES2    0.0000
     83 O7         3.5561   16.4099    6.6094 O.2       3 RES3    0.0000
     84 O8         2.5015   16.1649    2.1667 O.2       3 RES3   -1.0000
     85 O9         3.3835   21.9146    4.0962 O.3       3 RES3    0.0000
     86 N5         3.1241   15.7106    5.6009 N.3       3 RES3    0.0000
     87 N6         2.7060   15.5903    3.2926 N.pl3     3 RES3    1.0000
     88 C31        2.9272   16.3339    4.4013 C.2       3 RES3    0.0000
     89 C32        2.8363   14.2789    5.8887 C.3       3 RES3    0.0000
     90 C33        2.2631   13.6351    4.6189 C.3       3 RES3    0.0000
     91 H43        2.3925   12.6753    4.6833 H         3 RES3    0.0000
     92 H44        1.3053   13.7945    4.6062 H         3 RES3    0.0000
     93 C34        2.8271   14.0939    3.3053 C.3       3 RES3    0.0000
     94 C35        4.1049   13.6245    6.3964 C.3       3 RES3    0.0000
     95 H45        4.4080   14.0825    7.1839 H         3 RES3    0.0000
     96 H46        4.7820   13.6707    5.7183 H         3 RES3    0.0000
     97 H47        3.9274   12.7056    6.6106 H         3 RES3    0.0000
     98 C36        1.7781   14.2718    6.9974 C.3       3 RES3    0.0000
     99 H48        2.1390   14.6838    7.7860 H         3 RES3    0.0000
    100 H49        1.5296   13.3650    7.1954 H         3 RES3    0.0000
    101 H50        1.0059   14.7596    6.7050 H         3 RES3    0.0000
    102 C37        1.9593   13.5270    2.1655 C.3       3 RES3    0.0000
    103 H51        1.0362   13.7288    2.3359 H         3 RES3    0.0000
    104 H52        2.0737   12.5742    2.1183 H         3 RES3    0.0000
    105 H53        2.2251   13.9234    1.3332 H         3 RES3    0.0000
    106 C38        4.2897   13.7882    3.0439 C.3       3 RES3    0.0000
    107 H54        4.8231   14.1457    3.7577 H         3 RES3    0.0000
    108 H55        4.5561   14.1887    2.2139 H         3 RES3    0.0000
    109 H56        4.4140   12.8370    2.9956 H         3 RES3    0.0000
    110 C39        3.0163   17.7957    4.3299 C.ar      3 RES3    0.0000
    111 C40        3.8754   18.4195    3.4342 C.ar      3 RES3    0.0000
    112 H57        4.3944   17.9026    2.8632 H         3 RES3    0.0000
    113 C41        3.9677   19.7830    3.3790 C.ar      3 RES3    0.0000
    114 H58        4.5496   20.1865    2.7757 H         3 RES3    0.0000
    115 C42        3.1944   20.5632    4.2240 C.ar      3 RES3    0.0000
    116 C43        2.3207   19.9707    5.1047 C.ar      3 RES3    0.0000
    117 H59        1.7858   20.4922    5.6596 H         3 RES3    0.0000
    118 C44        2.2454   18.5867    5.1565 C.ar      3 RES3    0.0000
    119 H60        1.6635   18.1830    5.7598 H         3 RES3    0.0000
    120 C45        2.5497   22.7771    4.8146 C.3       3 RES3    0.0000
    121 H61        2.7921   23.6882    4.6281 H         3 RES3    0.0000
    122 H62        2.6458   22.6069    5.7540 H         3 RES3    0.0000
    123 H63        1.6373   22.6296    4.5544 H         3 RES3    0.0000
@<TRIPOS>BOND
     1    1    4 1
     2    2    5 1
     3    3   33 1
     4    4    6 1
     5    5    6 2
     6    6   28 1
     7    7    4 1
     8    8    7 1
     9    9    8 1
    10   10    8 1
    11   11    5 1
    12   12    7 1
    13   13   12 1
    14   14   12 1
    15   15   12 1
    16   16    7 1
    17   17   16 1
    18   18   16 1
    19   19   16 1
    20   20   11 1
    21   21   20 1
    22   22   20 1
    23   23   20 1
    24   24   11 1
    25   25   24 1
    26   26   24 1
    27   27   24 1
    28   28   29 ar
    29   29   30 1
    30   31   29 ar
    31   32   31 1
    32   33   31 ar
    33   34   33 ar
    34   35   34 1
    35   36   28 ar
    36   37   36 1
    37   38    3 1
    38   39   38 1
    39   40   38 1
    40   41   38 1
    41   42   45 1
    42   43   46 1
    43   44   74 1
    44   45   47 1
    45   46   47 2
    46   47   69 1
    47   48   45 1
    48   49   48 1
    49   50   49 1
    50   51   49 1
    51   52   46 1
    52   53   48 1
    53   54   53 1
    54   55   53 1
    55   56   53 1
    56   57   48 1
    57   58   57 1
    58   59   57 1
    59   60   57 1
    60   61   52 1
    61   62   61 1
    62   63   61 1
    63   64   61 1
    64   65   52 1
    65   66   65 1
    66   67   65 1
    67   68   65 1
    68   69   70 ar
    69   70   71 1
    70   72   70 ar
    71   73   72 1
    72   74   72 ar
    73   75   74 ar
    74   76   75 1
    75   77   69 ar
    76   78   77 1
    77   79   44 1
    78   80   79 1
    79   81   79 1
    80   82   79 1
    81   83   86 1
    82   84   87 1
    83   85  115 1
    84   86   88 1
    85   87   88 2
    86   88  110 1
    87   89   86 1
    88   90   89 1
    89   91   90 1
    90   92   90 1
    91   93   87 1
    92   94   89 1
    93   95   94 1
    94   96   94 1
    95   97   94 1
    96   98   89 1
    97   99   98 1
    98  100   98 1
    99  101   98 1
   100  102   93 1
   101  103  102 1
   102  104  102 1
   103  105  102 1
   104  106   93 1
   105  107  106 1
   106  108  106 1
   107  109  106 1
   108  110  111 ar
   109  111  112 1
   110  113  111 ar
   111  114  113 1
   112  115  113 ar
   113  116  115 ar
   114  117  116 1
   115  118  110 ar
   116  119  118 1
   117  120   85 1
   118  121  120 1
   119  122  120 1
   120  123  120 1
   121    8   11 1
   122   34   36 ar
   123   49   52 1
   124   75   77 ar
   125   90   93 1
   126  116  118 ar
@<TRIPOS>SUBSTRUCTURE
     1 RES1 1
     2 RES2 42
     3 RES3 83

@<TRIPOS>CRYSIN
  15.7562   25.2647   12.3464  90.0000 111.1770  90.0000  14 1

