# MOL2 file generated by ConQuest
# Please check atom types

@<TRIPOS>MOLECULE
SEKHAR
    28    28     1
SMALL
NO_CHARGES
****
Generated from CSD

@<TRIPOS>ATOM
      1 O1         6.3737    1.7895    1.8961 O.2       1 RES1    0.0000
      2 O2         5.8161    3.8045    1.4694 O.2       1 RES1    0.0000
      3 O3         3.5597    2.5567    3.6660 O.3       1 RES1    0.0000
      4 O4         5.9306    1.9663    6.3390 O.3       1 RES1    0.0000
      5 O5         3.3829    1.7600    7.6785 O.3       1 RES1    0.0000
      6 O6         1.3203    0.6754    5.8426 O.3       1 RES1    0.0000
      7 O7         0.6244    3.1936    3.5613 O.3       1 RES1    0.0000
      8 N1         6.0246    2.9024    2.2508 N.pl3     1 RES1    0.0000
      9 C1         5.8410    3.1574    3.7127 C.3       1 RES1    0.0000
     10 C2         4.7995    2.2054    4.2656 C.3       1 RES1    0.0000
     11 C3         4.6794    2.3493    5.7787 C.3       1 RES1    0.0000
     12 C4         3.5631    1.4620    6.3012 C.3       1 RES1    0.0000
     13 C5         2.2666    1.7045    5.5390 C.3       1 RES1    0.0000
     14 C6         2.5080    1.6467    4.0244 C.3       1 RES1    0.0000
     15 C7         1.3056    2.0093    3.1658 C.3       1 RES1    0.0000
     16 H1         5.9147    2.1125    7.1279 H         1 RES1    0.0000
     17 H2         3.3636    0.9565    8.1067 H         1 RES1    0.0000
     18 H3         0.8001    0.9792    6.5127 H         1 RES1    0.0000
     19 H4         1.2013    3.7728    3.7669 H         1 RES1    0.0000
     20 H5         6.7375    3.0633    4.1847 H         1 RES1    0.0000
     21 H6         5.5543    4.0901    3.8560 H         1 RES1    0.0000
     22 H7         5.0319    1.2285    4.0890 H         1 RES1    0.0000
     23 H8         4.3893    3.2877    5.9828 H         1 RES1    0.0000
     24 H9         3.8068    0.5304    6.1461 H         1 RES1    0.0000
     25 H10        1.9005    2.6678    5.8477 H         1 RES1    0.0000
     26 H11        2.8095    0.7208    3.8263 H         1 RES1    0.0000
     27 H12        0.6029    1.2795    3.2096 H         1 RES1    0.0000
     28 H13        1.5583    2.0535    2.1833 H         1 RES1    0.0000
@<TRIPOS>BOND
     1    1    8 2
     2    2    8 2
     3    3   10 1
     4    4   11 1
     5    5   12 1
     6    6   13 1
     7    7   15 1
     8    8    9 1
     9    9   10 1
    10   10   11 1
    11   11   12 1
    12   12   13 1
    13   13   14 1
    14   14    3 1
    15   15   14 1
    16   16    4 1
    17   17    5 1
    18   18    6 1
    19   19    7 1
    20   20    9 1
    21   21    9 1
    22   22   10 1
    23   23   11 1
    24   24   12 1
    25   25   13 1
    26   26   14 1
    27   27   15 1
    28   28   15 1
@<TRIPOS>SUBSTRUCTURE
     1 RES1 1

@<TRIPOS>CRYSIN
  11.3330   11.3330    7.4210  90.0000  90.0000  90.0000  76 1

