# MOL2 file generated by ConQuest
# Please check atom types

@<TRIPOS>MOLECULE
SEKHIZ
    57    48     2
SMALL
NO_CHARGES
****
Generated from CSD

@<TRIPOS>ATOM
      1 O1         1.4016    6.2513   19.4840 O.2       1 RES1    0.0000
      2 O2         0.7360    8.1344   18.8379 O.2       1 RES1    0.0000
      3 O3        -0.2813    5.7447   21.7641 O.3       1 RES1    0.0000
      4 O4         1.6646    7.9443   23.9356 O.3       1 RES1    0.0000
      5 O5         0.3592    6.3082   25.7597 O.3       1 RES1    0.0000
      6 O6        -1.6980    5.2348   24.2179 O.3       1 RES1    0.0000
      7 O7        -0.6548    3.1240   20.6512 O.3       1 RES1    0.0000
      8 O8        -1.5800    3.7570   20.5046 Du        2 SUP2    0.0000
      9 O9         0.2780    9.6968   23.9790 O.2       1 RES1    0.0000
     10 O10        1.5138    4.5876   26.5957 O.2       1 RES1    0.0000
     11 O11       -1.8245    3.9680   26.0528 O.2       1 RES1    0.0000
     12 O12       -2.0204    4.5884   19.7283 O.2       1 RES1    0.0000
     13 O13        0.4371    2.8326   20.1680 Du        2 SUP2    0.0000
     14 N1         0.9679    7.3297   19.7011 N.pl3     1 RES1    0.0000
     15 C1         0.7201    7.7760   21.1126 C.3       1 RES1    0.0000
     16 C2         0.7871    6.6172   22.0735 C.3       1 RES1    0.0000
     17 C3         0.5903    7.0718   23.5284 C.3       1 RES1    0.0000
     18 C4         0.6372    5.8628   24.4187 C.3       1 RES1    0.0000
     19 C5        -0.3500    4.7860   23.9790 C.3       1 RES1    0.0000
     20 C6        -0.1917    4.5248   22.5024 C.3       1 RES1    0.0000
     21 C7        -1.2501    3.5878   21.9486 C.3       1 RES1    0.0000
     22 C8         1.3506    9.2363   24.2124 C.2       1 RES1    0.0000
     23 C9         2.5278    9.9580   24.7825 C.3       1 RES1    0.0000
     24 C10        0.8666    5.5689   26.7803 C.2       1 RES1    0.0000
     25 C11        0.5066    6.1642   28.0832 C.3       1 RES1    0.0000
     26 C12       -2.3788    4.6663   25.2059 C.2       1 RES1    0.0000
     27 C13       -3.8147    5.0883   25.2113 C.3       1 RES1    0.0000
     28 C14       -1.1144    3.7335   19.6523 C.2       1 RES1    0.0000
     29 C15       -0.5627    3.3191   19.7065 Du        2 SUP2    0.0000
     30 C16       -0.6397    3.1474   18.3222 C.3       1 RES1    0.0000
     31 C17       -0.8331    3.6774   18.3005 Du        2 SUP2    0.0000
     32 H1         1.3673    8.4375   21.1886 H         1 RES1    0.0000
     33 H2        -0.1465    8.1444   21.0583 H         1 RES1    0.0000
     34 H3         1.6570    6.1902   22.0789 H         1 RES1    0.0000
     35 H4        -0.2746    7.5508   23.6533 H         1 RES1    0.0000
     36 H5         1.4921    5.4835   24.2885 H         1 RES1    0.0000
     37 H6        -0.2286    4.0006   24.5056 H         1 RES1    0.0000
     38 H7         0.7067    4.1647   22.3504 H         1 RES1    0.0000
     39 H8        -2.1159    4.1513   21.7641 H         1 RES1    0.0000
     40 H9        -2.1041    3.5376   22.5024 Du        2 SUP2    0.0000
     41 H10       -1.4745    2.7823   22.6055 H         1 RES1    0.0000
     42 H11       -0.9621    2.6400   22.0898 Du        2 SUP2    0.0000
     43 H12        2.2615   10.8397   24.9779 H         1 RES1    0.0000
     44 H13        3.2404    9.9346   24.0062 H         1 RES1    0.0000
     45 H14        2.7664    9.5946   25.7325 H         1 RES1    0.0000
     46 H15        0.8834    5.6216   28.9246 H         1 RES1    0.0000
     47 H16       -0.4053    6.2128   28.0018 H         1 RES1    0.0000
     48 H17        0.8532    7.0275   28.1375 H         1 RES1    0.0000
     49 H18       -4.2610    4.7081   26.0854 H         1 RES1    0.0000
     50 H19       -4.2066    4.8547   24.3210 H         1 RES1    0.0000
     51 H20       -3.8382    6.0034   25.3796 H         1 RES1    0.0000
     52 H21       -1.0307    3.6330   17.5567 H         1 RES1    0.0000
     53 H22       -0.1239    3.3115   17.7087 Du        2 SUP2    0.0000
     54 H23       -0.9503    2.2314   18.2516 H         1 RES1    0.0000
     55 H24       -0.9420    4.5809   18.1322 Du        2 SUP2    0.0000
     56 H25        0.2972    3.1809   18.2516 H         1 RES1    0.0000
     57 H26       -1.6637    3.1976   17.9802 Du        2 SUP2    0.0000
@<TRIPOS>BOND
     1    1   14 2
     2    2   14 2
     3    3   16 1
     4    4   17 1
     5    5   18 1
     6    6   19 1
     7    7   21 1
     8    9   22 2
     9   10   24 2
    10   11   26 2
    11   12   28 2
    12   14   15 1
    13   15   16 1
    14   16   17 1
    15   17   18 1
    16   18   19 1
    17   19   20 1
    18   20    3 1
    19   21   20 1
    20   22    4 1
    21   23   22 1
    22   24    5 1
    23   25   24 1
    24   26    6 1
    25   27   26 1
    26   28    7 1
    27   30   28 1
    28   32   15 1
    29   33   15 1
    30   34   16 1
    31   35   17 1
    32   36   18 1
    33   37   19 1
    34   38   20 1
    35   39   21 1
    36   41   21 1
    37   43   23 1
    38   44   23 1
    39   45   23 1
    40   46   25 1
    41   47   25 1
    42   48   25 1
    43   49   27 1
    44   50   27 1
    45   51   27 1
    46   52   30 1
    47   54   30 1
    48   56   30 1
@<TRIPOS>SUBSTRUCTURE
     1 RES1 1
     2 SUP2 8

@<TRIPOS>CRYSIN
   8.3730    8.3730   54.2880  90.0000  90.0000  90.0000  96 1

