# MOL2 file generated by ConQuest
# Please check atom types

@<TRIPOS>MOLECULE
SEKHEW
    26    25     1
SMALL
NO_CHARGES
****
Generated from CSD

@<TRIPOS>ATOM
      1 N1        -0.3874    0.0826   -2.1478 N.1       1 RES1    0.0000
      2 C1         0.2020   -0.8665   -1.9383 C.1       1 RES1    0.0000
      3 N2        -0.5129    2.9255   -5.1213 N.pl3     1 RES1    0.0000
      4 C2        -0.2433    2.4799   -2.0724 C.3       1 RES1    0.0000
      5 H1        -0.0279    2.6389   -1.1222 H         1 RES1    0.0000
      6 H2        -0.7504    3.3340   -2.2298 H         1 RES1    0.0000
      7 H3         0.6480    2.4550   -2.7545 H         1 RES1    0.0000
      8 C3         0.2395    0.5416   -5.0936 C.3       1 RES1    0.0000
      9 H4         0.7852    0.9574   -4.4013 H         1 RES1    0.0000
     10 H5         0.6521    0.6621   -5.9024 H         1 RES1    0.0000
     11 H6        -0.0030   -0.4596   -4.8823 H         1 RES1    0.0000
     12 C4        -2.2817    1.2775   -1.3015 C.3       1 RES1    0.0000
     13 H7        -2.7986    0.6338   -1.4967 H         1 RES1    0.0000
     14 H8        -2.8144    1.8740   -1.4399 H         1 RES1    0.0000
     15 H9        -1.9085    1.4835   -0.3061 H         1 RES1    0.0000
     16 C5        -1.8675    1.2439   -6.2123 C.3       1 RES1    0.0000
     17 H10       -2.2721    0.3387   -6.2231 H         1 RES1    0.0000
     18 H11       -1.3778    1.4965   -6.9430 H         1 RES1    0.0000
     19 H12       -2.5957    1.6362   -6.1648 H         1 RES1    0.0000
     20 O1        -1.3131    3.7990   -4.9580 O.2       1 RES1    0.0000
     21 C6        -1.1708    1.3203   -2.3272 C.3       1 RES1    0.0000
     22 C7        -0.9700    1.4681   -4.9892 C.3       1 RES1    0.0000
     23 C8        -1.7802    1.2955   -3.7410 C.3       1 RES1    0.0000
     24 H13       -2.2707    0.6451   -3.8155 H         1 RES1    0.0000
     25 H14       -2.4173    1.7812   -3.7907 H         1 RES1    0.0000
     26 O2         0.6650    3.1456   -5.4055 O.2       1 RES1    0.0000
@<TRIPOS>BOND
     1    1    2 3
     2    3   20 2
     3    4    5 1
     4    6    4 1
     5    7    4 1
     6    8    9 1
     7   10    8 1
     8   11    8 1
     9   12   13 1
    10   14   12 1
    11   15   12 1
    12   16   17 1
    13   18   16 1
    14   19   16 1
    15   21    1 1
    16   22    3 1
    17   23   21 1
    18   24   23 1
    19   25   23 1
    20   26    3 2
    21    4   21 1
    22    8   22 1
    23   12   21 1
    24   16   22 1
    25   22   23 1
@<TRIPOS>SUBSTRUCTURE
     1 RES1 1

@<TRIPOS>CRYSIN
   5.8890    6.1396   14.6420  86.7710  84.6580  69.0810   2 1

