# MOL2 file generated by ConQuest
# Please check atom types

@<TRIPOS>MOLECULE
SEKHEV
    28    28     1
SMALL
NO_CHARGES
****
Generated from CSD

@<TRIPOS>ATOM
      1 O1         1.7411    2.2907    0.9884 O.2       1 RES1    0.0000
      2 O2         0.9093    2.8830   -0.8899 O.2       1 RES1    0.0000
      3 O3         1.4830    5.4496    1.3929 O.3       1 RES1    0.0000
      4 O4         5.1256    5.4658    0.9290 O.3       1 RES1    0.0000
      5 O5         4.6341    7.9738    2.3031 O.3       1 RES1    0.0000
      6 O6         1.9667    8.2758    1.7812 O.3       1 RES1    0.0000
      7 O7        -0.8713    5.3387    3.0326 O.3       1 RES1    0.0000
      8 N1         1.7256    3.0029    0.0148 N.pl3     1 RES1    0.0000
      9 C1         2.7264    4.1090   -0.1052 C.3       1 RES1    0.0000
     10 C2         2.7845    4.8960    1.1812 C.3       1 RES1    0.0000
     11 C3         3.8202    6.0202    1.0855 C.3       1 RES1    0.0000
     12 C4         3.7830    6.8370    2.3759 C.3       1 RES1    0.0000
     13 C5         2.3558    7.2607    2.7251 C.3       1 RES1    0.0000
     14 C6         1.4109    6.0707    2.6820 C.3       1 RES1    0.0000
     15 C7        -0.0271    6.4800    2.9449 C.3       1 RES1    0.0000
     16 H1         5.3155    5.4541    0.1079 H         1 RES1    0.0000
     17 H2         4.1651    8.4624    1.7947 H         1 RES1    0.0000
     18 H3         1.6101    8.7680    2.2410 H         1 RES1    0.0000
     19 H4        -1.2977    5.2927    2.3476 H         1 RES1    0.0000
     20 H5         3.5365    3.6871   -0.2602 H         1 RES1    0.0000
     21 H6         2.4396    4.6040   -0.8522 H         1 RES1    0.0000
     22 H7         3.0000    4.3128    1.9430 H         1 RES1    0.0000
     23 H8         3.5962    6.5674    0.2845 H         1 RES1    0.0000
     24 H9         4.1334    6.3150    3.0501 H         1 RES1    0.0000
     25 H10        2.3481    7.6826    3.6016 H         1 RES1    0.0000
     26 H11        1.7054    5.4198    3.3400 H         1 RES1    0.0000
     27 H12       -0.3395    7.0605    2.2748 H         1 RES1    0.0000
     28 H13       -0.0419    6.9956    3.8065 H         1 RES1    0.0000
@<TRIPOS>BOND
     1    1    8 2
     2    2    8 2
     3    3   10 1
     4    4   11 1
     5    5   12 1
     6    6   13 1
     7    7   15 1
     8    8    9 1
     9    9   10 1
    10   10   11 1
    11   11   12 1
    12   12   13 1
    13   13   14 1
    14   14    3 1
    15   15   14 1
    16   16    4 1
    17   17    5 1
    18   18    6 1
    19   19    7 1
    20   20    9 1
    21   21    9 1
    22   22   10 1
    23   23   11 1
    24   24   12 1
    25   25   13 1
    26   26   14 1
    27   27   15 1
    28   28   15 1
@<TRIPOS>SUBSTRUCTURE
     1 RES1 1

@<TRIPOS>CRYSIN
   7.7520    9.0150   13.4840  90.0000  90.0000  90.0000  19 1

