# MOL2 file generated by ConQuest
# Please check atom types

@<TRIPOS>MOLECULE
SEKJOI
    28    33     1
SMALL
NO_CHARGES
****
Generated from CSD

@<TRIPOS>ATOM
      1 O1         0.9431    5.0584    7.3448 O.2       1 RES1    0.0000
      2 N1         0.4602    4.5755    6.2858 N.2       1 RES1    0.0000
      3 C1         0.2782    3.8371    4.0546 C.3       1 RES1    0.0000
      4 H1         0.9547    3.1606    3.7271 H         1 RES1    0.0000
      5 H2        -0.1893    4.3046    3.1038 H         1 RES1    0.0000
      6 C2         0.8719    4.9872    4.9044 C.3       1 RES1    0.0000
      7 C3         0.5844    6.4561    4.7415 C.3       1 RES1    0.0000
      8 H3         0.7243    6.6586    3.7589 H         1 RES1    0.0000
      9 H4         1.0453    6.9549    5.4825 H         1 RES1    0.0000
     10 H5        -0.3704    6.6586    5.0627 H         1 RES1    0.0000
     11 O1A       -0.9431    3.1722    7.3448 O.2       1 RES1    0.0000
     12 N1A       -0.4602    3.6551    6.2858 N.2       1 RES1    0.0000
     13 C1A       -0.2782    4.3935    4.0546 C.3       1 RES1    0.0000
     14 H1A       -0.9547    5.0700    3.7271 H         1 RES1    0.0000
     15 H2A        0.1893    3.9260    3.1038 H         1 RES1    0.0000
     16 C2A       -0.8719    3.2434    4.9044 C.3       1 RES1    0.0000
     17 C3G        2.3408    4.6997    4.7415 C.3       1 RES1    0.0000
     18 C3A       -0.5844    1.7745    4.7415 C.3       1 RES1    0.0000
     19 C3F       -2.3408    3.5309    4.7415 C.3       1 RES1    0.0000
     20 H3G        2.5433    4.8396    3.7589 H         1 RES1    0.0000
     21 H3A       -0.7243    1.5720    3.7589 H         1 RES1    0.0000
     22 H3F       -2.5433    3.3910    3.7589 H         1 RES1    0.0000
     23 H4G        2.8396    5.1606    5.4825 H         1 RES1    0.0000
     24 H4A       -1.0453    1.2757    5.4825 H         1 RES1    0.0000
     25 H4F       -2.8396    3.0700    5.4825 H         1 RES1    0.0000
     26 H5G        2.5433    3.7449    5.0627 H         1 RES1    0.0000
     27 H5A        0.3704    1.5720    5.0627 H         1 RES1    0.0000
     28 H5F       -2.5433    4.4857    5.0627 H         1 RES1    0.0000
@<TRIPOS>BOND
     1    1    2 1
     2    2    6 1
     3    3    4 1
     4    5    3 1
     5    6    3 1
     6    7    6 1
     7    8    7 1
     8    9    7 1
     9   10    7 1
    10   11   12 1
    11   12    2 1
    12   13    3 1
    13   14   13 1
    14   15    3 1
    15   16    3 1
    16   17    6 1
    17   18   16 1
    18   19   16 1
    19   20   17 1
    20   21   18 1
    21   22   19 1
    22   23   17 1
    23   24   18 1
    24   25   19 1
    25   26   17 1
    26   27   18 1
    27   28   19 1
    28    5   13 1
    29    5   15 1
    30    6   13 1
    31   12   16 1
    32   13   15 1
    33   13   16 1
@<TRIPOS>SUBSTRUCTURE
     1 RES1 1

@<TRIPOS>CRYSIN
   8.2306    8.2306    6.3602  90.0000  90.0000  90.0000 113 1

