# MOL2 file generated by ConQuest
# Please check atom types

@<TRIPOS>MOLECULE
SEKJEX
    39    39     1
SMALL
NO_CHARGES
****
Generated from CSD

@<TRIPOS>ATOM
      1 O1         4.8053    4.2292    9.2545 O.2       1 RES1    0.0000
      2 O2         3.2220    5.5483    9.7579 O.2       1 RES1    0.0000
      3 O3         2.8244    2.4006   10.7958 O.3       1 RES1    0.0000
      4 O4         0.4836    1.8103    9.2234 O.3       1 RES1    0.0000
      5 O5         0.7961   -0.9286    9.4913 O.3       1 RES1    0.0000
      6 O6         0.7845    0.6243   11.7783 O.3       1 RES1    0.0000
      7 O7        -0.3331    1.1089    7.2599 O.2       1 RES1    0.0000
      8 O8         1.9441   -1.9996    7.9270 O.2       1 RES1    0.0000
      9 O9         0.5382   -1.1964   13.0489 O.2       1 RES1    0.0000
     10 N1         3.6304    4.5178    9.3060 N.pl3     1 RES1    0.0000
     11 C1         2.6372    3.5539    8.7647 C.3       1 RES1    0.0000
     12 C2         2.8369    2.2099    9.3858 C.3       1 RES1    0.0000
     13 C3         1.7731    1.2068    8.9609 C.3       1 RES1    0.0000
     14 C4         1.9092   -0.0744    9.7512 C.3       1 RES1    0.0000
     15 C5         2.0471    0.1450   11.2356 C.3       1 RES1    0.0000
     16 C6         3.0895    1.2042   11.4968 C.3       1 RES1    0.0000
     17 C7        -0.4961    1.6392    8.3154 C.2       1 RES1    0.0000
     18 C8        -1.7695    2.2191    8.8432 C.3       1 RES1    0.0000
     19 C9         0.9161   -1.8207    8.4751 C.2       1 RES1    0.0000
     20 C10       -0.3833   -2.4777    8.1598 C.3       1 RES1    0.0000
     21 C11        0.1603   -0.1241   12.7079 C.2       1 RES1    0.0000
     22 C12       -1.0468    0.6086   13.1951 C.3       1 RES1    0.0000
     23 H1         2.7581    3.4808    7.8053 H         1 RES1    0.0000
     24 H2         1.7453    3.8556    8.9419 H         1 RES1    0.0000
     25 H3         3.6653    1.8285    9.1341 H         1 RES1    0.0000
     26 H4         1.8725    1.0266    8.0231 H         1 RES1    0.0000
     27 H5         2.7259   -0.4976    9.4467 H         1 RES1    0.0000
     28 H6         2.2817   -0.6909   11.6483 H         1 RES1    0.0000
     29 H7         3.0626    1.4132   12.4318 H         1 RES1    0.0000
     30 H8         3.9214    0.8751   11.2356 H         1 RES1    0.0000
     31 H9        -2.5155    2.0036    8.2532 H         1 RES1    0.0000
     32 H10       -1.6943    3.1921    8.8621 H         1 RES1    0.0000
     33 H11       -1.9898    1.9187    9.7282 H         1 RES1    0.0000
     34 H12       -0.5982   -2.8891    7.3249 H         1 RES1    0.0000
     35 H13       -1.0218   -1.6561    8.1950 H         1 RES1    0.0000
     36 H14       -0.7639   -3.0445    8.8756 H         1 RES1    0.0000
     37 H15       -1.4928   -0.1162   13.6403 H         1 RES1    0.0000
     38 H16       -1.5421    0.7144   12.3114 H         1 RES1    0.0000
     39 H17       -1.2358    1.4289   13.6727 H         1 RES1    0.0000
@<TRIPOS>BOND
     1    1   10 2
     2    2   10 2
     3    3   12 1
     4    4   13 1
     5    5   14 1
     6    6   15 1
     7    7   17 2
     8    8   19 2
     9    9   21 2
    10   10   11 1
    11   11   12 1
    12   12   13 1
    13   13   14 1
    14   14   15 1
    15   15   16 1
    16   16    3 1
    17   17    4 1
    18   18   17 1
    19   19    5 1
    20   20   19 1
    21   21    6 1
    22   22   21 1
    23   23   11 1
    24   24   11 1
    25   25   12 1
    26   26   13 1
    27   27   14 1
    28   28   15 1
    29   29   16 1
    30   30   16 1
    31   31   18 1
    32   32   18 1
    33   33   18 1
    34   34   20 1
    35   35   20 1
    36   36   20 1
    37   37   22 1
    38   38   22 1
    39   39   22 1
@<TRIPOS>SUBSTRUCTURE
     1 RES1 1

@<TRIPOS>CRYSIN
   8.9550   13.0610   13.5320  90.0000  90.0000  90.0000  19 1

