# MOL2 file generated by ConQuest
# Please check atom types

@<TRIPOS>MOLECULE
SEKJUO
    80    82     2
SMALL
NO_CHARGES
****
Generated from CSD

@<TRIPOS>ATOM
      1 O1         1.2009    9.5746    1.9293 O.3       1 RES1    0.0000
      2 H1         0.4266    9.7138    2.3012 H         1 RES1    0.0000
      3 O2         3.1617   13.6863    2.8249 O.3       1 RES1    0.0000
      4 H2         2.7196   14.1180    3.3678 H         1 RES1    0.0000
      5 N1         2.0684   10.2372    2.8916 N.3       1 RES1    0.0000
      6 N2         3.1156   12.3276    3.3257 N.3       1 RES1    0.0000
      7 C1         2.1761   11.6287    2.4180 C.3       1 RES1    0.0000
      8 H3         2.4754   11.7238    1.4916 H         1 RES1    0.0000
      9 C2         3.3415    9.4728    2.8402 C.3       1 RES1    0.0000
     10 C3         4.3707   10.3194    3.6037 C.3       1 RES1    0.0000
     11 H4         4.0857   10.3377    4.5704 H         1 RES1    0.0000
     12 H5         5.1796    9.9218    3.4910 H         1 RES1    0.0000
     13 C4         4.5059   11.7985    3.2318 C.3       1 RES1    0.0000
     14 C5         3.7718    9.0960    1.4151 C.3       1 RES1    0.0000
     15 H6         3.8709    9.9095    0.8223 H         1 RES1    0.0000
     16 H7         4.6312    8.7351    1.4045 H         1 RES1    0.0000
     17 H8         3.1535    8.3558    1.0624 H         1 RES1    0.0000
     18 C6         3.0920    8.1833    3.6547 C.3       1 RES1    0.0000
     19 H9         3.9326    7.6707    3.6929 H         1 RES1    0.0000
     20 H10        2.8610    8.4048    4.6533 H         1 RES1    0.0000
     21 H11        2.4110    7.5973    3.1872 H         1 RES1    0.0000
     22 C7         5.1766   12.0652    1.8726 C.3       1 RES1    0.0000
     23 H12        5.9324   11.5978    1.8018 H         1 RES1    0.0000
     24 H13        5.3587   12.9558    1.8337 H         1 RES1    0.0000
     25 H14        4.6648   11.7202    1.1240 H         1 RES1    0.0000
     26 C8         5.3338   12.5129    4.3121 C.3       1 RES1    0.0000
     27 H15        4.9341   12.3808    5.2270 H         1 RES1    0.0000
     28 H16        6.2263   12.1484    4.3070 H         1 RES1    0.0000
     29 H17        5.3882   13.5063    4.1349 H         1 RES1    0.0000
     30 C9         0.8047   12.2815    2.4875 C.ar      1 RES1    0.0000
     31 C10       -0.0123   12.1043    3.5947 C.ar      1 RES1    0.0000
     32 H18        0.3021   11.5844    4.3176 H         1 RES1    0.0000
     33 C11       -1.2854   12.6475    3.6260 C.ar      1 RES1    0.0000
     34 H19       -1.8382   12.4787    4.3707 H         1 RES1    0.0000
     35 C12       -1.7493   13.3877    2.5523 C.ar      1 RES1    0.0000
     36 H20       -2.5966   13.8000    2.5838 H         1 RES1    0.0000
     37 C13       -0.9389   13.5956    1.4638 C.ar      1 RES1    0.0000
     38 H21       -1.1926   14.1180    0.7564 H         1 RES1    0.0000
     39 C14        0.3298   13.0463    1.4257 C.ar      1 RES1    0.0000
     40 H22        0.8925   13.1760    0.7033 H         1 RES1    0.0000
     41 O3         8.7835    5.8963    4.4215 O.3       2 RES2    0.0000
     42 H23        8.3983    6.0925    5.1739 H         2 RES2    0.0000
     43 O4         9.3739    9.7355    1.8790 O.3       2 RES2    0.0000
     44 H24        9.0096   10.3867    2.2395 H         2 RES2    0.0000
     45 N3         8.0895    6.7042    3.4284 N.3       2 RES2    0.0000
     46 N4         8.4145    8.6526    2.0917 N.3       2 RES2    0.0000
     47 C15        9.0060    7.8268    3.1634 C.3       2 RES2    0.0000
     48 H25        9.8580    7.4921    2.9152 H         2 RES2    0.0000
     49 C16        7.8832    5.8112    2.2472 C.3       2 RES2    0.0000
     50 C17        7.4195    6.7336    1.1132 C.3       2 RES2    0.0000
     51 H26        6.5068    7.1031    1.3514 H         2 RES2    0.0000
     52 H27        7.2585    6.2149    0.3803 H         2 RES2    0.0000
     53 C18        8.2860    7.9545    0.7860 C.3       2 RES2    0.0000
     54 C19        9.1249    4.9792    1.8877 C.3       2 RES2    0.0000
     55 H28        8.9895    4.6612    0.9859 H         2 RES2    0.0000
     56 H29        9.1968    4.2330    2.4626 H         2 RES2    0.0000
     57 H30       10.0360    5.5542    1.9761 H         2 RES2    0.0000
     58 C20        6.7243    4.8728    2.6001 C.3       2 RES2    0.0000
     59 H31        6.9118    4.3186    3.3593 H         2 RES2    0.0000
     60 H32        6.4839    4.3308    1.8486 H         2 RES2    0.0000
     61 H33        5.8866    5.3707    2.8557 H         2 RES2    0.0000
     62 C21        9.6363    7.6291    0.1209 C.3       2 RES2    0.0000
     63 H34       10.0176    8.4292   -0.3570 H         2 RES2    0.0000
     64 H35       10.2696    7.2548    0.7543 H         2 RES2    0.0000
     65 H36        9.5104    6.9856   -0.5121 H         2 RES2    0.0000
     66 C22        7.5020    8.8684   -0.1574 C.3       2 RES2    0.0000
     67 H37        6.6519    9.1021    0.2592 H         2 RES2    0.0000
     68 H38        7.9766    9.6771   -0.3017 H         2 RES2    0.0000
     69 H39        7.2606    8.3436   -1.0072 H         2 RES2    0.0000
     70 C23        9.1198    8.6828    4.4085 C.ar      2 RES2    0.0000
     71 C24        8.0015    9.3480    4.9032 C.ar      2 RES2    0.0000
     72 H40        7.1638    9.2244    4.4812 H         2 RES2    0.0000
     73 C25        8.1167   10.1811    6.0138 C.ar      2 RES2    0.0000
     74 H41        7.3263   10.6191    6.3531 H         2 RES2    0.0000
     75 C26        9.3348   10.3292    6.6343 C.ar      2 RES2    0.0000
     76 H42        9.4539   10.8883    7.3815 H         2 RES2    0.0000
     77 C27       10.4233    9.6612    6.1689 C.ar      2 RES2    0.0000
     78 H43       11.2314    9.7505    6.5274 H         2 RES2    0.0000
     79 C28       10.3268    8.8403    5.0547 C.ar      2 RES2    0.0000
     80 H44       11.0908    8.3803    4.7213 H         2 RES2    0.0000
@<TRIPOS>BOND
     1    1    2 1
     2    3    4 1
     3    5    1 1
     4    6    3 1
     5    7    5 1
     6    8    7 1
     7    9    5 1
     8   10    9 1
     9   11   10 1
    10   12   10 1
    11   13    6 1
    12   14    9 1
    13   15   14 1
    14   16   14 1
    15   17   14 1
    16   18    9 1
    17   19   18 1
    18   20   18 1
    19   21   18 1
    20   22   13 1
    21   23   22 1
    22   24   22 1
    23   25   22 1
    24   26   13 1
    25   27   26 1
    26   28   26 1
    27   29   26 1
    28   30    7 1
    29   31   30 ar
    30   32   31 1
    31   33   31 ar
    32   34   33 1
    33   35   33 ar
    34   36   35 1
    35   37   35 ar
    36   38   37 1
    37   39   30 ar
    38   40   39 1
    39   41   42 1
    40   43   44 1
    41   45   41 1
    42   46   43 1
    43   47   45 1
    44   48   47 1
    45   49   45 1
    46   50   49 1
    47   51   50 1
    48   52   50 1
    49   53   46 1
    50   54   49 1
    51   55   54 1
    52   56   54 1
    53   57   54 1
    54   58   49 1
    55   59   58 1
    56   60   58 1
    57   61   58 1
    58   62   53 1
    59   63   62 1
    60   64   62 1
    61   65   62 1
    62   66   53 1
    63   67   66 1
    64   68   66 1
    65   69   66 1
    66   70   47 1
    67   71   70 ar
    68   72   71 1
    69   73   71 ar
    70   74   73 1
    71   75   73 ar
    72   76   75 1
    73   77   75 ar
    74   78   77 1
    75   79   70 ar
    76   80   79 1
    77    6    7 1
    78   10   13 1
    79   37   39 ar
    80   46   47 1
    81   50   53 1
    82   77   79 ar
@<TRIPOS>SUBSTRUCTURE
     1 RES1 1
     2 RES2 41

@<TRIPOS>CRYSIN
  11.0320   12.2340   21.2480  90.0000  90.0900  90.0000  14 1

