# MOL2 file generated by ConQuest
# Please check atom types

@<TRIPOS>MOLECULE
SEKJAU
    40    41     1
SMALL
NO_CHARGES
****
Generated from CSD

@<TRIPOS>ATOM
      1 O1         7.0652    6.5280    1.6573 O.2       1 RES1    0.0000
      2 O2         8.6584    6.1197    3.0480 O.2       1 RES1    0.0000
      3 N1         4.0497   10.7479    6.1551 N.3       1 RES1    0.0000
      4 H1         3.6835    9.9734    6.2832 H         1 RES1    0.0000
      5 N2         5.9283   10.3074    7.7097 N.3       1 RES1    0.0000
      6 H2         5.5976    9.4587    7.9284 H         1 RES1    0.0000
      7 N3         7.6488    6.7326    2.7123 N.pl3     1 RES1    0.0000
      8 C1         5.4887   10.6195    6.3555 C.3       1 RES1    0.0000
      9 H3         5.9047   11.5181    6.1092 H         1 RES1    0.0000
     10 C2         3.3988   11.6968    7.0950 C.3       1 RES1    0.0000
     11 C3         3.8890   11.4630    8.5348 C.3       1 RES1    0.0000
     12 H4         3.4133   10.6508    8.8655 H         1 RES1    0.0000
     13 H5         3.6042   12.1463    9.0872 H         1 RES1    0.0000
     14 C4         5.3955   11.2289    8.7384 C.3       1 RES1    0.0000
     15 C5         1.9061   11.4168    7.0352 C.3       1 RES1    0.0000
     16 H6         1.6886   10.4649    7.3691 H         1 RES1    0.0000
     17 H7         1.5858   11.5155    6.0980 H         1 RES1    0.0000
     18 H8         1.4270   12.0343    7.6001 H         1 RES1    0.0000
     19 C6         3.6506   13.1138    6.5834 C.3       1 RES1    0.0000
     20 H9         4.5947   13.3520    6.4721 H         1 RES1    0.0000
     21 H10        3.2349   13.7670    7.1923 H         1 RES1    0.0000
     22 H11        3.2138   13.2594    5.6959 H         1 RES1    0.0000
     23 C7         5.6112   10.5402   10.0851 C.3       1 RES1    0.0000
     24 H12        5.2834   11.1233   10.8399 H         1 RES1    0.0000
     25 H13        5.0581    9.6529   10.0945 H         1 RES1    0.0000
     26 H14        6.5596   10.3493   10.2039 H         1 RES1    0.0000
     27 C8         6.2239   12.5101    8.7196 C.3       1 RES1    0.0000
     28 H15        5.8977   13.1544    9.3809 H         1 RES1    0.0000
     29 H16        6.2476   12.9721    7.8358 H         1 RES1    0.0000
     30 H17        7.1654   12.3354    8.9880 H         1 RES1    0.0000
     31 C9         6.0590    9.5985    5.3823 C.ar      1 RES1    0.0000
     32 C10        7.2367    8.9216    5.6779 C.ar      1 RES1    0.0000
     33 H18        7.6784    9.1038    6.5152 H         1 RES1    0.0000
     34 C11        7.7596    7.9923    4.8109 C.ar      1 RES1    0.0000
     35 H19        8.5025    7.5362    5.0112 H         1 RES1    0.0000
     36 C12        7.1084    7.7389    3.6334 C.ar      1 RES1    0.0000
     37 C13        5.9527    8.3981    3.3007 C.ar      1 RES1    0.0000
     38 H20        5.5304    8.2108    2.5009 H         1 RES1    0.0000
     39 C14        5.4322    9.3227    4.1779 C.ar      1 RES1    0.0000
     40 H21        4.6047    9.7799    3.9488 H         1 RES1    0.0000
@<TRIPOS>BOND
     1    1    7 2
     2    2    7 2
     3    3    4 1
     4    5    6 1
     5    7   36 1
     6    8    3 1
     7    9    8 1
     8   10    3 1
     9   11   10 1
    10   12   11 1
    11   13   11 1
    12   14    5 1
    13   15   10 1
    14   16   15 1
    15   17   15 1
    16   18   15 1
    17   19   10 1
    18   20   19 1
    19   21   19 1
    20   22   19 1
    21   23   14 1
    22   24   23 1
    23   25   23 1
    24   26   23 1
    25   27   14 1
    26   28   27 1
    27   29   27 1
    28   30   27 1
    29   31    8 1
    30   32   31 ar
    31   33   32 1
    32   34   32 ar
    33   35   34 1
    34   36   34 ar
    35   37   36 ar
    36   38   37 1
    37   39   31 ar
    38   40   39 1
    39    5    8 1
    40   11   14 1
    41   37   39 ar
@<TRIPOS>SUBSTRUCTURE
     1 RES1 1

@<TRIPOS>CRYSIN
   7.9333    9.9704   10.3755  66.4720  77.1240  81.7850   2 1

