# MOL2 file generated by ConQuest
# Please check atom types

@<TRIPOS>MOLECULE
SEKJEY
    54    52     2
SMALL
NO_CHARGES
****
Generated from CSD

@<TRIPOS>ATOM
      1 O1        -1.9004    5.9599    7.5673 O.2       1 RES1    0.0000
      2 O2        -1.2221    4.0962    8.3353 O.2       1 RES1    0.0000
      3 O3        -4.8927    3.6657   11.4410 O.2       1 RES1    0.0000
      4 O4        -4.3394    5.4743   12.3945 O.2       1 RES1    0.0000
      5 N1        -1.6344    5.2220    8.4899 N.pl3     1 RES1    0.0000
      6 N2        -4.5602    4.8247   11.4061 N.pl3     1 RES1    0.0000
      7 C1        -1.8189    5.7781    9.9166 C.3       1 RES1    0.0000
      8 C2        -3.2168    6.3987   10.0085 C.3       1 RES1    0.0000
      9 H1        -3.1979    6.8814   10.7633 H         1 RES1    0.0000
     10 H2        -3.3402    6.9880    9.2328 H         1 RES1    0.0000
     11 C3        -4.4765    5.5436   10.0408 C.3       1 RES1    0.0000
     12 C4        -0.7741    6.8802   10.0259 C.3       1 RES1    0.0000
     13 H3         0.1407    6.5438    9.7982 H         1 RES1    0.0000
     14 H4        -0.9634    7.5506    9.3575 H         1 RES1    0.0000
     15 H5        -0.7777    7.2781   10.8778 H         1 RES1    0.0000
     16 C5        -1.5400    4.6760   10.9034 C.3       1 RES1    0.0000
     17 H6        -2.2285    3.9026   10.7702 H         1 RES1    0.0000
     18 H7        -1.6463    5.0633   11.8241 H         1 RES1    0.0000
     19 H8        -0.6766    4.3586   10.7821 H         1 RES1    0.0000
     20 C6        -4.5835    4.5197    8.9426 C.3       1 RES1    0.0000
     21 H9        -4.5396    4.9922    7.9363 H         1 RES1    0.0000
     22 H10       -3.9353    3.9500    8.9595 H         1 RES1    0.0000
     23 H11       -5.5004    4.1395    8.9458 H         1 RES1    0.0000
     24 C7        -5.6957    6.4585   10.0343 C.3       1 RES1    0.0000
     25 H12       -5.6763    7.0709   10.7206 H         1 RES1    0.0000
     26 H13       -5.7035    6.9406    9.1850 H         1 RES1    0.0000
     27 H14       -6.5935    5.9516   10.0715 H         1 RES1    0.0000
     28 O5        -1.5716    3.4697    2.7215 O.2       2 RES2    0.0000
     29 O6        -2.1350    1.6043    1.8828 O.2       2 RES2    0.0000
     30 N3        -1.9423    2.3285    2.8255 N.pl3     2 RES2    0.0000
     31 C8        -2.1412    1.7351    4.2322 C.3       2 RES2    0.0000
     32 C9        -3.4715    0.9890    4.2705 C.3       2 RES2    0.0000
     33 H15       -3.4301    0.4086    5.0238 H         2 RES2    0.0000
     34 C10       -1.0137    0.7172    4.3550 C.3       2 RES2    0.0000
     35 H16       -0.1563    1.1785    4.1851 H         2 RES2    0.0000
     36 H17       -1.0291    0.3553    5.1331 H         2 RES2    0.0000
     37 H18       -1.1294    0.0059    3.6299 H         2 RES2    0.0000
     38 C11       -2.0116    2.8408    5.2530 C.3       2 RES2    0.0000
     39 H19       -2.1353    2.4576    6.1205 H         2 RES2    0.0000
     40 H20       -1.2073    3.1920    5.1656 H         2 RES2    0.0000
     41 H21       -2.7586    3.6124    5.1314 H         2 RES2    0.0000
     42 O5B       -5.3714    3.4697    5.8195 O.2       2 RES2    0.0000
     43 O6B       -4.8080    1.6043    6.6582 O.2       2 RES2    0.0000
     44 N3B       -5.0008    2.3285    5.7154 N.pl3     2 RES2    0.0000
     45 C8B       -4.8018    1.7351    4.3088 C.3       2 RES2    0.0000
     46 H15B      -3.5130    0.4086    3.5172 H         2 RES2    0.0000
     47 C10B      -5.9294    0.7172    4.1859 C.3       2 RES2    0.0000
     48 H16B      -6.7868    1.1785    4.3559 H         2 RES2    0.0000
     49 H17B      -5.9139    0.3553    3.4078 H         2 RES2    0.0000
     50 H18B      -5.8136    0.0059    4.9111 H         2 RES2    0.0000
     51 C11B      -4.9314    2.8408    3.2879 C.3       2 RES2    0.0000
     52 H19B      -4.8077    2.4576    2.4205 H         2 RES2    0.0000
     53 H20B      -5.7358    3.1920    3.3754 H         2 RES2    0.0000
     54 H21B      -4.1844    3.6124    3.4096 H         2 RES2    0.0000
@<TRIPOS>BOND
     1    1    5 2
     2    2    5 2
     3    3    6 2
     4    4    6 2
     5    5    7 1
     6    6   11 1
     7    7    8 1
     8    8    9 1
     9   10    8 1
    10   11    8 1
    11   12    7 1
    12   13   12 1
    13   14   12 1
    14   15   12 1
    15   16    7 1
    16   17   16 1
    17   18   16 1
    18   19   16 1
    19   20   11 1
    20   21   20 1
    21   22   20 1
    22   23   20 1
    23   24   11 1
    24   25   24 1
    25   26   24 1
    26   27   24 1
    27   28   30 2
    28   29   30 2
    29   30   31 1
    30   31   32 1
    31   32   33 1
    32   34   31 1
    33   35   34 1
    34   36   34 1
    35   37   34 1
    36   38   31 1
    37   39   38 1
    38   40   38 1
    39   41   38 1
    40   42   44 2
    41   43   44 2
    42   44   45 1
    43   45   32 1
    44   46   32 1
    45   47   45 1
    46   48   47 1
    47   49   47 1
    48   50   47 1
    49   51   45 1
    50   52   51 1
    51   53   51 1
    52   54   51 1
@<TRIPOS>SUBSTRUCTURE
     1 RES1 1
     2 RES2 28

@<TRIPOS>CRYSIN
  29.1890    5.9220   22.0140  90.0000 129.1080  90.0000  15 1

