# MOL2 file generated by ConQuest
# Please check atom types

@<TRIPOS>MOLECULE
SEKJIC
    24    24     1
SMALL
USER_CHARGES
****
Generated from CSD

@<TRIPOS>ATOM
      1 O1         2.8466    2.4740    2.1722 O.2       1 RES1   -1.0000
      2 N1         3.6008    2.4740    4.2462 N.2       1 RES1    0.0000
      3 N2         2.6701    2.4740    3.4137 N.pl3     1 RES1    1.0000
      4 C1         3.5245    1.2419    6.3096 C.3       1 RES1    0.0000
      5 H1         3.1809    1.2766    7.1573 H         1 RES1    0.0000
      6 H2         4.5618    1.1974    6.3195 H         1 RES1    0.0000
      7 H3         3.3312    0.4651    5.8313 H         1 RES1    0.0000
      8 C2         3.0276    2.4740    5.6123 C.3       1 RES1    0.0000
      9 C3         1.5199    2.4740    5.4309 C.3       1 RES1    0.0000
     10 H4         1.1726    1.7813    5.8050 H         1 RES1    0.0000
     11 C4         1.2435    2.4740    3.9513 C.3       1 RES1    0.0000
     12 C5         0.5632    1.2281    3.4566 C.3       1 RES1    0.0000
     13 H5        -0.3605    1.2469    3.7139 H         1 RES1    0.0000
     14 H6         0.6163    1.2568    2.4803 H         1 RES1    0.0000
     15 H7         1.0609    0.4057    3.7139 H         1 RES1    0.0000
     16 C1C        3.5245    3.7061    6.3096 C.3       1 RES1    0.0000
     17 H1C        3.1809    3.6714    7.1573 H         1 RES1    0.0000
     18 H2C        4.5618    3.7506    6.3195 H         1 RES1    0.0000
     19 H3C        3.3312    4.4829    5.8313 H         1 RES1    0.0000
     20 H4C        1.1726    3.1667    5.8050 H         1 RES1    0.0000
     21 C5C        0.5632    3.7199    3.4566 C.3       1 RES1    0.0000
     22 H5C       -0.3605    3.7011    3.7139 H         1 RES1    0.0000
     23 H6C        0.6163    3.6912    2.4803 H         1 RES1    0.0000
     24 H7C        1.0609    4.5423    3.7139 H         1 RES1    0.0000
@<TRIPOS>BOND
     1    1    3 1
     2    2    3 2
     3    3   11 1
     4    4    5 1
     5    6    4 1
     6    7    4 1
     7    8    2 1
     8    9    8 1
     9   10    9 1
    10   11    9 1
    11   12   11 1
    12   13   12 1
    13   14   12 1
    14   15   12 1
    15   16    8 1
    16   17   16 1
    17   18   16 1
    18   19   16 1
    19   20    9 1
    20   21   11 1
    21   22   21 1
    22   23   21 1
    23   24   21 1
    24    4    8 1
@<TRIPOS>SUBSTRUCTURE
     1 RES1 1

@<TRIPOS>CRYSIN
   6.5803    9.8960    6.7875  90.0000 103.6230  90.0000  11 1

