# MOL2 file generated by ConQuest
# Please check atom types

@<TRIPOS>MOLECULE
SEKKIC
    30    30     1
SMALL
NO_CHARGES
****
Generated from CSD

@<TRIPOS>ATOM
      1 O1         6.7807    5.2805   11.7495 O.3       1 RES1    0.0000
      2 N1         7.1588    4.9369   10.4317 N.2       1 RES1    0.0000
      3 C1         6.3538    4.1470    9.8540 C.2       1 RES1    0.0000
      4 C2         6.7091    3.7380    8.4326 C.3       1 RES1    0.0000
      5 C3         5.4609    3.9928    7.5593 C.3       1 RES1    0.0000
      6 C4         4.1835    3.3851    8.1029 C.3       1 RES1    0.0000
      7 C5         3.9171    3.8853    9.5154 C.3       1 RES1    0.0000
      8 C6         5.0959    3.6037   10.4399 C.3       1 RES1    0.0000
      9 C7         7.8863    4.5420    7.8667 C.3       1 RES1    0.0000
     10 C8         7.0415    2.2587    8.4259 C.2       1 RES1    0.0000
     11 C9         8.1723    1.7551    8.0204 C.2       1 RES1    0.0000
     12 C10        9.3088    1.2655    7.6372 C.2       1 RES1    0.0000
     13 C11        9.6192    0.8448    6.2515 C.3       1 RES1    0.0000
     14 H1         7.6150    5.8495   12.1198 H         1 RES1    0.0000
     15 H2         5.3290    4.9801    7.4813 H         1 RES1    0.0000
     16 H3         5.6288    3.6060    6.6525 H         1 RES1    0.0000
     17 H4         4.2723    2.3896    8.1185 H         1 RES1    0.0000
     18 H5         3.4185    3.6434    7.5125 H         1 RES1    0.0000
     19 H6         3.7550    4.8715    9.4864 H         1 RES1    0.0000
     20 H7         3.1056    3.4249    9.8763 H         1 RES1    0.0000
     21 H8         4.9306    4.0360   11.3266 H         1 RES1    0.0000
     22 H9         5.1905    2.6163   10.5625 H         1 RES1    0.0000
     23 H10        8.6986    4.3819    8.4281 H         1 RES1    0.0000
     24 H11        7.6598    5.5165    7.8779 H         1 RES1    0.0000
     25 H12        8.0672    4.2522    6.9265 H         1 RES1    0.0000
     26 H13        6.3424    1.6242    8.7556 H         1 RES1    0.0000
     27 H14       10.0273    1.1638    8.3257 H         1 RES1    0.0000
     28 H15       10.4355    1.3496    5.8705 H         1 RES1    0.0000
     29 H16        9.8147   -0.1355    6.2470 H         1 RES1    0.0000
     30 H17        8.8256    1.0294    5.6722 H         1 RES1    0.0000
@<TRIPOS>BOND
     1    1    2 1
     2    2    3 2
     3    3    4 1
     4    4    5 1
     5    5    6 1
     6    6    7 1
     7    7    8 1
     8    8    3 1
     9    9    4 1
    10   10    4 1
    11   11   10 2
    12   12   11 2
    13   13   12 1
    14   14    1 1
    15   15    5 1
    16   16    5 1
    17   17    6 1
    18   18    6 1
    19   19    7 1
    20   20    7 1
    21   21    8 1
    22   22    8 1
    23   23    9 1
    24   24    9 1
    25   25    9 1
    26   26   10 1
    27   27   12 1
    28   28   13 1
    29   29   13 1
    30   30   13 1
@<TRIPOS>SUBSTRUCTURE
     1 RES1 1

@<TRIPOS>CRYSIN
   8.1470   11.6850   22.2790  90.0000  90.0000  90.0000  61 1

