# MOL2 file generated by ConQuest
# Please check atom types

@<TRIPOS>MOLECULE
SEKLIG
   116   116     4
SMALL
NO_CHARGES
****
Generated from CSD

@<TRIPOS>ATOM
      1 C1         4.6002   13.2458   13.9378 C.3       1 RES1    0.0000
      2 C2         5.3727   12.4342   12.9073 C.ar      1 RES1    0.0000
      3 C3         6.7138   12.1219   13.1267 C.ar      1 RES1    0.0000
      4 H1         7.1742   12.4160   13.9033 H         1 RES1    0.0000
      5 C4         7.3378   11.3614   12.1551 C.ar      1 RES1    0.0000
      6 H2         8.2498   11.1182   12.2615 H         1 RES1    0.0000
      7 C5         6.6645   10.9610   11.0555 C.ar      1 RES1    0.0000
      8 H3         7.0823   10.4219   10.3937 H         1 RES1    0.0000
      9 C6         5.3284   11.3684   10.9211 C.ar      1 RES1    0.0000
     10 C7         4.4924   10.9898    9.7267 C.3       1 RES1    0.0000
     11 N1         4.2457   12.4242   15.1954 N.pl3     1 RES1    0.0000
     12 N2         5.4204   14.4313   14.4555 N.pl3     1 RES1    0.0000
     13 N3         3.2967   13.7933   13.3414 N.pl3     1 RES1    0.0000
     14 N4         4.6723   12.0715   11.8308 N.ar      1 RES1    0.0000
     15 N5         3.0438   11.4329    9.8880 N.pl3     1 RES1    0.0000
     16 N6         4.9657   11.5886    8.3778 N.pl3     1 RES1    0.0000
     17 N7         4.4747    9.4593    9.5072 N.pl3     1 RES1    0.0000
     18 O1         5.0873   11.5956   15.5140 O.2       1 RES1    0.0000
     19 O2         3.2227   12.7001   15.7717 O.2       1 RES1    0.0000
     20 O3         5.3015   14.6866   15.6503 O.2       1 RES1    0.0000
     21 O4         6.1055   15.0019   13.6334 O.2       1 RES1    0.0000
     22 O5         2.3889   12.9993   13.2259 O.2       1 RES1    0.0000
     23 O6         3.3240   14.9722   13.0234 O.2       1 RES1    0.0000
     24 O7         2.2293   10.5521   10.1674 O.2       1 RES1    0.0000
     25 O8         2.8429   12.6210    9.7907 O.2       1 RES1    0.0000
     26 O9         4.1166   11.8071    7.5318 O.2       1 RES1    0.0000
     27 O10        6.1682   11.7754    8.2845 O.2       1 RES1    0.0000
     28 O11        4.4153    9.0641    8.3351 O.2       1 RES1    0.0000
     29 O12        4.5214    8.7935   10.4895 O.2       1 RES1    0.0000
     30 C8         3.1746    7.6683   13.6644 C.3       2 RES2    0.0000
     31 C9         3.9652    6.7968   12.7095 C.ar      2 RES2    0.0000
     32 C10        5.3302    6.5725   12.9440 C.ar      2 RES2    0.0000
     33 H4         5.7863    6.9415   13.6899 H         2 RES2    0.0000
     34 C11        5.9706    5.7659   11.9975 C.ar      2 RES2    0.0000
     35 H5         6.8963    5.5758   12.0983 H         2 RES2    0.0000
     36 C12        5.3108    5.2576   10.9563 C.ar      2 RES2    0.0000
     37 H6         5.7509    4.6980   10.3278 H         2 RES2    0.0000
     38 C13        3.9373    5.5744   10.8119 C.ar      2 RES2    0.0000
     39 C14        3.1078    5.0649    9.6761 C.3       2 RES2    0.0000
     40 N8         3.2456    7.1416   15.0987 N.pl3     2 RES2    0.0000
     41 N9         3.6647    9.1290   13.7351 N.pl3     2 RES2    0.0000
     42 N10        1.6963    7.7407   13.2165 N.pl3     2 RES2    0.0000
     43 N11        3.2643    6.2985   11.6977 N.ar      2 RES2    0.0000
     44 N12        1.6239    5.3943    9.8774 N.pl3     2 RES2    0.0000
     45 N13        3.4972    5.6601    8.2952 N.pl3     2 RES2    0.0000
     46 N14        3.1911    3.5436    9.5138 N.pl3     2 RES2    0.0000
     47 O13        3.5827    7.9292   15.9726 O.2       2 RES2    0.0000
     48 O14        2.9994    5.9717   15.2268 O.2       2 RES2    0.0000
     49 O15        2.8315    9.9564   14.0961 O.2       2 RES2    0.0000
     50 O16        4.8219    9.3269   13.4883 O.2       2 RES2    0.0000
     51 O17        0.9035    7.0642   13.8443 O.2       2 RES2    0.0000
     52 O18        1.4890    8.4386   12.2584 O.2       2 RES2    0.0000
     53 O19        0.9149    4.4671   10.2490 O.2       2 RES2    0.0000
     54 O20        1.3054    6.5510    9.7154 O.2       2 RES2    0.0000
     55 O21        4.6718    5.9029    8.1427 O.2       2 RES2    0.0000
     56 O22        2.6295    5.7874    7.4671 O.2       2 RES2    0.0000
     57 O23        3.4840    2.9206   10.4907 O.2       2 RES2    0.0000
     58 O24        2.9352    3.1050    8.3875 O.2       2 RES2    0.0000
     59 C15        7.6669    8.1399    6.0463 C.3       3 RES3    0.0000
     60 C16        8.5305    8.4828    4.8290 C.ar      3 RES3    0.0000
     61 C17        9.8350    8.0828    4.7392 C.ar      3 RES3    0.0000
     62 H7        10.2441    7.5689    5.4245 H         3 RES3    0.0000
     63 C18       10.5582    8.4761    3.5642 C.ar      3 RES3    0.0000
     64 H8        11.4635    8.2144    3.4437 H         3 RES3    0.0000
     65 C19        9.9130    9.2414    2.6096 C.ar      3 RES3    0.0000
     66 H9        10.3714    9.5354    1.8301 H         3 RES3    0.0000
     67 C20        8.5789    9.5705    2.8158 C.ar      3 RES3    0.0000
     68 C21        7.8093   10.3642    1.7834 C.3       3 RES3    0.0000
     69 N15        8.2044    8.6728    7.3732 N.pl3     3 RES3    0.0000
     70 N16        6.2546    8.6484    5.8354 N.pl3     3 RES3    0.0000
     71 N17        7.5658    6.6024    6.2428 N.pl3     3 RES3    0.0000
     72 N18        7.8780    9.2089    3.8869 N.ar      3 RES3    0.0000
     73 N19        6.5101   10.9213    2.3481 N.pl3     3 RES3    0.0000
     74 N20        8.6310   11.5532    1.2500 N.pl3     3 RES3    0.0000
     75 N21        7.4671    9.5539    0.5271 N.pl3     3 RES3    0.0000
     76 O25        7.3757    8.9412    8.2299 O.2       3 RES3    0.0000
     77 O26        9.3985    8.7113    7.4643 O.2       3 RES3    0.0000
     78 O27        6.1246    9.8589    5.9609 O.2       3 RES3    0.0000
     79 O28        5.4197    7.8329    5.5328 O.2       3 RES3    0.0000
     80 O29        7.2865    6.2048    7.3249 O.2       3 RES3    0.0000
     81 O30        7.7509    5.9376    5.2214 O.2       3 RES3    0.0000
     82 O31        5.6089   10.1418    2.4818 O.2       3 RES3    0.0000
     83 O32        6.5234   12.1075    2.6560 O.2       3 RES3    0.0000
     84 O33        9.3331   12.1276    2.0797 O.2       3 RES3    0.0000
     85 O34        8.5088   11.8183    0.0672 O.2       3 RES3    0.0000
     86 O35        6.4225    9.8236   -0.0703 O.2       3 RES3    0.0000
     87 O36        8.2949    8.7445    0.1824 O.2       3 RES3    0.0000
     88 C22        6.3549    2.2043    6.0761 C.3       4 RES4    0.0000
     89 C23        7.1847    2.6818    4.8833 C.ar      4 RES4    0.0000
     90 C24        8.5351    2.4032    4.8145 C.ar      4 RES4    0.0000
     91 H10        8.9717    1.8939    5.4872 H         4 RES4    0.0000
     92 C25        9.2425    2.9153    3.6910 C.ar      4 RES4    0.0000
     93 H11       10.1660    2.7243    3.5724 H         4 RES4    0.0000
     94 C26        8.5616    3.6914    2.7832 C.ar      4 RES4    0.0000
     95 H12        9.0115    4.0624    2.0342 H         4 RES4    0.0000
     96 C27        7.2143    3.9227    2.9769 C.ar      4 RES4    0.0000
     97 C28        6.3985    4.8013    2.0373 C.3       4 RES4    0.0000
     98 N22        6.7458    2.8602    7.3955 N.pl3     4 RES4    0.0000
     99 N23        4.8644    2.4514    5.8090 N.pl3     4 RES4    0.0000
    100 N24        6.5203    0.6896    6.2965 N.pl3     4 RES4    0.0000
    101 N25        6.5057    3.4117    3.9808 N.ar      4 RES4    0.0000
    102 N26        4.9444    4.8654    2.4573 N.pl3     4 RES4    0.0000
    103 N27        6.8868    6.2567    1.9466 N.pl3     4 RES4    0.0000
    104 N28        6.4723    4.2571    0.5858 N.pl3     4 RES4    0.0000
    105 O37        5.8765    2.9664    8.2472 O.2       4 RES4    0.0000
    106 O38        7.9061    3.1708    7.4878 O.2       4 RES4    0.0000
    107 O39        4.5259    3.6073    5.9446 O.2       4 RES4    0.0000
    108 O40        4.2003    1.5125    5.4615 O.2       4 RES4    0.0000
    109 O41        6.3932    0.2708    7.4072 O.2       4 RES4    0.0000
    110 O42        6.7467    0.0457    5.2760 O.2       4 RES4    0.0000
    111 O43        6.2053    3.0995    0.4659 O.2       4 RES4    0.0000
    112 O44        6.7860    5.0576   -0.2897 O.2       4 RES4    0.0000
    113 O45        4.1363    4.2067    1.8530 O.2       4 RES4    0.0000
    114 O46        4.7367    5.5751    3.4468 O.2       4 RES4    0.0000
    115 O47        6.0632    7.0880    1.5793 O.2       4 RES4    0.0000
    116 O48        8.0670    6.4577    2.2078 O.2       4 RES4    0.0000
@<TRIPOS>BOND
     1    1    2 1
     2    2    3 ar
     3    3    4 1
     4    5    3 ar
     5    6    5 1
     6    7    5 ar
     7    8    7 1
     8    9    7 ar
     9   10    9 1
    10   11    1 1
    11   12    1 1
    12   13    1 1
    13   14    2 ar
    14   15   10 1
    15   16   10 1
    16   17   10 1
    17   18   11 2
    18   19   11 2
    19   20   12 2
    20   21   12 2
    21   22   13 2
    22   23   13 2
    23   24   15 2
    24   25   15 2
    25   26   16 2
    26   27   16 2
    27   28   17 2
    28   29   17 2
    29   30   31 1
    30   31   32 ar
    31   32   33 1
    32   34   32 ar
    33   35   34 1
    34   36   34 ar
    35   37   36 1
    36   38   36 ar
    37   39   38 1
    38   40   30 1
    39   41   30 1
    40   42   30 1
    41   43   31 ar
    42   44   39 1
    43   45   39 1
    44   46   39 1
    45   47   40 2
    46   48   40 2
    47   49   41 2
    48   50   41 2
    49   51   42 2
    50   52   42 2
    51   53   44 2
    52   54   44 2
    53   55   45 2
    54   56   45 2
    55   57   46 2
    56   58   46 2
    57   59   60 1
    58   60   61 ar
    59   61   62 1
    60   63   61 ar
    61   64   63 1
    62   65   63 ar
    63   66   65 1
    64   67   65 ar
    65   68   67 1
    66   69   59 1
    67   70   59 1
    68   71   59 1
    69   72   60 ar
    70   73   68 1
    71   74   68 1
    72   75   68 1
    73   76   69 2
    74   77   69 2
    75   78   70 2
    76   79   70 2
    77   80   71 2
    78   81   71 2
    79   82   73 2
    80   83   73 2
    81   84   74 2
    82   85   74 2
    83   86   75 2
    84   87   75 2
    85   88   89 1
    86   89   90 ar
    87   90   91 1
    88   92   90 ar
    89   93   92 1
    90   94   92 ar
    91   95   94 1
    92   96   94 ar
    93   97   96 1
    94   98   88 1
    95   99   88 1
    96  100   88 1
    97  101   89 ar
    98  102   97 1
    99  103   97 1
   100  104   97 1
   101  105   98 2
   102  106   98 2
   103  107   99 2
   104  108   99 2
   105  109  100 2
   106  110  100 2
   107  111  104 2
   108  112  104 2
   109  113  102 2
   110  114  102 2
   111  115  103 2
   112  116  103 2
   113    9   14 ar
   114   38   43 ar
   115   67   72 ar
   116   96  101 ar
@<TRIPOS>SUBSTRUCTURE
     1 RES1 1
     2 RES2 30
     3 RES3 59
     4 RES4 88

@<TRIPOS>CRYSIN
   7.5655   11.7552   31.9329  79.4350  87.9360  78.4730   2 1

