# MOL2 file generated by ConQuest
# Please check atom types

@<TRIPOS>MOLECULE
SELBAN
    74    80     2
SMALL
NO_CHARGES
****
Generated from CSD

@<TRIPOS>ATOM
      1 N1         6.5006    4.1740    5.5639 N.2       1 RES1    0.0000
      2 N2         8.4954    5.2165    5.9330 N.2       1 RES1    0.0000
      3 N3         4.9109    9.5693    0.6015 N.2       2 RES2    0.0000
      4 N4         4.7474    8.1045   -1.1410 N.2       2 RES2    0.0000
      5 O1         7.4300    4.0946    2.1928 O.3       1 RES1    0.0000
      6 H1         8.0754    4.1013    1.6280 H         1 RES1    0.0000
      7 O2         7.1646    5.1820    6.2736 O.3       1 RES1    0.0000
      8 O3        10.0459    2.9508    3.7422 O.2       1 RES1    0.0000
      9 O4         5.8511    6.3926    2.1480 O.3       2 RES2    0.0000
     10 H2         6.2845    5.6075    2.1578 H         2 RES2    0.0000
     11 O5         4.2456    9.2577   -0.5834 O.3       2 RES2    0.0000
     12 O6         7.7384    6.6631   -0.3841 O.2       2 RES2    0.0000
     13 C1         7.0575    2.4304    3.9546 C.3       1 RES1    0.0000
     14 H3         7.7077    1.7506    4.1812 H         1 RES1    0.0000
     15 C2         7.1607    2.7056    2.4320 C.3       1 RES1    0.0000
     16 H4         7.8910    2.1889    2.0506 H         1 RES1    0.0000
     17 C3         5.7875    2.3031    1.9188 C.3       1 RES1    0.0000
     18 H5         5.6351    2.6626    1.0078 H         1 RES1    0.0000
     19 C4         5.6857    0.7753    2.0157 C.3       1 RES1    0.0000
     20 H6         6.4860    0.3500    1.6681 H         1 RES1    0.0000
     21 H7         4.9148    0.4451    1.5285 H         1 RES1    0.0000
     22 C5         5.5371    0.5242    3.5287 C.3       1 RES1    0.0000
     23 H8         4.6866    0.1050    3.7316 H         1 RES1    0.0000
     24 H9         6.2553   -0.0362    3.8621 H         1 RES1    0.0000
     25 C6         5.6140    1.9305    4.1218 C.3       1 RES1    0.0000
     26 H10        5.3078    2.0114    5.0146 H         1 RES1    0.0000
     27 C7         4.8883    2.7508    3.0624 C.3       1 RES1    0.0000
     28 H11        3.9648    2.4788    2.9434 H         1 RES1    0.0000
     29 H12        4.9378    3.7059    3.2277 H         1 RES1    0.0000
     30 C8         7.4005    3.6114    4.8146 C.2       1 RES1    0.0000
     31 C9         8.6506    4.2709    5.0498 C.2       1 RES1    0.0000
     32 C10        9.9852    3.9127    4.4862 C.2       1 RES1    0.0000
     33 C11       11.2030    4.6749    4.8811 C.ar      1 RES1    0.0000
     34 C12       12.3892    3.9843    4.9216 C.ar      1 RES1    0.0000
     35 H13       12.4062    3.0860    4.6813 H         1 RES1    0.0000
     36 C13       13.5444    4.6012    5.3105 C.ar      1 RES1    0.0000
     37 H14       14.3331    4.1140    5.3699 H         1 RES1    0.0000
     38 C14       13.5433    5.9265    5.6090 C.ar      1 RES1    0.0000
     39 H15       14.3347    6.3461    5.8597 H         1 RES1    0.0000
     40 C15       12.3909    6.6375    5.5405 C.ar      1 RES1    0.0000
     41 H16       12.3949    7.5500    5.7227 H         1 RES1    0.0000
     42 C16       11.2063    6.0067    5.2020 C.ar      1 RES1    0.0000
     43 H17       10.4105    6.4885    5.1916 H         1 RES1    0.0000
     44 C17        6.7624    8.6608    1.9067 C.3       2 RES2    0.0000
     45 H18        7.6036    8.8779    1.5066 H         2 RES2    0.0000
     46 C18        6.7842    7.3202    2.6889 C.3       2 RES2    0.0000
     47 H19        7.6932    6.9711    2.7134 H         2 RES2    0.0000
     48 C19        6.4238    7.7547    4.1063 C.3       2 RES2    0.0000
     49 H20        6.0891    6.9905    4.6412 H         2 RES2    0.0000
     50 C20        7.6019    8.5213    4.6916 C.3       2 RES2    0.0000
     51 H21        8.4356    8.0492    4.5391 H         2 RES2    0.0000
     52 H22        7.4885    8.6613    5.6452 H         2 RES2    0.0000
     53 C21        7.5751    9.8487    3.9331 C.3       2 RES2    0.0000
     54 H23        7.4438   10.5963    4.5378 H         2 RES2    0.0000
     55 H24        8.3941    9.9839    3.4331 H         2 RES2    0.0000
     56 C22        6.3812    9.6771    3.0041 C.3       2 RES2    0.0000
     57 H25        6.0378   10.5018    2.6514 H         2 RES2    0.0000
     58 C23        5.4235    8.8621    3.8504 C.3       2 RES2    0.0000
     59 H26        5.1519    9.3205    4.6606 H         2 RES2    0.0000
     60 H27        4.6456    8.5606    3.3556 H         2 RES2    0.0000
     61 C24        5.8198    8.6482    0.7458 C.2       2 RES2    0.0000
     62 C25        5.6958    7.7298   -0.3431 C.2       2 RES2    0.0000
     63 C26        6.5419    6.5345   -0.6149 C.2       2 RES2    0.0000
     64 C27        5.9545    5.2715   -1.1094 C.ar      2 RES2    0.0000
     65 C28        4.6032    5.1123   -1.3115 C.ar      2 RES2    0.0000
     66 H28        4.0225    5.8206   -1.1487 H         2 RES2    0.0000
     67 C29        4.1051    3.8997   -1.7572 C.ar      2 RES2    0.0000
     68 H29        3.1923    3.7994   -1.9045 H         2 RES2    0.0000
     69 C30        4.9422    2.8615   -1.9808 C.ar      2 RES2    0.0000
     70 H30        4.6011    2.0457   -2.2702 H         2 RES2    0.0000
     71 C31        6.2834    3.0047   -1.7831 C.ar      2 RES2    0.0000
     72 H31        6.8516    2.2857   -1.9407 H         2 RES2    0.0000
     73 C32        6.8038    4.2010   -1.3541 C.ar      2 RES2    0.0000
     74 H32        7.7210    4.2933   -1.2275 H         2 RES2    0.0000
@<TRIPOS>BOND
     1    1    7 1
     2    2    7 1
     3    3   11 1
     4    4   11 1
     5    5    6 1
     6    8   32 2
     7    9   10 1
     8   12   63 2
     9   13   14 1
    10   15    5 1
    11   16   15 1
    12   17   15 1
    13   18   17 1
    14   19   17 1
    15   20   19 1
    16   21   19 1
    17   22   19 1
    18   23   22 1
    19   24   22 1
    20   25   13 1
    21   26   25 1
    22   27   17 1
    23   28   27 1
    24   29   27 1
    25   30    1 2
    26   31    2 2
    27   32   31 1
    28   33   32 1
    29   34   33 ar
    30   35   34 1
    31   36   34 ar
    32   37   36 1
    33   38   36 ar
    34   39   38 1
    35   40   38 ar
    36   41   40 1
    37   42   33 ar
    38   43   42 1
    39   44   45 1
    40   46    9 1
    41   47   46 1
    42   48   46 1
    43   49   48 1
    44   50   48 1
    45   51   50 1
    46   52   50 1
    47   53   50 1
    48   54   53 1
    49   55   53 1
    50   56   44 1
    51   57   56 1
    52   58   48 1
    53   59   58 1
    54   60   58 1
    55   61    3 2
    56   62    4 2
    57   63   62 1
    58   64   63 1
    59   65   64 ar
    60   66   65 1
    61   67   65 ar
    62   68   67 1
    63   69   67 ar
    64   70   69 1
    65   71   69 ar
    66   72   71 1
    67   73   64 ar
    68   74   73 1
    69   13   15 1
    70   13   30 1
    71   22   25 1
    72   25   27 1
    73   30   31 1
    74   40   42 ar
    75   44   46 1
    76   44   61 1
    77   53   56 1
    78   56   58 1
    79   61   62 1
    80   71   73 ar
@<TRIPOS>SUBSTRUCTURE
     1 RES1 1
     2 RES2 3

@<TRIPOS>CRYSIN
  10.6810   10.9250   13.4910 104.3100  92.5600 111.8200   2 1

