# MOL2 file generated by ConQuest
# Please check atom types

@<TRIPOS>MOLECULE
SELGOH
    40    42     1
SMALL
NO_CHARGES
****
Generated from CSD

@<TRIPOS>ATOM
      1 O1         4.9787    5.0516    8.5307 O.3       1 RES1    0.0000
      2 O2         2.8805    6.0649    6.3922 O.3       1 RES1    0.0000
      3 O3         5.8784    4.2514    6.6302 O.2       1 RES1    0.0000
      4 O4         2.0504    0.2858    8.8622 O.2       1 RES1    0.0000
      5 O5         1.7808    5.2668    8.1824 O.2       1 RES1    0.0000
      6 O6         1.5241   -0.2853    6.8366 O.2       1 RES1    0.0000
      7 N1         1.9137    0.5358    7.6705 N.pl3     1 RES1    0.0000
      8 C1         4.9378    4.4128    7.3609 C.2       1 RES1    0.0000
      9 C2         4.3513    1.9701    8.5299 C.ar      1 RES1    0.0000
     10 C3         6.1557    0.4192    8.1162 C.ar      1 RES1    0.0000
     11 H1         6.6007   -0.1835    7.5335 H         1 RES1    0.0000
     12 C4         2.1826    1.9090    7.2266 C.3       1 RES1    0.0000
     13 C5         6.6399    0.6257    9.3966 C.ar      1 RES1    0.0000
     14 H2         7.4172    0.1675    9.6936 H         1 RES1    0.0000
     15 C6         2.3366    2.2336    5.7571 C.3       1 RES1    0.0000
     16 H3         2.3636    1.4842    5.0965 H         1 RES1    0.0000
     17 C7         3.1258    2.7476    8.0746 C.3       1 RES1    0.0000
     18 H4         2.6385    3.1127    8.8673 H         1 RES1    0.0000
     19 C8         1.0407    2.5438    6.4518 C.3       1 RES1    0.0000
     20 H5         0.2567    1.9777    6.2395 H         1 RES1    0.0000
     21 H6         0.8311    3.4940    6.6346 H         1 RES1    0.0000
     22 C9         3.3736    3.3283    5.6619 C.3       1 RES1    0.0000
     23 H7         3.0824    4.0285    5.0250 H         1 RES1    0.0000
     24 H8         4.2402    2.9595    5.3553 H         1 RES1    0.0000
     25 C10        4.8442    2.1714    9.8138 C.ar      1 RES1    0.0000
     26 H9         4.3987    2.7688   10.4030 H         1 RES1    0.0000
     27 C11        3.5071    3.9161    7.0914 C.3       1 RES1    0.0000
     28 C12        5.0202    1.0922    7.6813 C.ar      1 RES1    0.0000
     29 H10        4.6980    0.9514    6.7980 H         1 RES1    0.0000
     30 C13        5.9858    1.5024   10.2389 C.ar      1 RES1    0.0000
     31 H11        6.3187    1.6499   11.1159 H         1 RES1    0.0000
     32 C14        2.1411    7.3076    6.4932 C.3       1 RES1    0.0000
     33 H12        2.3628    7.7524    7.3383 H         1 RES1    0.0000
     34 H13        1.1795    7.1198    6.4654 H         1 RES1    0.0000
     35 H14        2.3813    7.8931    5.7447 H         1 RES1    0.0000
     36 C15        6.2866    5.5068    8.9622 C.3       1 RES1    0.0000
     37 H15        6.6355    6.1577    8.3168 H         1 RES1    0.0000
     38 H16        6.8971    4.7412    9.0171 H         1 RES1    0.0000
     39 H17        6.2116    5.9296    9.8434 H         1 RES1    0.0000
     40 C16        2.6034    5.1385    7.3130 C.2       1 RES1    0.0000
@<TRIPOS>BOND
     1    1    8 1
     2    2   32 1
     3    3    8 2
     4    4    7 2
     5    5   40 2
     6    6    7 2
     7    7   12 1
     8    8   27 1
     9    9   17 1
    10   10   11 1
    11   12   15 1
    12   13   10 ar
    13   14   13 1
    14   15   16 1
    15   17   12 1
    16   18   17 1
    17   19   12 1
    18   20   19 1
    19   21   19 1
    20   22   15 1
    21   23   22 1
    22   24   22 1
    23   25    9 ar
    24   26   25 1
    25   27   17 1
    26   28    9 ar
    27   29   28 1
    28   30   13 ar
    29   31   30 1
    30   32   33 1
    31   34   32 1
    32   35   32 1
    33   36    1 1
    34   37   36 1
    35   38   36 1
    36   39   36 1
    37   40    2 1
    38   10   28 ar
    39   15   19 1
    40   22   27 1
    41   25   30 ar
    42   27   40 1
@<TRIPOS>SUBSTRUCTURE
     1 RES1 1

@<TRIPOS>CRYSIN
   7.7508   17.8174   11.3873  90.0000  94.5870  90.0000  14 1

