# MOL2 file generated by ConQuest
# Please check atom types

@<TRIPOS>MOLECULE
SELGIB
   102   106     2
SMALL
NO_CHARGES
****
Generated from CSD

@<TRIPOS>ATOM
      1 O1         3.8638    7.5825    5.0566 O.3       1 RES1    0.0000
      2 O2         1.8558    8.4400    4.3097 O.3       1 RES1    0.0000
      3 O3         0.8064   12.9898    5.2526 O.2       1 RES1    0.0000
      4 O4         0.8189   13.5927    7.3998 O.3       1 RES1    0.0000
      5 O5         1.0427   11.1216    9.1365 O.3       1 RES1    0.0000
      6 O6         3.1245   11.7239    8.7724 O.2       1 RES1    0.0000
      7 O7         6.3092    7.1777    7.2331 O.2       1 RES1    0.0000
      8 O8         5.2741    5.5054    6.1691 O.3       1 RES1    0.0000
      9 N1         3.1401    8.8272    4.7686 N.3       1 RES1    0.0000
     10 C1         3.9935    8.8642    7.0005 C.3       1 RES1    0.0000
     11 C2         0.6468   10.3059    6.5435 C.3       1 RES1    0.0000
     12 C3         4.0279    7.4429    6.4888 C.3       1 RES1    0.0000
     13 C4         1.6610   11.4308    6.8576 C.3       1 RES1    0.0000
     14 C5         5.3470    6.7261    6.6866 C.2       1 RES1    0.0000
     15 C6         2.9011    9.4642    6.1191 C.3       1 RES1    0.0000
     16 C7         2.0501   11.4582    8.3471 C.2       1 RES1    0.0000
     17 C8         4.2076   11.7485    6.0425 C.3       1 RES1    0.0000
     18 C9         1.0719    8.0324    5.4530 C.3       1 RES1    0.0000
     19 C10        1.0629   12.7634    6.3928 C.2       1 RES1    0.0000
     20 C11        2.8546   11.0035    5.9495 C.3       1 RES1    0.0000
     21 C12        1.4668    9.0194    6.5300 C.3       1 RES1    0.0000
     22 C13        5.0957   11.3570    4.8569 C.3       1 RES1    0.0000
     23 C14        1.3577   11.1298   10.5617 C.3       1 RES1    0.0000
     24 C15        4.0539   13.2719    6.0854 C.3       1 RES1    0.0000
     25 C16        6.4929    4.7214    6.1713 C.3       1 RES1    0.0000
     26 C17        0.2670   14.8849    7.0285 C.3       1 RES1    0.0000
     27 H1         4.8441    9.3128    6.8685 H         1 RES1    0.0000
     28 H2         3.7531    8.9001    7.9396 H         1 RES1    0.0000
     29 H3        -0.0426   10.2652    7.2247 H         1 RES1    0.0000
     30 H4         0.2273   10.4546    5.6812 H         1 RES1    0.0000
     31 H5         3.2908    6.9217    6.8710 H         1 RES1    0.0000
     32 H6         4.6559   11.4636    6.8660 H         1 RES1    0.0000
     33 H7         1.2880    7.1252    5.7174 H         1 RES1    0.0000
     34 H8         0.1228    8.0890    5.2619 H         1 RES1    0.0000
     35 H9         2.5439   11.1499    5.0320 H         1 RES1    0.0000
     36 H10        1.4697    8.5949    7.4133 H         1 RES1    0.0000
     37 H11        5.9559   11.7745    4.9503 H         1 RES1    0.0000
     38 H12        4.6859   11.6501    4.0393 H         1 RES1    0.0000
     39 H13        5.2023   10.4037    4.8384 H         1 RES1    0.0000
     40 H14        1.7934   11.9554   10.7882 H         1 RES1    0.0000
     41 H15        1.9404   10.3952   10.7646 H         1 RES1    0.0000
     42 H16        0.5471   11.0453   11.0694 H         1 RES1    0.0000
     43 H17        3.5570   13.5664    5.3183 H         1 RES1    0.0000
     44 H18        4.9225   13.6823    6.0795 H         1 RES1    0.0000
     45 H19        3.5866   13.5240    6.8854 H         1 RES1    0.0000
     46 H20        6.8477    4.6832    7.0622 H         1 RES1    0.0000
     47 H21        7.1374    5.1298    5.5878 H         1 RES1    0.0000
     48 H22        6.3022    3.8325    5.8640 H         1 RES1    0.0000
     49 H23       -0.4611   14.7591    6.4163 H         1 RES1    0.0000
     50 H24        0.9482   15.4148    6.6100 H         1 RES1    0.0000
     51 H25       -0.0513   15.3357    7.8150 H         1 RES1    0.0000
     52 O9         4.2803    6.5486    0.8464 O.3       2 RES2    0.0000
     53 O10        2.2735    5.6891    0.0997 O.3       2 RES2    0.0000
     54 O11        5.6920    8.6265    1.9578 O.3       2 RES2    0.0000
     55 O12        6.7285    6.9533    3.0229 O.2       2 RES2    0.0000
     56 O13        3.5426    2.4069    4.5591 O.2       2 RES2    0.0000
     57 O14        1.4635    3.0109    4.9276 O.3       2 RES2    0.0000
     58 O15        1.2218    1.1441    1.0424 O.2       2 RES2    0.0000
     59 O16        1.2399    0.5373    3.1890 O.3       2 RES2    0.0000
     60 N2         3.5610    5.3039    0.5577 N.3       2 RES2    0.0000
     61 C18        2.0804    2.6991    2.6474 C.3       2 RES2    0.0000
     62 C19        1.0651    3.8274    2.3350 C.3       2 RES2    0.0000
     63 C20        4.4475    6.6899    2.2763 C.3       2 RES2    0.0000
     64 C21        5.7629    7.4070    2.4790 C.2       2 RES2    0.0000
     65 C22        3.3228    4.6657    1.9091 C.3       2 RES2    0.0000
     66 C23        2.4687    2.6768    4.1369 C.2       2 RES2    0.0000
     67 C24        4.6261    2.3823    1.8323 C.3       2 RES2    0.0000
     68 C25        1.4895    6.1020    1.2437 C.3       2 RES2    0.0000
     69 C26        1.4809    1.3770    2.1876 C.2       2 RES2    0.0000
     70 C27        3.2699    3.1268    1.7407 C.3       2 RES2    0.0000
     71 C28        1.8835    5.1114    2.3223 C.3       2 RES2    0.0000
     72 C29        5.5118    2.7729    0.6475 C.3       2 RES2    0.0000
     73 C30        1.7710    3.0050    6.3490 C.3       2 RES2    0.0000
     74 C31        4.4676    0.8581    1.8777 C.3       2 RES2    0.0000
     75 C32        0.6824   -0.7515    2.8183 C.3       2 RES2    0.0000
     76 C33        6.9112    9.4077    1.9645 C.3       2 RES2    0.0000
     77 C34        4.4115    5.2686    2.7880 C.3       2 RES2    0.0000
     78 H26        0.6442    3.6827    1.4727 H         2 RES2    0.0000
     79 H27        0.3758    3.8664    3.0162 H         2 RES2    0.0000
     80 H28        3.7096    7.2100    2.6583 H         2 RES2    0.0000
     81 H29        5.0752    2.6681    2.6558 H         2 RES2    0.0000
     82 H30        0.5397    6.0483    1.0525 H         2 RES2    0.0000
     83 H31        1.7089    7.0093    1.5073 H         2 RES2    0.0000
     84 H32        2.9584    2.9790    0.8235 H         2 RES2    0.0000
     85 H33        1.8864    5.5368    3.2056 H         2 RES2    0.0000
     86 H34        5.0980    2.4843   -0.1692 H         2 RES2    0.0000
     87 H35        6.3700    2.3515    0.7376 H         2 RES2    0.0000
     88 H36        5.6228    3.7251    0.6324 H         2 RES2    0.0000
     89 H37        2.3608    3.7336    6.5519 H         2 RES2    0.0000
     90 H38        2.1961    2.1763    6.5805 H         2 RES2    0.0000
     91 H39        0.9593    3.1005    6.8525 H         2 RES2    0.0000
     92 H40        5.3351    0.4466    1.8744 H         2 RES2    0.0000
     93 H41        3.9714    0.5653    1.1106 H         2 RES2    0.0000
     94 H42        3.9978    0.6077    2.6777 H         2 RES2    0.0000
     95 H43        1.3799   -1.3142    2.4722 H         2 RES2    0.0000
     96 H44        0.0087   -0.6274    2.1464 H         2 RES2    0.0000
     97 H45        0.2920   -1.1644    3.5913 H         2 RES2    0.0000
     98 H46        7.5445    9.0160    1.3591 H         2 RES2    0.0000
     99 H47        7.2797    9.4173    2.8511 H         2 RES2    0.0000
    100 H48        6.7165   10.3076    1.6891 H         2 RES2    0.0000
    101 H49        4.1703    5.2344    3.7269 H         2 RES2    0.0000
    102 H50        5.2627    4.8217    2.6575 H         2 RES2    0.0000
@<TRIPOS>BOND
     1    1    9 1
     2    2    9 1
     3    3   19 2
     4    4   19 1
     5    5   16 1
     6    6   16 2
     7    7   14 2
     8    8   14 1
     9    9   15 1
    10   10   12 1
    11   11   13 1
    12   12    1 1
    13   13   16 1
    14   14   12 1
    15   15   10 1
    16   17   20 1
    17   18    2 1
    18   19   13 1
    19   20   13 1
    20   21   11 1
    21   22   17 1
    22   23    5 1
    23   24   17 1
    24   25    8 1
    25   26    4 1
    26   27   10 1
    27   28   10 1
    28   29   11 1
    29   30   11 1
    30   31   12 1
    31   32   17 1
    32   33   18 1
    33   34   18 1
    34   35   20 1
    35   36   21 1
    36   37   22 1
    37   38   22 1
    38   39   22 1
    39   40   23 1
    40   41   23 1
    41   42   23 1
    42   43   24 1
    43   44   24 1
    44   45   24 1
    45   46   25 1
    46   47   25 1
    47   48   25 1
    48   49   26 1
    49   50   26 1
    50   51   26 1
    51   52   60 1
    52   53   60 1
    53   54   64 1
    54   55   64 2
    55   56   66 2
    56   57   66 1
    57   58   69 2
    58   59   69 1
    59   60   65 1
    60   61   62 1
    61   62   71 1
    62   63   52 1
    63   64   63 1
    64   65   70 1
    65   66   61 1
    66   67   70 1
    67   68   53 1
    68   69   61 1
    69   70   61 1
    70   71   65 1
    71   72   67 1
    72   73   57 1
    73   74   67 1
    74   75   59 1
    75   76   54 1
    76   77   63 1
    77   78   62 1
    78   79   62 1
    79   80   63 1
    80   81   67 1
    81   82   68 1
    82   83   68 1
    83   84   70 1
    84   85   71 1
    85   86   72 1
    86   87   72 1
    87   88   72 1
    88   89   73 1
    89   90   73 1
    90   91   73 1
    91   92   74 1
    92   93   74 1
    93   94   74 1
    94   95   75 1
    95   96   75 1
    96   97   75 1
    97   98   76 1
    98   99   76 1
    99  100   76 1
   100  101   77 1
   101  102   77 1
   102   15   20 1
   103   15   21 1
   104   18   21 1
   105   65   77 1
   106   68   71 1
@<TRIPOS>SUBSTRUCTURE
     1 RES1 1
     2 RES2 52

@<TRIPOS>CRYSIN
   7.8196   28.2633    8.4619  90.0000  95.6773  90.0000   2 1

