# MOL2 file generated by ConQuest
# Please check atom types

@<TRIPOS>MOLECULE
SELHIC
    60    64     1
SMALL
NO_CHARGES
****
Generated from CSD

@<TRIPOS>ATOM
      1 O1         2.6305    2.1087   22.5126 O.2       1 RES1    0.0000
      2 O2         1.1911    0.3329   20.0934 O.3       1 RES1    0.0000
      3 O3        -1.3538    1.9862   17.7004 O.2       1 RES1    0.0000
      4 O4         0.1424    2.3658   16.0807 O.3       1 RES1    0.0000
      5 O5         1.0332    5.7113   16.9238 O.2       1 RES1    0.0000
      6 O6        -1.1151    5.0931   16.9559 O.3       1 RES1    0.0000
      7 N1         0.0683    1.2656   20.3178 N.3       1 RES1    0.0000
      8 C1         0.7717   -2.0022   24.6428 C.ar      1 RES1    0.0000
      9 C2         1.9552   -1.3918   24.7447 C.ar      1 RES1    0.0000
     10 C3         2.2102   -0.2424   24.0143 C.ar      1 RES1    0.0000
     11 C4         1.2587    0.2784   23.1564 C.ar      1 RES1    0.0000
     12 C5         0.0463   -0.3615   23.0528 C.ar      1 RES1    0.0000
     13 C6        -0.1928   -1.5087   23.8104 C.ar      1 RES1    0.0000
     14 C7         1.5655    1.5294   22.3903 C.2       1 RES1    0.0000
     15 C8         0.4787    2.0691   21.5155 C.3       1 RES1    0.0000
     16 C9         0.7181    2.6331   20.1633 C.3       1 RES1    0.0000
     17 C10        2.0285    2.4385   19.4091 C.3       1 RES1    0.0000
     18 C11        2.0497    0.9459   19.1390 C.3       1 RES1    0.0000
     19 C12        1.9004    3.3145   18.1623 C.3       1 RES1    0.0000
     20 C13        0.3988    3.6528   18.0485 C.3       1 RES1    0.0000
     21 C14       -0.1059    3.7273   19.5212 C.3       1 RES1    0.0000
     22 C15        0.1797    4.9359   17.2450 C.2       1 RES1    0.0000
     23 C16       -1.4736    6.2706   16.1867 C.3       1 RES1    0.0000
     24 C17       -0.3889    2.5634   17.2926 C.2       1 RES1    0.0000
     25 C18       -0.5626    1.4292   15.2304 C.3       1 RES1    0.0000
     26 C19        0.0253    5.0985   20.2262 C.3       1 RES1    0.0000
     27 C20        1.3503    5.5390   20.6237 C.3       1 RES1    0.0000
     28 C21        1.3404    6.8745   21.3626 C.3       1 RES1    0.0000
     29 C22        0.3533    7.2230   22.1848 C.3       1 RES1    0.0000
     30 C23       -0.9837    6.7987   21.7125 C.3       1 RES1    0.0000
     31 C24       -0.9470    5.4567   21.0229 C.3       1 RES1    0.0000
     32 H1         0.6030   -2.7684   25.1422 H         1 RES1    0.0000
     33 H2         2.6088   -1.7381   25.3087 H         1 RES1    0.0000
     34 H3         3.0325    0.1818   24.1009 H         1 RES1    0.0000
     35 H4        -0.6111   -0.0325   22.4837 H         1 RES1    0.0000
     36 H5        -1.0143   -1.9394   23.7476 H         1 RES1    0.0000
     37 H6        -0.2651    2.4827   22.0013 H         1 RES1    0.0000
     38 H7         2.7951    2.7100   19.9561 H         1 RES1    0.0000
     39 H8         1.7376    0.7619   18.2387 H         1 RES1    0.0000
     40 H9         2.9517    0.5996   19.2291 H         1 RES1    0.0000
     41 H10        2.2033    2.8355   17.3758 H         1 RES1    0.0000
     42 H11        2.4268    4.1234   18.2574 H         1 RES1    0.0000
     43 H12       -1.0480    3.4589   19.5399 H         1 RES1    0.0000
     44 H13       -1.0866    6.2100   15.3102 H         1 RES1    0.0000
     45 H14       -1.1419    7.0541   16.6301 H         1 RES1    0.0000
     46 H15       -2.4290    6.3247   16.1120 H         1 RES1    0.0000
     47 H16       -1.4703    1.7208   15.1166 H         1 RES1    0.0000
     48 H17       -0.5560    0.5606   15.6381 H         1 RES1    0.0000
     49 H18       -0.1306    1.3853   14.3759 H         1 RES1    0.0000
     50 H19       -0.1387    5.6992   19.4686 H         1 RES1    0.0000
     51 H20        1.9064    5.6212   19.8338 H         1 RES1    0.0000
     52 H21        1.7473    4.8658   21.1978 H         1 RES1    0.0000
     53 H22        2.1613    6.9156   21.8790 H         1 RES1    0.0000
     54 H23        1.4011    7.5693   20.6882 H         1 RES1    0.0000
     55 H24        0.3578    8.1883   22.2901 H         1 RES1    0.0000
     56 H25        0.5171    6.8312   23.0579 H         1 RES1    0.0000
     57 H26       -1.3292    7.4632   21.0959 H         1 RES1    0.0000
     58 H27       -1.5889    6.7511   22.4685 H         1 RES1    0.0000
     59 H28       -0.9966    4.7836   21.7210 H         1 RES1    0.0000
     60 H29       -1.7678    5.3853   20.5116 H         1 RES1    0.0000
@<TRIPOS>BOND
     1    1   14 2
     2    2    7 1
     3    3   24 2
     4    4   24 1
     5    5   22 2
     6    6   22 1
     7    7   15 1
     8    8    9 ar
     9    9   10 ar
    10   10   11 ar
    11   11   12 ar
    12   12   13 ar
    13   13    8 ar
    14   14   11 1
    15   15   14 1
    16   16    7 1
    17   17   16 1
    18   18    2 1
    19   19   17 1
    20   20   19 1
    21   21   16 1
    22   22   20 1
    23   23    6 1
    24   24   20 1
    25   25    4 1
    26   26   21 1
    27   27   26 1
    28   28   27 1
    29   29   28 1
    30   30   29 1
    31   31   26 1
    32   32    8 1
    33   33    9 1
    34   34   10 1
    35   35   12 1
    36   36   13 1
    37   37   15 1
    38   38   17 1
    39   39   18 1
    40   40   18 1
    41   41   19 1
    42   42   19 1
    43   43   21 1
    44   44   23 1
    45   45   23 1
    46   46   23 1
    47   47   25 1
    48   48   25 1
    49   49   25 1
    50   50   26 1
    51   51   27 1
    52   52   27 1
    53   53   28 1
    54   54   28 1
    55   55   29 1
    56   56   29 1
    57   57   30 1
    58   58   30 1
    59   59   31 1
    60   60   31 1
    61   15   16 1
    62   17   18 1
    63   20   21 1
    64   30   31 1
@<TRIPOS>SUBSTRUCTURE
     1 RES1 1

@<TRIPOS>CRYSIN
   6.0984   21.6451   17.4041  90.0000 102.5719  90.0000  14 1

