# MOL2 file generated by ConQuest
# Please check atom types

@<TRIPOS>MOLECULE
SELXOY
    47    50     1
SMALL
NO_CHARGES
****
Generated from CSD

@<TRIPOS>ATOM
      1 N1        -0.6446   -0.3013    6.2402 N.3       1 RES1    0.0000
      2 C1        -1.5877   -1.4018    5.9022 C.3       1 RES1    0.0000
      3 C2        -1.5370   -2.5516    6.9179 C.3       1 RES1    0.0000
      4 H1        -2.3452   -3.1103    6.7979 H         1 RES1    0.0000
      5 H2        -0.7519   -3.1184    6.7092 H         1 RES1    0.0000
      6 C3        -1.4534   -2.1400    8.3721 C.3       1 RES1    0.0000
      7 H3        -2.3159   -1.7481    8.6611 H         1 RES1    0.0000
      8 H4        -1.2674   -2.9318    8.9366 H         1 RES1    0.0000
      9 C4        -0.3452   -1.1219    8.5344 C.3       1 RES1    0.0000
     10 H5         0.5197   -1.5324    8.2851 H         1 RES1    0.0000
     11 H6        -0.2904   -0.8420    9.4824 H         1 RES1    0.0000
     12 C5        -0.5966    0.0945    7.6623 C.3       1 RES1    0.0000
     13 H7        -1.4716    0.5061    7.9184 H         1 RES1    0.0000
     14 C6        -1.2190   -1.9511    4.5122 C.3       1 RES1    0.0000
     15 H8        -0.3607   -2.4385    4.5815 H         1 RES1    0.0000
     16 H9        -1.9114   -2.6018    4.2351 H         1 RES1    0.0000
     17 C7        -1.0912   -0.8840    3.4323 C.3       1 RES1    0.0000
     18 H10       -0.2284   -0.4117    3.5439 H         1 RES1    0.0000
     19 H11       -1.0856   -1.3201    2.5443 H         1 RES1    0.0000
     20 C8        -2.2202    0.1271    3.4805 C.3       1 RES1    0.0000
     21 H12       -1.9838    0.9236    2.9414 H         1 RES1    0.0000
     22 H13       -3.0449   -0.2694    3.1036 H         1 RES1    0.0000
     23 C9        -2.4548    0.5330    4.9229 C.3       1 RES1    0.0000
     24 H14       -3.1062    1.2887    4.9812 H         1 RES1    0.0000
     25 C10       -2.9446   -0.6717    5.7138 C.3       1 RES1    0.0000
     26 H15       -3.5390   -1.2268    5.1325 H         1 RES1    0.0000
     27 O1        -1.1921    0.8850    5.5445 O.3       1 RES1    0.0000
     28 C11       -3.6763   -0.2962    6.9306 C.1       1 RES1    0.0000
     29 N2        -4.3033    0.0257    7.8330 N.1       1 RES1    0.0000
     30 C12        0.5108    1.1289    7.8280 C.3       1 RES1    0.0000
     31 H16        1.3940    0.7289    7.6302 H         1 RES1    0.0000
     32 H17        0.3652    1.8951    7.2179 H         1 RES1    0.0000
     33 C13        1.5561    2.2962    9.6202 C.3       1 RES1    0.0000
     34 H18        1.5874    3.1674    9.1504 H         1 RES1    0.0000
     35 H19        2.3935    1.8064    9.4267 H         1 RES1    0.0000
     36 C14        1.4133    2.5132   11.1006 C.ar      1 RES1    0.0000
     37 C15        0.5855    1.6910   11.8636 C.ar      1 RES1    0.0000
     38 H20        0.1079    0.9878   11.4403 H         1 RES1    0.0000
     39 C16        0.4489    1.8822   13.2173 C.ar      1 RES1    0.0000
     40 H21       -0.1154    1.3061   13.7209 H         1 RES1    0.0000
     41 C17        1.1272    2.9062   13.8519 C.ar      1 RES1    0.0000
     42 H22        1.0267    3.0426   14.7873 H         1 RES1    0.0000
     43 C18        1.9614    3.7365   13.1015 C.ar      1 RES1    0.0000
     44 H23        2.4346    4.4409   13.5291 H         1 RES1    0.0000
     45 C19        2.1032    3.5406   11.7403 C.ar      1 RES1    0.0000
     46 H24        2.6740    4.1097   11.2375 H         1 RES1    0.0000
     47 O2         0.4456    1.5505    9.1825 O.3       1 RES1    0.0000
@<TRIPOS>BOND
     1    1    2 1
     2    2    3 1
     3    3    4 1
     4    5    3 1
     5    6    3 1
     6    7    6 1
     7    8    6 1
     8    9    6 1
     9   10    9 1
    10   11    9 1
    11   12    1 1
    12   13   12 1
    13   14    2 1
    14   15   14 1
    15   16   14 1
    16   17   14 1
    17   18   17 1
    18   19   17 1
    19   20   17 1
    20   21   20 1
    21   22   20 1
    22   23   20 1
    23   24   23 1
    24   25    2 1
    25   26   25 1
    26   27    1 1
    27   28   25 1
    28   29   28 3
    29   30   12 1
    30   31   30 1
    31   32   30 1
    32   33   34 1
    33   35   33 1
    34   36   33 1
    35   37   36 ar
    36   38   37 1
    37   39   37 ar
    38   40   39 1
    39   41   39 ar
    40   42   41 1
    41   43   41 ar
    42   44   43 1
    43   45   36 ar
    44   46   45 1
    45   47   30 1
    46    9   12 1
    47   23   25 1
    48   23   27 1
    49   33   47 1
    50   43   45 ar
@<TRIPOS>SUBSTRUCTURE
     1 RES1 1

@<TRIPOS>CRYSIN
   8.4675   11.6620    8.6820  90.0000 103.2790  90.0000   4 1

