# MOL2 file generated by ConQuest
# Please check atom types

@<TRIPOS>MOLECULE
SEMBUJ
    78    82     2
SMALL
NO_CHARGES
****
Generated from CSD

@<TRIPOS>ATOM
      1 O1         6.6144    4.8654    9.5182 O.2       1 RES1    0.0000
      2 O2         5.3646    3.3712   10.4133 O.2       1 RES1    0.0000
      3 O3         4.2693    1.7088    8.3945 O.3       1 RES1    0.0000
      4 N1         6.3036    3.7089    9.7255 N.pl3     1 RES1    0.0000
      5 N2         2.9946    1.2169    8.7658 N.2       1 RES1    0.0000
      6 C1         7.1296    2.6587    9.0836 C.ar      1 RES1    0.0000
      7 C2         8.4357    2.9862    8.8007 C.ar      1 RES1    0.0000
      8 H1         8.7631    3.8564    8.9946 H         1 RES1    0.0000
      9 C3         9.2668    2.0414    8.2325 C.ar      1 RES1    0.0000
     10 H2        10.1688    2.2560    8.0229 H         1 RES1    0.0000
     11 C4         8.7688    0.7803    7.9748 C.ar      1 RES1    0.0000
     12 H3         9.3330    0.1261    7.5776 H         1 RES1    0.0000
     13 C5         7.4515    0.4521    8.2879 C.ar      1 RES1    0.0000
     14 H4         7.1317   -0.4263    8.1196 H         1 RES1    0.0000
     15 C6         6.5998    1.3998    8.8441 C.ar      1 RES1    0.0000
     16 C7         5.1900    1.0229    9.0883 C.2       1 RES1    0.0000
     17 C8         4.6015    0.1106    9.8702 C.2       1 RES1    0.0000
     18 H5         5.0222   -0.5126   10.4520 H         1 RES1    0.0000
     19 C9         3.2115    0.2788    9.6412 C.2       1 RES1    0.0000
     20 C10        2.0521   -0.4174   10.2833 C.ar      1 RES1    0.0000
     21 C11        1.7157   -1.7169    9.8927 C.ar      1 RES1    0.0000
     22 C12        0.6556   -2.3475   10.5130 C.ar      1 RES1    0.0000
     23 H6         0.4188   -3.2259   10.2406 H         1 RES1    0.0000
     24 C13       -0.0736   -1.7390   11.5215 C.ar      1 RES1    0.0000
     25 C14        0.2655   -0.4491   11.9003 C.ar      1 RES1    0.0000
     26 H7        -0.2371   -0.0170   12.5820 H         1 RES1    0.0000
     27 C15        1.3322    0.2294   11.3004 C.ar      1 RES1    0.0000
     28 C16        2.4752   -2.4286    8.7802 C.3       1 RES1    0.0000
     29 H8         2.1018   -3.3247    8.6504 H         1 RES1    0.0000
     30 H9         3.4215   -2.5009    9.0260 H         1 RES1    0.0000
     31 H10        2.3906   -1.9168    7.9487 H         1 RES1    0.0000
     32 C17       -1.2160   -2.4707   12.1997 C.3       1 RES1    0.0000
     33 H11       -1.3139   -3.3623   11.8038 H         1 RES1    0.0000
     34 H12       -2.0464   -1.9655   12.0760 H         1 RES1    0.0000
     35 H13       -1.0270   -2.5562   13.1578 H         1 RES1    0.0000
     36 C18        1.7253    1.6004   11.7752 C.3       1 RES1    0.0000
     37 H14        1.1150    1.8880   12.4853 H         1 RES1    0.0000
     38 H15        1.6754    2.2317   11.0278 H         1 RES1    0.0000
     39 H16        2.6412    1.5761   12.1232 H         1 RES1    0.0000
     40 O4        -1.9773    2.5075    4.7924 O.2       2 RES2    0.0000
     41 O5        -1.0517    3.9921    3.5346 O.2       2 RES2    0.0000
     42 O6         0.2834    5.4694    5.6131 O.3       2 RES2    0.0000
     43 N3        -1.8111    3.6603    4.4305 N.pl3     2 RES2    0.0000
     44 N4         1.5650    5.9097    5.2251 N.2       2 RES2    0.0000
     45 C19       -2.5993    4.7038    5.1001 C.ar      2 RES2    0.0000
     46 C20       -3.8988    4.3697    5.4523 C.ar      2 RES2    0.0000
     47 H17       -4.2362    3.4951    5.3036 H         2 RES2    0.0000
     48 C21       -4.6940    5.3565    6.0319 C.ar      2 RES2    0.0000
     49 H18       -5.5941    5.1633    6.2663 H         2 RES2    0.0000
     50 C22       -4.1815    6.6007    6.2620 C.ar      2 RES2    0.0000
     51 H19       -4.7315    7.2645    6.6621 H         2 RES2    0.0000
     52 C23       -2.8774    6.9127    5.9228 C.ar      2 RES2    0.0000
     53 H20       -2.5417    7.7844    6.0976 H         2 RES2    0.0000
     54 C24       -2.0540    5.9650    5.3306 C.ar      2 RES2    0.0000
     55 C25       -0.6393    6.2887    5.0618 C.2       2 RES2    0.0000
     56 C26       -0.0333    7.2571    4.3587 C.2       2 RES2    0.0000
     57 H21       -0.4399    7.9717    3.8821 H         2 RES2    0.0000
     58 C27        1.3619    6.9709    4.4869 C.2       2 RES2    0.0000
     59 C28        2.5260    7.6716    3.8781 C.ar      2 RES2    0.0000
     60 C29        2.8504    8.9659    4.2993 C.ar      2 RES2    0.0000
     61 C30        3.9598    9.5891    3.7191 C.ar      2 RES2    0.0000
     62 H22        4.1941   10.4623    4.0103 H         2 RES2    0.0000
     63 C31        4.7275    8.9917    2.7407 C.ar      2 RES2    0.0000
     64 C32        4.3714    7.7158    2.3362 C.ar      2 RES2    0.0000
     65 H23        4.8922    7.2873    1.6667 H         2 RES2    0.0000
     66 C33        3.2740    7.0307    2.8763 C.ar      2 RES2    0.0000
     67 C34        2.0632    9.6673    5.3533 C.3       2 RES2    0.0000
     68 H24        2.4480   10.5552    5.5105 H         2 RES2    0.0000
     69 H25        2.0904    9.1466    6.1831 H         2 RES2    0.0000
     70 H26        1.1341    9.7624    5.0585 H         2 RES2    0.0000
     71 C35        5.9079    9.6975    2.1163 C.3       2 RES2    0.0000
     72 H27        6.0091   10.5840    2.5214 H         2 RES2    0.0000
     73 H28        5.7585    9.7934    1.1516 H         2 RES2    0.0000
     74 H29        6.7205    9.1731    2.2694 H         2 RES2    0.0000
     75 C36        2.9256    5.6567    2.3466 C.3       2 RES2    0.0000
     76 H30        2.1401    5.3130    2.8227 H         2 RES2    0.0000
     77 H31        3.6835    5.0505    2.4854 H         2 RES2    0.0000
     78 H32        2.7272    5.7164    1.3878 H         2 RES2    0.0000
@<TRIPOS>BOND
     1    1    4 2
     2    2    4 2
     3    3    5 1
     4    4    6 1
     5    5   19 2
     6    6    7 ar
     7    7    8 1
     8    9    7 ar
     9   10    9 1
    10   11    9 ar
    11   12   11 1
    12   13   11 ar
    13   14   13 1
    14   15    6 ar
    15   16    3 1
    16   17   16 2
    17   18   17 1
    18   19   17 1
    19   20   19 1
    20   21   20 ar
    21   22   21 ar
    22   23   22 1
    23   24   22 ar
    24   25   24 ar
    25   26   25 1
    26   27   20 ar
    27   28   21 1
    28   29   28 1
    29   30   28 1
    30   31   28 1
    31   32   24 1
    32   33   32 1
    33   34   32 1
    34   35   32 1
    35   36   27 1
    36   37   36 1
    37   38   36 1
    38   39   36 1
    39   40   43 2
    40   41   43 2
    41   42   44 1
    42   43   45 1
    43   44   58 2
    44   45   46 ar
    45   46   47 1
    46   48   46 ar
    47   49   48 1
    48   50   48 ar
    49   51   50 1
    50   52   50 ar
    51   53   52 1
    52   54   45 ar
    53   55   42 1
    54   56   55 2
    55   57   56 1
    56   58   56 1
    57   59   58 1
    58   60   59 ar
    59   61   60 ar
    60   62   61 1
    61   63   61 ar
    62   64   63 ar
    63   65   64 1
    64   66   59 ar
    65   67   60 1
    66   68   67 1
    67   69   67 1
    68   70   67 1
    69   71   63 1
    70   72   71 1
    71   73   71 1
    72   74   71 1
    73   75   66 1
    74   76   75 1
    75   77   75 1
    76   78   75 1
    77   13   15 ar
    78   15   16 1
    79   25   27 ar
    80   52   54 ar
    81   54   55 1
    82   64   66 ar
@<TRIPOS>SUBSTRUCTURE
     1 RES1 1
     2 RES2 40

@<TRIPOS>CRYSIN
  19.1250    7.3751   22.4920  90.0000  90.0000  90.0000  33 1

