# MOL2 file generated by ConQuest
# Please check atom types

@<TRIPOS>MOLECULE
SEMLUU
    56    58     2
SMALL
NO_CHARGES
****
Generated from CSD

@<TRIPOS>ATOM
      1 N1         5.2049    5.8507    7.8777 N.3       1 RES1    0.0000
      2 C1         4.8362    7.0278    7.3701 C.2       1 RES1    0.0000
      3 N2         3.6618    7.6328    7.5581 N.2       1 RES1    0.0000
      4 N3         3.7484    8.7979    6.8505 N.2       1 RES1    0.0000
      5 N4         4.8874    8.9301    6.2625 N.2       1 RES1    0.0000
      6 N5         5.6067    7.8166    6.6038 N.3       1 RES1    0.0000
      7 C2         6.9678    7.6215    6.1053 C.3       1 RES1    0.0000
      8 H1         7.4895    7.1255    6.7855 H         1 RES1    0.0000
      9 H2         7.3944    8.5067    5.9856 H         1 RES1    0.0000
     10 C3         7.0354    6.8699    4.7977 C.3       1 RES1    0.0000
     11 H3         7.9781    6.6422    4.6012 H         1 RES1    0.0000
     12 H4         6.5281    6.0242    4.8815 H         1 RES1    0.0000
     13 N6         6.4854    7.6570    3.6885 N.pl3     1 RES1    0.0000
     14 N7         7.3179    8.4355    3.0214 N.2       1 RES1    0.0000
     15 C4         6.5458    9.1236    2.1741 C.2       1 RES1    0.0000
     16 N8         7.1742   10.0287    1.2785 N.pl3     1 RES1    0.0000
     17 O1         6.4272   10.6548    0.5063 O.2       1 RES1    0.0000
     18 O2         8.3970   10.1467    1.2867 O.2       1 RES1    0.0000
     19 C5         5.1722    8.8458    2.2955 C.2       1 RES1    0.0000
     20 N9         4.1278    9.3806    1.6306 N.3       1 RES1    0.0000
     21 C6         5.1780    7.8679    3.2936 C.2       1 RES1    0.0000
     22 N10        4.0880    7.1537    3.7828 N.pl3     1 RES1    0.0000
     23 O3         2.9684    7.4991    3.3658 O.2       1 RES1    0.0000
     24 O4         4.2417    6.2176    4.5737 O.2       1 RES1    0.0000
     25 H5         4.2373   10.0624    1.0289 H         1 RES1    0.0000
     26 H6         4.5642    5.3594    8.3238 H         1 RES1    0.0000
     27 H7         3.3268    9.1368    2.0169 H         1 RES1    0.0000
     28 H8         5.9144    5.4772    7.6401 H         1 RES1    0.0000
     29 N11        1.5550    6.5902    9.3664 N.3       2 RES2    0.0000
     30 C7         1.8712    5.3534    9.7784 C.2       2 RES2    0.0000
     31 N12        2.9570    4.6720    9.4326 N.2       2 RES2    0.0000
     32 N13        2.8773    3.5025   10.1245 N.2       2 RES2    0.0000
     33 N14        1.8110    3.4325   10.8387 N.2       2 RES2    0.0000
     34 N15        1.1425    4.6056   10.6376 N.3       2 RES2    0.0000
     35 C8        -0.0538    4.9364   11.3953 C.3       2 RES2    0.0000
     36 H9        -0.5555    4.1052   11.5884 H         2 RES2    0.0000
     37 H10       -0.6340    5.5207   10.8449 H         2 RES2    0.0000
     38 C9         0.2654    5.6433   12.7079 C.3       2 RES2    0.0000
     39 H11        0.8530    6.4193   12.5285 H         2 RES2    0.0000
     40 H12       -0.5735    5.9814   13.1113 H         2 RES2    0.0000
     41 N16        0.9315    4.7380   13.6622 N.pl3     2 RES2    0.0000
     42 N17        0.1663    3.9872   14.4433 N.2       2 RES2    0.0000
     43 C10        1.0083    3.2215   15.1367 C.2       2 RES2    0.0000
     44 N18        0.4565    2.2701   16.0477 N.pl3     2 RES2    0.0000
     45 O5        -0.7613    2.1738   16.1617 O.2       2 RES2    0.0000
     46 O6         1.2778    1.5866   16.6753 O.2       2 RES2    0.0000
     47 C11        2.3575    3.4327   14.8325 C.2       2 RES2    0.0000
     48 N19        3.4531    2.8393   15.3435 N.3       2 RES2    0.0000
     49 C12        2.2665    4.4229   13.8531 C.2       2 RES2    0.0000
     50 N20        3.3257    5.0315   13.1677 N.pl3     2 RES2    0.0000
     51 O7         4.4533    4.5823   13.4155 O.2       2 RES2    0.0000
     52 O8         3.1252    5.9463   12.3705 O.2       2 RES2    0.0000
     53 H13        2.0978    6.9606    8.7511 H         2 RES2    0.0000
     54 H14        0.8300    6.9718    9.6741 H         2 RES2    0.0000
     55 H15        4.2616    3.2160   15.1094 H         2 RES2    0.0000
     56 H16        3.3305    2.3433   16.1178 H         2 RES2    0.0000
@<TRIPOS>BOND
     1    1    2 1
     2    2    3 2
     3    3    4 1
     4    4    5 2
     5    5    6 1
     6    6    2 1
     7    7    6 1
     8    8    7 1
     9    9    7 1
    10   10    7 1
    11   11   10 1
    12   12   10 1
    13   13   10 1
    14   14   13 1
    15   15   14 2
    16   16   15 1
    17   17   16 2
    18   18   16 2
    19   19   15 1
    20   20   19 1
    21   21   13 1
    22   22   21 1
    23   23   22 2
    24   24   22 2
    25   25   20 1
    26   26    1 1
    27   27   20 1
    28   28    1 1
    29   29   30 1
    30   30   31 2
    31   31   32 1
    32   32   33 2
    33   33   34 1
    34   34   30 1
    35   35   34 1
    36   36   35 1
    37   37   35 1
    38   38   35 1
    39   39   38 1
    40   40   38 1
    41   41   38 1
    42   42   41 1
    43   43   42 2
    44   44   43 1
    45   45   44 2
    46   46   44 2
    47   47   43 1
    48   48   47 1
    49   49   41 1
    50   50   49 1
    51   51   50 2
    52   52   50 2
    53   53   29 1
    54   54   29 1
    55   55   48 1
    56   56   48 1
    57   19   21 2
    58   47   49 2
@<TRIPOS>SUBSTRUCTURE
     1 RES1 1
     2 RES2 29

@<TRIPOS>CRYSIN
   7.1049    9.0630   17.4419  93.2270 100.8580  92.6410   2 1

