# MOL2 file generated by ConQuest
# Please check atom types

@<TRIPOS>MOLECULE
SEMTAF
    20    20     1
SMALL
NO_CHARGES
****
Generated from CSD

@<TRIPOS>ATOM
      1 C1         4.4896    1.0146   12.4215 C.ar      1 RES1    0.0000
      2 C2         3.7212    0.8952   13.5584 C.ar      1 RES1    0.0000
      3 C3         2.3323    0.9367   13.4884 C.ar      1 RES1    0.0000
      4 C4         1.7360    1.1197   12.2607 C.ar      1 RES1    0.0000
      5 C5         2.4863    1.2641   11.1174 C.ar      1 RES1    0.0000
      6 C6         3.8570    1.2148   11.2337 C.ar      1 RES1    0.0000
      7 C7         1.5156    0.7729   14.7415 C.3       1 RES1    0.0000
      8 C8         0.8967    2.0342   15.2463 C.2       1 RES1    0.0000
      9 N1         4.6692    1.3671   10.0140 N.pl3     1 RES1    0.0000
     10 O1         4.1227    1.6545    8.9853 O.2       1 RES1    0.0000
     11 O2         5.8588    1.1833   10.0904 O.2       1 RES1    0.0000
     12 O3         0.3442    1.9248   16.4087 O.3       1 RES1    0.0000
     13 O4         0.8876    3.0817   14.5918 O.2       1 RES1    0.0000
     14 H1         4.1227    0.7708   14.4469 H         1 RES1    0.0000
     15 H2         5.5055    1.0046   12.6031 H         1 RES1    0.0000
     16 H3         0.6974    1.0725   12.1922 H         1 RES1    0.0000
     17 H4         2.0606    1.4071   10.3340 H         1 RES1    0.0000
     18 H5         2.0047    0.4033   15.5408 H         1 RES1    0.0000
     19 H6         0.7186    0.1852   14.5743 H         1 RES1    0.0000
     20 H7        -0.0468    2.7570   16.8370 H         1 RES1    0.0000
@<TRIPOS>BOND
     1    1    2 ar
     2    2    3 ar
     3    3    4 ar
     4    4    5 ar
     5    5    6 ar
     6    6    1 ar
     7    7    3 1
     8    8    7 1
     9    9    6 1
    10   10    9 2
    11   11    9 2
    12   12    8 1
    13   13    8 2
    14   14    2 1
    15   15    1 1
    16   16    4 1
    17   17    5 1
    18   18    7 1
    19   19    7 1
    20   20   12 1
@<TRIPOS>SUBSTRUCTURE
     1 RES1 1

@<TRIPOS>CRYSIN
  15.0960    7.1500   15.9230  90.0000  90.0000  90.0000  61 1

