# MOL2 file generated by ConQuest
# Please check atom types

@<TRIPOS>MOLECULE
SEMTAF01
    20    20     1
SMALL
NO_CHARGES
****
Generated from CSD

@<TRIPOS>ATOM
      1 O1         8.3628    3.0260    9.2808 O.2       1 RES1    0.0000
      2 O2         7.8903    1.8684    7.4293 O.3       1 RES1    0.0000
      3 H1         7.4595    2.6639    7.1911 H         1 RES1    0.0000
      4 O3        13.3623    1.1448   13.8285 O.2       1 RES1    0.0000
      5 O4        11.6106    1.8065   14.8841 O.2       1 RES1    0.0000
      6 N1        12.1690    1.4078   13.8725 N.pl3     1 RES1    0.0000
      7 C1         8.4061    1.9867    8.6275 C.2       1 RES1    0.0000
      8 C2         9.0376    0.7192    9.1258 C.3       1 RES1    0.0000
      9 H2         9.6199    0.3526    8.4143 H         1 RES1    0.0000
     10 H3         8.3240    0.0561    9.3023 H         1 RES1    0.0000
     11 C3         9.8568    0.8974   10.3816 C.ar      1 RES1    0.0000
     12 C4        11.2446    0.8330   10.3222 C.ar      1 RES1    0.0000
     13 H4        11.6710    0.6814    9.4865 H         1 RES1    0.0000
     14 C5        12.0147    0.9870   11.4655 C.ar      1 RES1    0.0000
     15 H5        12.9624    0.9282   11.4293 H         1 RES1    0.0000
     16 C6        11.3622    1.2282   12.6570 C.ar      1 RES1    0.0000
     17 C7         9.9836    1.3025   12.7549 C.ar      1 RES1    0.0000
     18 H6         9.5630    1.4728   13.5896 H         1 RES1    0.0000
     19 C8         9.2346    1.1237   11.6076 C.ar      1 RES1    0.0000
     20 H7         8.2865    1.1546   11.6548 H         1 RES1    0.0000
@<TRIPOS>BOND
     1    1    7 2
     2    2    3 1
     3    4    6 2
     4    5    6 2
     5    6   16 1
     6    7    2 1
     7    8    7 1
     8    9    8 1
     9   10    8 1
    10   11    8 1
    11   12   11 ar
    12   13   12 1
    13   14   12 ar
    14   15   14 1
    15   16   14 ar
    16   17   16 ar
    17   18   17 1
    18   19   11 ar
    19   20   19 1
    20   17   19 ar
@<TRIPOS>SUBSTRUCTURE
     1 RES1 1

@<TRIPOS>CRYSIN
  14.9820    7.0102   15.8850  90.0000  90.0000  90.0000  61 1

