# MOL2 file generated by ConQuest
# Please check atom types

@<TRIPOS>MOLECULE
SEMXAJ
    35    35     1
SMALL
NO_CHARGES
****
Generated from CSD

@<TRIPOS>ATOM
      1 C1         7.5052    7.0614    1.1565 C.ar      1 RES1    0.0000
      2 C2         7.2203    5.8638    1.8055 C.ar      1 RES1    0.0000
      3 C3         5.9781    5.4780    2.2737 C.ar      1 RES1    0.0000
      4 C4         4.8919    6.3600    2.1658 C.ar      1 RES1    0.0000
      5 C5         5.1597    7.5852    1.5602 C.ar      1 RES1    0.0000
      6 C6         6.3955    7.8861    1.0570 C.ar      1 RES1    0.0000
      7 C7         8.8886    7.4126    0.6743 C.3       1 RES1    0.0000
      8 C8         5.9653    3.0690    2.1237 C.3       1 RES1    0.0000
      9 C9         3.4957    6.0384    2.7181 C.3       1 RES1    0.0000
     10 C10        2.9246    4.7845    2.0494 C.3       1 RES1    0.0000
     11 C11        2.5204    7.1857    2.4588 C.3       1 RES1    0.0000
     12 C12        3.5874    5.8351    4.2279 C.3       1 RES1    0.0000
     13 N1         8.3750    4.9769    2.0761 N.pl3     1 RES1    0.0000
     14 N2         6.5495    9.1912    0.3869 N.pl3     1 RES1    0.0000
     15 O1         5.8342    4.2725    2.9144 O.3       1 RES1    0.0000
     16 O2         8.7515    4.2439    1.1887 O.2       1 RES1    0.0000
     17 O3         8.9011    5.0578    3.1499 O.2       1 RES1    0.0000
     18 O4         6.0891   10.1698    0.9504 O.2       1 RES1    0.0000
     19 O5         7.0552    9.2366   -0.6911 O.2       1 RES1    0.0000
     20 H1         4.4357    8.2274    1.4439 H         1 RES1    0.0000
     21 H2         9.0484    7.0831   -0.1542 H         1 RES1    0.0000
     22 H3         9.1051    8.4839    0.5607 H         1 RES1    0.0000
     23 H4         9.5371    6.9943    1.2756 H         1 RES1    0.0000
     24 H5         5.8971    3.2357    1.1635 H         1 RES1    0.0000
     25 H6         5.3399    2.5353    2.4952 H         1 RES1    0.0000
     26 H7         6.9148    2.6734    2.1448 H         1 RES1    0.0000
     27 H8         2.9010    4.9226    1.1355 H         1 RES1    0.0000
     28 H9         3.3806    3.9657    2.3270 H         1 RES1    0.0000
     29 H10        2.0139    4.6267    2.2990 H         1 RES1    0.0000
     30 H11        2.8408    8.0498    2.8737 H         1 RES1    0.0000
     31 H12        1.7545    6.9548    2.8737 H         1 RES1    0.0000
     32 H13        2.3817    7.2705    1.4439 H         1 RES1    0.0000
     33 H14        3.9163    6.6786    4.7521 H         1 RES1    0.0000
     34 H15        2.7273    5.5540    4.5839 H         1 RES1    0.0000
     35 H16        4.2578    5.0706    4.4437 H         1 RES1    0.0000
@<TRIPOS>BOND
     1    1    2 ar
     2    2    3 ar
     3    3    4 ar
     4    4    5 ar
     5    5    6 ar
     6    6    1 ar
     7    7    1 1
     8    8   15 1
     9    9    4 1
    10   10    9 1
    11   11    9 1
    12   12    9 1
    13   13    2 1
    14   14    6 1
    15   15    3 1
    16   16   13 2
    17   17   13 2
    18   18   14 2
    19   19   14 2
    20   20    5 1
    21   21    7 1
    22   22    7 1
    23   23    7 1
    24   24    8 1
    25   25    8 1
    26   26    8 1
    27   27   10 1
    28   28   10 1
    29   29   10 1
    30   30   11 1
    31   31   11 1
    32   32   11 1
    33   33   12 1
    34   34   12 1
    35   35   12 1
@<TRIPOS>SUBSTRUCTURE
     1 RES1 1

@<TRIPOS>CRYSIN
   9.8750    9.8650   14.3260  90.0000 101.9000  90.0000 231 1

