# MOL2 file generated by ConQuest
# Please check atom types

@<TRIPOS>MOLECULE
SEMYUF
    40    41     1
SMALL
NO_CHARGES
****
Generated from CSD

@<TRIPOS>ATOM
      1 N1        -0.2045    3.8083    8.2860 N.1       1 RES1    0.0000
      2 C1        -0.1253    3.9959    9.4131 C.1       1 RES1    0.0000
      3 C2        -0.0003    4.2511   10.8246 C.2       1 RES1    0.0000
      4 O1         0.8670    5.5656   12.5528 O.3       1 RES1    0.0000
      5 C3         0.8494    5.2120   11.2150 C.2       1 RES1    0.0000
      6 C4         1.7534    5.9482   10.3004 C.ar      1 RES1    0.0000
      7 C5         2.7392    5.2356    9.6202 C.ar      1 RES1    0.0000
      8 H1         2.8067    4.2960    9.7421 H         1 RES1    0.0000
      9 C6         3.6251    5.8824    8.7665 C.ar      1 RES1    0.0000
     10 H2         4.2816    5.3819    8.2960 H         1 RES1    0.0000
     11 C7         3.5514    7.2499    8.6011 C.ar      1 RES1    0.0000
     12 H3         4.1674    7.6892    8.0265 H         1 RES1    0.0000
     13 C8         2.5872    7.9875    9.2661 C.ar      1 RES1    0.0000
     14 H4         2.5355    8.9299    9.1554 H         1 RES1    0.0000
     15 C9         1.7029    7.3281   10.0925 C.ar      1 RES1    0.0000
     16 N2         0.6125    8.1285   10.6754 N.pl3     1 RES1    0.0000
     17 O2         0.7793    9.3354   10.7577 O.2       1 RES1    0.0000
     18 O3        -0.4120    7.5497   11.0116 O.2       1 RES1    0.0000
     19 O4        -0.6127    3.2901   12.9316 O.2       1 RES1    0.0000
     20 C10       -0.8510    3.4527   11.7641 C.2       1 RES1    0.0000
     21 O5        -1.8969    2.9625   11.1094 O.3       1 RES1    0.0000
     22 C11       -2.7749    2.0938   11.8730 C.3       1 RES1    0.0000
     23 H5        -2.3885    1.1943   11.9160 H         1 RES1    0.0000
     24 H6        -3.6524    2.0520   11.4387 H         1 RES1    0.0000
     25 H7        -2.8767    2.4492   12.7802 H         1 RES1    0.0000
     26 O6         2.9973    4.8495   12.7251 O.2       1 RES1    0.0000
     27 C12        2.0361    5.3388   13.2289 C.2       1 RES1    0.0000
     28 C13        1.8760    5.6234   14.6850 C.ar      1 RES1    0.0000
     29 C14        1.7012    4.5253   15.5141 C.ar      1 RES1    0.0000
     30 H8         1.6702    3.6517   15.1412 H         1 RES1    0.0000
     31 C15        1.5717    4.6962   16.8831 C.ar      1 RES1    0.0000
     32 H9         1.4443    3.9405   17.4435 H         1 RES1    0.0000
     33 C16        1.6273    5.9616   17.4359 C.ar      1 RES1    0.0000
     34 H10        1.5516    6.0677   18.3774 H         1 RES1    0.0000
     35 C17        1.7917    7.0746   16.6298 C.ar      1 RES1    0.0000
     36 H11        1.8228    7.9460   17.0059 H         1 RES1    0.0000
     37 C18        1.9104    6.8890   15.2641 C.ar      1 RES1    0.0000
     38 N3         2.1100    8.0648   14.4115 N.pl3     1 RES1    0.0000
     39 O7         2.0557    9.1655   14.9168 O.2       1 RES1    0.0000
     40 O8         2.3448    7.8721   13.2210 O.2       1 RES1    0.0000
@<TRIPOS>BOND
     1    1    2 3
     2    2    3 1
     3    3    5 2
     4    4    5 1
     5    5    6 1
     6    6    7 ar
     7    7    8 1
     8    9    7 ar
     9   10    9 1
    10   11    9 ar
    11   12   11 1
    12   13   11 ar
    13   14   13 1
    14   15    6 ar
    15   16   15 1
    16   17   16 2
    17   18   16 2
    18   19   20 2
    19   20    3 1
    20   21   20 1
    21   22   21 1
    22   23   22 1
    23   24   22 1
    24   25   22 1
    25   26   27 2
    26   27    4 1
    27   28   27 1
    28   29   28 ar
    29   30   29 1
    30   31   29 ar
    31   32   31 1
    32   33   31 ar
    33   34   33 1
    34   35   33 ar
    35   36   35 1
    36   37   28 ar
    37   38   37 1
    38   39   38 2
    39   40   38 2
    40   13   15 ar
    41   35   37 ar
@<TRIPOS>SUBSTRUCTURE
     1 RES1 1

@<TRIPOS>CRYSIN
   6.9838    7.9368   16.2542  94.8270 101.6410  90.9350   2 1

