# MOL2 file generated by ConQuest
# Please check atom types

@<TRIPOS>MOLECULE
SEMYIT
    29    29     1
SMALL
NO_CHARGES
****
Generated from CSD

@<TRIPOS>ATOM
      1 C1         1.2997    8.3067    4.4543 C.1       1 RES1    0.0000
      2 N1         1.9920    8.8204    5.2054 N.1       1 RES1    0.0000
      3 C2         0.4346    7.6522    3.5244 C.2       1 RES1    0.0000
      4 C3        -0.0516    8.3721    2.4887 C.2       1 RES1    0.0000
      5 C4         0.3663    9.7827    2.2555 C.ar      1 RES1    0.0000
      6 C5         1.4993   10.0092    1.4765 C.ar      1 RES1    0.0000
      7 H1         1.9949    9.2683    1.1477 H         1 RES1    0.0000
      8 C6         1.9161   11.2963    1.1717 C.ar      1 RES1    0.0000
      9 H2         2.6834   11.4284    0.6271 H         1 RES1    0.0000
     10 C7         1.2215   12.3864    1.6555 C.ar      1 RES1    0.0000
     11 H3         1.4962   13.2651    1.4194 H         1 RES1    0.0000
     12 C8         0.1277   12.2053    2.4815 C.ar      1 RES1    0.0000
     13 H4        -0.3348   12.9498    2.8472 H         1 RES1    0.0000
     14 C9        -0.2780   10.9090    2.7628 C.ar      1 RES1    0.0000
     15 N2        -1.4389   10.7399    3.6327 N.pl3     1 RES1    0.0000
     16 O1        -1.7246   11.6572    4.3907 O.2       1 RES1    0.0000
     17 O2        -2.0610    9.6958    3.5620 O.2       1 RES1    0.0000
     18 O3        -0.8613    7.7866    1.6134 O.3       1 RES1    0.0000
     19 C10       -1.4912    8.5979    0.5954 C.3       1 RES1    0.0000
     20 H5        -2.0982    9.2401    1.0185 H         1 RES1    0.0000
     21 H6        -1.9979    8.0220   -0.0144 H         1 RES1    0.0000
     22 H7        -0.8037    9.0819    0.0922 H         1 RES1    0.0000
     23 O4        -0.3194    5.4439    2.9793 O.2       1 RES1    0.0000
     24 C11        0.0773    6.2298    3.7906 C.2       1 RES1    0.0000
     25 O5         0.2679    5.9588    5.0867 O.3       1 RES1    0.0000
     26 C12       -0.0118    4.5977    5.4647 C.3       1 RES1    0.0000
     27 H8        -0.9319    4.3717    5.2144 H         1 RES1    0.0000
     28 H9         0.0964    4.4986    6.4339 H         1 RES1    0.0000
     29 H10        0.6090    3.9959    5.0038 H         1 RES1    0.0000
@<TRIPOS>BOND
     1    1    2 3
     2    3    1 1
     3    4    3 2
     4    5    4 1
     5    6    5 ar
     6    7    6 1
     7    8    6 ar
     8    9    8 1
     9   10    8 ar
    10   11   10 1
    11   12   10 ar
    12   13   12 1
    13   14    5 ar
    14   15   14 1
    15   16   15 2
    16   17   15 2
    17   18    4 1
    18   19   18 1
    19   20   19 1
    20   21   19 1
    21   22   19 1
    22   23   24 2
    23   24    3 1
    24   25   24 1
    25   26   25 1
    26   27   26 1
    27   28   26 1
    28   29   26 1
    29   12   14 ar
@<TRIPOS>SUBSTRUCTURE
     1 RES1 1

@<TRIPOS>CRYSIN
   9.9347   10.0753   11.9679  90.0000  90.0000  90.0000  33 1

