# MOL2 file generated by ConQuest
# Please check atom types

@<TRIPOS>MOLECULE
SEMZAM
    27    28     1
SMALL
NO_CHARGES
****
Generated from CSD

@<TRIPOS>ATOM
      1 N1         1.4251    3.6319    1.2216 N.2       1 RES1    0.0000
      2 N2         1.5530    2.8626    0.0895 N.3       1 RES1    0.0000
      3 C1         2.2741    3.4614   -0.8711 C.2       1 RES1    0.0000
      4 C2         2.6626    4.6984   -0.3518 C.2       1 RES1    0.0000
      5 C3         2.0971    4.7510    0.9533 C.2       1 RES1    0.0000
      6 C4         2.5993    2.8477   -2.1779 C.ar      1 RES1    0.0000
      7 C5         2.3389    3.4709   -3.4096 C.ar      1 RES1    0.0000
      8 C6         2.7204    2.9203   -4.6252 C.ar      1 RES1    0.0000
      9 H1         2.5406    3.3746   -5.4396 H         1 RES1    0.0000
     10 C7         3.3678    1.6967   -4.6302 C.ar      1 RES1    0.0000
     11 H2         3.6281    1.3013   -5.4542 H         1 RES1    0.0000
     12 C8         3.6374    1.0473   -3.4357 C.ar      1 RES1    0.0000
     13 H3         4.0750    0.2040   -3.4456 H         1 RES1    0.0000
     14 C9         3.2719    1.6215   -2.2240 C.ar      1 RES1    0.0000
     15 H4         3.4821    1.1743   -1.4132 H         1 RES1    0.0000
     16 C10        0.9418    1.5398    0.0896 C.3       1 RES1    0.0000
     17 H5         0.9296    1.1858   -0.8242 H         1 RES1    0.0000
     18 H6         0.0239    1.6038    0.4267 H         1 RES1    0.0000
     19 H7         1.4604    0.9403    0.6656 H         1 RES1    0.0000
     20 C11        3.4288    5.6835   -1.0330 C.1       1 RES1    0.0000
     21 N3         4.0343    6.4689   -1.6050 N.1       1 RES1    0.0000
     22 N4         2.1435    5.7965    1.8441 N.3       1 RES1    0.0000
     23 H8         1.8464    5.6448    2.6259 H         1 RES1    0.0000
     24 H9         2.8252    6.3854    1.7597 H         1 RES1    0.0000
     25 N5         1.5795    4.7353   -3.4724 N.pl3     1 RES1    0.0000
     26 O1         1.9080    5.5569   -4.3344 O.2       1 RES1    0.0000
     27 O2         0.6508    4.8998   -2.6895 O.2       1 RES1    0.0000
@<TRIPOS>BOND
     1    1    2 1
     2    2    3 1
     3    3    4 2
     4    4    5 1
     5    5    1 2
     6    6    3 1
     7    7    6 ar
     8    8    7 ar
     9    9    8 1
    10   10    8 ar
    11   11   10 1
    12   12   10 ar
    13   13   12 1
    14   14    6 ar
    15   15   14 1
    16   16    2 1
    17   17   16 1
    18   18   16 1
    19   19   16 1
    20   20    4 1
    21   21   20 3
    22   22    5 1
    23   23   22 1
    24   24   22 1
    25   25    7 1
    26   26   25 2
    27   27   25 2
    28   12   14 ar
@<TRIPOS>SUBSTRUCTURE
     1 RES1 1

@<TRIPOS>CRYSIN
   8.4560   14.2690    9.1880  90.0000  97.0930  90.0000 231 1

