# MOL2 file generated by ConQuest
# Please check atom types

@<TRIPOS>MOLECULE
SENHID
    62    64     2
SMALL
NO_CHARGES
****
Generated from CSD

@<TRIPOS>ATOM
      1 O1         3.4692    5.2649    4.6488 O.2       1 RES1    0.0000
      2 N1         5.6062    6.3206    6.5677 N.pl3     2 RES2    0.0000
      3 H1         4.8613    6.0900    6.2052 H         2 RES2    0.0000
      4 N2        -0.6210    2.7853    2.0042 N.pl3     1 RES1    0.0000
      5 H2        -0.3114    2.1442    2.4858 H         1 RES1    0.0000
      6 N3         7.0715    8.1071    6.8889 N.ar      2 RES2    0.0000
      7 O2         4.4480    4.4146    2.8371 O.3       1 RES1    0.0000
      8 O3         5.7310    9.8912    2.5982 O.3       2 RES2    0.0000
      9 O4         2.2658    8.1094    0.9989 O.2       1 RES1    0.0000
     10 O5         3.6341    7.2969    2.4311 O.2       1 RES1    0.0000
     11 N4        -0.1363    4.8740    1.1083 N.ar      1 RES1    0.0000
     12 N5         2.6257    7.2140    1.7478 N.pl3     1 RES1    0.0000
     13 O6         4.0204   10.7631    3.7377 O.2       2 RES2    0.0000
     14 N6         7.3790   11.3171    5.1395 N.pl3     2 RES2    0.0000
     15 O7         6.7563   12.0143    4.3776 O.2       2 RES2    0.0000
     16 O8         8.4317   11.6754    5.6186 O.2       2 RES2    0.0000
     17 C1         5.6849    4.2876    3.5737 C.3       1 RES1    0.0000
     18 H3         5.9475    5.1477    3.9108 H         1 RES1    0.0000
     19 H4         6.3699    3.9484    2.9921 H         1 RES1    0.0000
     20 H5         5.5600    3.6815    4.3072 H         1 RES1    0.0000
     21 C2        -2.4778    3.2886    0.4507 C.ar      1 RES1    0.0000
     22 H6        -2.0205    4.0087    0.0778 H         1 RES1    0.0000
     23 C3         7.4117    5.4569    8.0140 C.ar      2 RES2    0.0000
     24 H7         7.8881    6.2528    7.9488 H         2 RES2    0.0000
     25 C4         1.8351    6.0145    1.8288 C.ar      1 RES1    0.0000
     26 C5         5.7195    9.5031    4.8645 C.ar      2 RES2    0.0000
     27 C6         7.4584    9.3152    6.4991 C.ar      2 RES2    0.0000
     28 H8         8.1913    9.6981    6.9239 H         2 RES2    0.0000
     29 C7        -1.8868    2.5315    1.4487 C.ar      1 RES1    0.0000
     30 C8        -2.5673    1.4546    1.9486 C.ar      1 RES1    0.0000
     31 H9        -2.1761    0.9267    2.6056 H         1 RES1    0.0000
     32 C9         1.3824    3.8680    2.6803 C.ar      1 RES1    0.0000
     33 H10        1.5968    3.1329    3.2082 H         1 RES1    0.0000
     34 C10        5.0505   10.1577    3.6898 C.2       2 RES2    0.0000
     35 C11        2.2132    4.9446    2.6500 C.ar      1 RES1    0.0000
     36 C12        0.1991    3.8608    1.9159 C.ar      1 RES1    0.0000
     37 C13        5.1908   10.3926    1.3509 C.3       2 RES2    0.0000
     38 H11        4.2736   10.1217    1.2670 H         2 RES2    0.0000
     39 H12        5.6985   10.0379    0.6174 H         2 RES2    0.0000
     40 H13        5.2443   11.3516    1.3423 H         2 RES2    0.0000
     41 C14        6.0248    3.1024    8.2316 C.ar      2 RES2    0.0000
     42 H14        5.5544    2.3035    8.3082 H         2 RES2    0.0000
     43 C15        7.2372    3.2447    8.8676 C.ar      2 RES2    0.0000
     44 H15        7.5863    2.5466    9.3726 H         2 RES2    0.0000
     45 C16       -4.4257    1.9109    0.5223 C.ar      1 RES1    0.0000
     46 H16       -5.2817    1.7089    0.2210 H         1 RES1    0.0000
     47 C17        5.2886    8.2758    5.2690 C.ar      2 RES2    0.0000
     48 H17        4.5271    7.8993    4.8901 H         2 RES2    0.0000
     49 C18        3.4454    4.9205    3.4971 C.2       1 RES1    0.0000
     50 C19        5.5044    4.1347    7.4808 C.ar      2 RES2    0.0000
     51 H18        4.6873    4.0305    7.0498 H         2 RES2    0.0000
     52 C20        7.9149    4.4069    8.7527 C.ar      2 RES2    0.0000
     53 H19        8.7353    4.5003    9.1787 H         2 RES2    0.0000
     54 C21        6.0040    7.5784    6.2661 C.ar      2 RES2    0.0000
     55 C22        6.1949    5.3201    7.3709 C.ar      2 RES2    0.0000
     56 C23       -3.7483    2.9712    0.0099 C.ar      1 RES1    0.0000
     57 H20       -4.1468    3.4927   -0.6483 H         1 RES1    0.0000
     58 C24        0.6785    5.9207    1.0861 C.ar      1 RES1    0.0000
     59 H21        0.4538    6.6350    0.5347 H         1 RES1    0.0000
     60 C25       -3.8309    1.1453    1.4855 C.ar      1 RES1    0.0000
     61 H22       -4.2809    0.4083    1.8313 H         1 RES1    0.0000
     62 C26        6.8427   10.0287    5.5087 C.ar      2 RES2    0.0000
@<TRIPOS>BOND
     1    1   49 2
     2    2    3 1
     3    4    5 1
     4    6   27 ar
     5    7   17 1
     6    8   34 1
     7    9   12 2
     8   10   12 2
     9   11   36 ar
    10   12   25 1
    11   13   34 2
    12   14   15 2
    13   16   14 2
    14   17   18 1
    15   19   17 1
    16   20   17 1
    17   21   22 1
    18   23   24 1
    19   25   35 ar
    20   26   34 1
    21   27   28 1
    22   29    4 1
    23   30   29 ar
    24   31   30 1
    25   32   33 1
    26   35   32 ar
    27   36    4 1
    28   37    8 1
    29   38   37 1
    30   39   37 1
    31   40   37 1
    32   41   42 1
    33   43   41 ar
    34   44   43 1
    35   45   46 1
    36   47   26 ar
    37   48   47 1
    38   49    7 1
    39   50   41 ar
    40   51   50 1
    41   52   23 ar
    42   53   52 1
    43   54    2 1
    44   55    2 1
    45   56   21 ar
    46   57   56 1
    47   58   11 ar
    48   59   58 1
    49   60   30 ar
    50   61   60 1
    51   62   14 1
    52    6   54 ar
    53   21   29 ar
    54   23   55 ar
    55   25   58 ar
    56   26   62 ar
    57   27   62 ar
    58   32   36 ar
    59   35   49 1
    60   43   52 ar
    61   45   56 ar
    62   45   60 ar
    63   47   54 ar
    64   50   55 ar
@<TRIPOS>SUBSTRUCTURE
     1 RES1 1
     2 RES2 2

@<TRIPOS>CRYSIN
   9.9900   10.9130   12.6758  81.0550  78.1370  70.8600   2 1

