# MOL2 file generated by ConQuest
# Please check atom types

@<TRIPOS>MOLECULE
SENPEH
    46    48     1
SMALL
NO_CHARGES
****
Generated from CSD

@<TRIPOS>ATOM
      1 O1         3.2321    5.0583    6.3290 O.3       1 RES1    0.0000
      2 O2         3.7317    4.3318    3.6845 O.3       1 RES1    0.0000
      3 O3         1.5632    4.2719    1.8689 O.3       1 RES1    0.0000
      4 O4         1.3492    8.2882    5.4948 O.3       1 RES1    0.0000
      5 O5         5.3133    5.7640    5.5289 O.3       1 RES1    0.0000
      6 O6         3.8934    2.5267    5.1540 O.3       1 RES1    0.0000
      7 N1         1.2381    7.2976    6.5485 N.3       1 RES1    0.0000
      8 C1         4.5464    4.6571    5.9582 C.3       1 RES1    0.0000
      9 C2         4.5050    3.7265    4.7055 C.3       1 RES1    0.0000
     10 C3         2.4036    4.6510    4.1112 C.3       1 RES1    0.0000
     11 C4         1.6358    5.2136    2.9239 C.3       1 RES1    0.0000
     12 C5         0.2177    5.5022    3.4119 C.3       1 RES1    0.0000
     13 C6         0.1405    6.3975    4.6469 C.3       1 RES1    0.0000
     14 C7         0.4859    7.8773    4.4138 C.3       1 RES1    0.0000
     15 C8         1.1150    6.0428    5.7878 C.3       1 RES1    0.0000
     16 C9         2.4890    5.6465    5.2494 C.3       1 RES1    0.0000
     17 C10        5.1076    3.9637    7.1864 C.3       1 RES1    0.0000
     18 C11        5.4529    6.8390    6.4585 C.3       1 RES1    0.0000
     19 C12        5.8772    3.4806    4.1071 C.3       1 RES1    0.0000
     20 C13        3.6031    1.5715    4.1262 C.3       1 RES1    0.0000
     21 C14        0.0257    7.6168    7.3282 C.3       1 RES1    0.0000
     22 H1         2.3191    4.1092    1.5949 H         1 RES1    0.0000
     23 H2         1.9600    3.8365    4.4261 H         1 RES1    0.0000
     24 H3         2.0592    6.0391    2.6104 H         1 RES1    0.0000
     25 H4        -0.2186    4.6584    3.6123 H         1 RES1    0.0000
     26 H5        -0.2774    5.9229    2.6922 H         1 RES1    0.0000
     27 H6        -0.7724    6.3498    5.0000 H         1 RES1    0.0000
     28 H7         0.9368    7.9873    3.5632 H         1 RES1    0.0000
     29 H8        -0.3224    8.4142    4.4070 H         1 RES1    0.0000
     30 H9         0.7458    5.3310    6.3508 H         1 RES1    0.0000
     31 H10        2.9565    6.4500    4.9386 H         1 RES1    0.0000
     32 H11        5.1085    4.5740    7.9266 H         1 RES1    0.0000
     33 H12        6.0058    3.6751    7.0092 H         1 RES1    0.0000
     34 H13        4.5629    3.2018    7.4004 H         1 RES1    0.0000
     35 H14        5.9930    7.5312    6.0700 H         1 RES1    0.0000
     36 H15        5.8736    6.5173    7.2587 H         1 RES1    0.0000
     37 H16        4.5859    7.1912    6.6725 H         1 RES1    0.0000
     38 H17        5.7946    2.9070    3.3410 H         1 RES1    0.0000
     39 H18        6.4421    3.0636    4.7614 H         1 RES1    0.0000
     40 H19        6.2639    4.3172    3.8386 H         1 RES1    0.0000
     41 H20        3.1898    0.7974    4.5160 H         1 RES1    0.0000
     42 H21        4.4178    1.3123    3.6900 H         1 RES1    0.0000
     43 H22        3.0070    1.9629    3.4842 H         1 RES1    0.0000
     44 H23        0.1598    8.4399    7.8039 H         1 RES1    0.0000
     45 H24       -0.1488    6.9099    7.9539 H         1 RES1    0.0000
     46 H25       -0.7219    7.7097    6.7325 H         1 RES1    0.0000
@<TRIPOS>BOND
     1    1    8 1
     2    2    9 1
     3    3   11 1
     4    4    7 1
     5    5    8 1
     6    6    9 1
     7    7   15 1
     8    8    9 1
     9    9   19 1
    10   10    2 1
    11   11   10 1
    12   12   11 1
    13   13   12 1
    14   14    4 1
    15   15   13 1
    16   16    1 1
    17   17    8 1
    18   18    5 1
    19   19   38 1
    20   20    6 1
    21   21    7 1
    22   22    3 1
    23   23   10 1
    24   24   11 1
    25   25   12 1
    26   26   12 1
    27   27   13 1
    28   28   14 1
    29   29   14 1
    30   30   15 1
    31   31   16 1
    32   32   17 1
    33   33   17 1
    34   34   17 1
    35   35   18 1
    36   36   18 1
    37   37   18 1
    38   39   19 1
    39   40   19 1
    40   41   20 1
    41   42   20 1
    42   43   20 1
    43   44   21 1
    44   45   21 1
    45   46   21 1
    46   10   16 1
    47   13   14 1
    48   15   16 1
@<TRIPOS>SUBSTRUCTURE
     1 RES1 1

@<TRIPOS>CRYSIN
   9.1846   12.2299   13.6313  90.0000  90.0000  90.0000  19 1

