# MOL2 file generated by ConQuest
# Please check atom types

@<TRIPOS>MOLECULE
SENVUE
    63    65     1
SMALL
NO_CHARGES
****
Generated from CSD

@<TRIPOS>ATOM
      1 O1         5.8789    6.5751   37.0079 O.3       1 RES1    0.0000
      2 O2         5.7690    5.7376   34.9371 O.2       1 RES1    0.0000
      3 O3         4.1263    9.4406   34.2022 O.2       1 RES1    0.0000
      4 O4         2.6956    3.4980   33.6024 O.3       1 RES1    0.0000
      5 H1         3.0402    2.7949   33.8470 H         1 RES1    0.0000
      6 O5         0.4553    0.6209   30.3339 O.3       1 RES1    0.0000
      7 O6         4.9003    3.9164   29.9453 O.3       1 RES1    0.0000
      8 N1         4.2865    2.2769   27.7943 N.pl3     1 RES1    0.0000
      9 O7         5.4341    1.9582   27.8474 O.2       1 RES1    0.0000
     10 O8         3.7527    2.6455   26.7825 O.2       1 RES1    0.0000
     11 N2         4.6084    7.6908   35.5395 N.am      1 RES1    0.0000
     12 C1         3.1607    9.9038   39.5500 C.ar      1 RES1    0.0000
     13 H2         2.7854    9.0588   39.7672 H         1 RES1    0.0000
     14 C2         3.3410   10.8401   40.5444 C.ar      1 RES1    0.0000
     15 H3         3.0701   10.6459   41.4337 H         1 RES1    0.0000
     16 C3         3.9136   12.0554   40.2515 C.ar      1 RES1    0.0000
     17 H4         4.0527   12.6929   40.9401 H         1 RES1    0.0000
     18 C4         4.2865   12.3492   38.9547 C.ar      1 RES1    0.0000
     19 H5         4.6828   13.1893   38.7539 H         1 RES1    0.0000
     20 C5         4.0827   11.4179   37.9484 C.ar      1 RES1    0.0000
     21 H6         4.3285   11.6271   37.0539 H         1 RES1    0.0000
     22 C6         3.5206   10.1786   38.2372 C.ar      1 RES1    0.0000
     23 C7         3.3321    9.1576   37.1330 C.3       1 RES1    0.0000
     24 H7         2.8889    9.5834   36.3561 H         1 RES1    0.0000
     25 H8         2.7522    8.4221   37.4548 H         1 RES1    0.0000
     26 C8         4.6860    8.5972   36.7083 C.3       1 RES1    0.0000
     27 H9         5.3209    9.3460   36.5194 H         1 RES1    0.0000
     28 C9         5.2829    7.6626   37.7565 C.3       1 RES1    0.0000
     29 H10        5.9679    8.1332   38.2936 H         1 RES1    0.0000
     30 H11        4.5784    7.3239   38.3641 H         1 RES1    0.0000
     31 C10        5.4430    6.5751   35.7303 C.2       1 RES1    0.0000
     32 C11        4.2865    8.2295   34.2879 C.2       1 RES1    0.0000
     33 C12        4.0924    7.3297   33.1210 C.2       1 RES1    0.0000
     34 C13        4.7467    7.8161   31.8601 C.3       1 RES1    0.0000
     35 H12        5.6396    7.4193   31.7796 H         1 RES1    0.0000
     36 H13        4.8251    8.7923   31.8872 H         1 RES1    0.0000
     37 H14        4.2040    7.5538   31.0892 H         1 RES1    0.0000
     38 C14        3.2747    6.2913   33.2331 C.2       1 RES1    0.0000
     39 H15        2.9302    6.1078   34.0994 H         1 RES1    0.0000
     40 C15        2.8396    5.3748   32.1170 C.3       1 RES1    0.0000
     41 H16        3.2707    5.6845   31.2711 H         1 RES1    0.0000
     42 C16        1.3207    5.4412   31.9362 C.3       1 RES1    0.0000
     43 H17        1.0571    6.3626   31.7313 H         1 RES1    0.0000
     44 H18        0.8808    5.1524   32.7632 H         1 RES1    0.0000
     45 H19        1.0530    4.8527   31.2006 H         1 RES1    0.0000
     46 C17        3.3273    3.9429   32.4117 C.3       1 RES1    0.0000
     47 H20        4.3148    3.9678   32.5665 H         1 RES1    0.0000
     48 C18        3.0426    3.0141   31.2347 C.ar      1 RES1    0.0000
     49 C19        1.9419    2.1748   31.2640 C.ar      1 RES1    0.0000
     50 H21        1.4129    2.1358   32.0505 H         1 RES1    0.0000
     51 C20        1.5860    1.3846   30.1702 C.ar      1 RES1    0.0000
     52 C21        2.3471    1.4269   29.0106 C.ar      1 RES1    0.0000
     53 H22        2.1060    0.9214   28.2423 H         1 RES1    0.0000
     54 C22        3.4720    2.2354   29.0162 C.ar      1 RES1    0.0000
     55 C23        3.8433    3.0406   30.0841 C.ar      1 RES1    0.0000
     56 C24        0.0057   -0.1361   29.1992 C.3       1 RES1    0.0000
     57 H23       -0.8468   -0.5694   29.4115 H         1 RES1    0.0000
     58 H24        0.6729   -0.8201   28.9772 H         1 RES1    0.0000
     59 H25       -0.1140    0.4632   28.4316 H         1 RES1    0.0000
     60 C25        6.1499    3.4631   30.4886 C.3       1 RES1    0.0000
     61 H26        6.0836    3.4158   31.4641 H         1 RES1    0.0000
     62 H27        6.8608    4.0907   30.2392 H         1 RES1    0.0000
     63 H28        6.3585    2.5749   30.1316 H         1 RES1    0.0000
@<TRIPOS>BOND
     1    1   28 1
     2    2   31 2
     3    3   32 2
     4    4    5 1
     5    6   51 1
     6    7   55 1
     7    8    9 2
     8   10    8 2
     9   11   26 1
    10   12   13 1
    11   14   12 ar
    12   15   14 1
    13   16   14 ar
    14   17   16 1
    15   18   16 ar
    16   19   18 1
    17   20   18 ar
    18   21   20 1
    19   22   12 ar
    20   23   22 1
    21   24   23 1
    22   25   23 1
    23   26   23 1
    24   27   26 1
    25   28   26 1
    26   29   28 1
    27   30   28 1
    28   31    1 1
    29   32   11 1
    30   33   32 1
    31   34   33 1
    32   35   34 1
    33   36   34 1
    34   37   34 1
    35   38   33 2
    36   39   38 1
    37   40   38 1
    38   41   40 1
    39   42   40 1
    40   43   42 1
    41   44   42 1
    42   45   42 1
    43   46    4 1
    44   47   46 1
    45   48   46 1
    46   49   48 ar
    47   50   49 1
    48   51   49 ar
    49   52   51 ar
    50   53   52 1
    51   54    8 1
    52   55   48 ar
    53   56    6 1
    54   57   56 1
    55   58   56 1
    56   59   56 1
    57   60    7 1
    58   61   60 1
    59   62   60 1
    60   63   60 1
    61   11   31 1
    62   20   22 ar
    63   40   46 1
    64   52   54 ar
    65   54   55 ar
@<TRIPOS>SUBSTRUCTURE
     1 RES1 1

@<TRIPOS>CRYSIN
   8.0877    8.3009   37.1170  90.0000  90.0000  90.0000  19 1

