# MOL2 file generated by ConQuest
# Please check atom types

@<TRIPOS>MOLECULE
SENZUH
    53    54     1
SMALL
NO_CHARGES
****
Generated from CSD

@<TRIPOS>ATOM
      1 O1        -3.7308   -4.1783    4.0026 O.3       1 RES1    0.0000
      2 O2        -0.1799    0.8946    5.2188 O.2       1 RES1    0.0000
      3 O3         3.5428    6.2185    3.0501 O.2       1 RES1    0.0000
      4 O4         2.9018    5.8812    1.0682 O.2       1 RES1    0.0000
      5 N1        -0.2479    0.0438    3.1287 N.am      1 RES1    0.0000
      6 N2         2.9261    5.5993    2.2482 N.pl3     1 RES1    0.0000
      7 C1        -2.8468   -3.1536    3.7640 C.ar      1 RES1    0.0000
      8 C2        -1.6481   -3.3853    3.0584 C.ar      1 RES1    0.0000
      9 C3        -0.8021   -2.2822    2.8984 C.ar      1 RES1    0.0000
     10 H1         0.0435   -2.3968    2.4582 H         1 RES1    0.0000
     11 C4        -1.1260   -1.0529    3.4052 C.ar      1 RES1    0.0000
     12 C5        -2.3066   -0.8534    4.0702 C.ar      1 RES1    0.0000
     13 H2        -2.5029    0.0167    4.4271 H         1 RES1    0.0000
     14 C6        -3.2184   -1.9025    4.2588 C.ar      1 RES1    0.0000
     15 C7        -1.2794   -4.7214    2.4018 C.3       1 RES1    0.0000
     16 C8        -4.5478   -1.6541    4.9746 C.3       1 RES1    0.0000
     17 C9        -1.2393   -5.8761    3.4348 C.3       1 RES1    0.0000
     18 H3        -1.4787   -6.7398    2.9909 H         1 RES1    0.0000
     19 H4        -1.8978   -5.6830    4.1617 H         1 RES1    0.0000
     20 H5        -0.3302   -5.9546    3.8436 H         1 RES1    0.0000
     21 C10       -2.2965   -5.0561    1.3428 C.3       1 RES1    0.0000
     22 H6        -2.2080   -4.4280    0.5697 H         1 RES1    0.0000
     23 H7        -3.2145   -4.9699    1.7294 H         1 RES1    0.0000
     24 H8        -2.1728   -5.9932    1.0145 H         1 RES1    0.0000
     25 C11        0.0843   -4.6906    1.7646 C.3       1 RES1    0.0000
     26 H9         0.7375   -4.4138    2.4702 H         1 RES1    0.0000
     27 H10        0.1474   -4.0341    1.0136 H         1 RES1    0.0000
     28 H11        0.3510   -5.5980    1.4390 H         1 RES1    0.0000
     29 C12       -4.5944   -2.4444    6.2749 C.3       1 RES1    0.0000
     30 H12       -5.4053   -2.1638    6.7882 H         1 RES1    0.0000
     31 H13       -3.7873   -2.2384    6.8280 H         1 RES1    0.0000
     32 H14       -4.6463   -3.4317    6.1233 H         1 RES1    0.0000
     33 C13       -4.7588   -0.1648    5.3011 C.3       1 RES1    0.0000
     34 H15       -4.1236    0.0451    6.0437 H         1 RES1    0.0000
     35 H16       -5.6911    0.0154    5.6146 H         1 RES1    0.0000
     36 H17       -4.5571    0.4338    4.5261 H         1 RES1    0.0000
     37 C14       -5.7156   -2.0454    4.0655 C.3       1 RES1    0.0000
     38 H18       -6.5776   -1.7480    4.4752 H         1 RES1    0.0000
     39 H19       -5.7302   -3.0378    3.9435 H         1 RES1    0.0000
     40 H20       -5.6092   -1.6180    3.1675 H         1 RES1    0.0000
     41 C15        0.1156    0.9603    4.0433 C.2       1 RES1    0.0000
     42 C16        0.8711    2.1586    3.5143 C.ar      1 RES1    0.0000
     43 C17        0.8715    2.4985    2.1724 C.ar      1 RES1    0.0000
     44 H21        0.4175    1.9488    1.5297 H         1 RES1    0.0000
     45 C18        1.5533    3.6389    1.7507 C.ar      1 RES1    0.0000
     46 H22        1.5794    3.8848    0.8231 H         1 RES1    0.0000
     47 C19        2.1822    4.3996    2.6875 C.ar      1 RES1    0.0000
     48 C20        2.1961    4.0907    4.0137 C.ar      1 RES1    0.0000
     49 H23        2.6739    4.6416    4.6371 H         1 RES1    0.0000
     50 C21        1.5161    2.9528    4.4216 C.ar      1 RES1    0.0000
     51 H24        1.4819    2.7263    5.3538 H         1 RES1    0.0000
     52 H25        0.0237    0.0541    2.3361 H         1 RES1    0.0000
     53 H26       -3.6808   -4.7124    3.2489 H         1 RES1    0.0000
@<TRIPOS>BOND
     1    1    7 1
     2    2   41 2
     3    3    6 2
     4    4    6 2
     5    5   11 1
     6    6   47 1
     7    7    8 ar
     8    8    9 ar
     9    9   10 1
    10   11    9 ar
    11   12   11 ar
    12   13   12 1
    13   14    7 ar
    14   15    8 1
    15   16   14 1
    16   17   15 1
    17   18   17 1
    18   19   17 1
    19   20   17 1
    20   21   15 1
    21   22   21 1
    22   23   21 1
    23   24   21 1
    24   25   15 1
    25   26   25 1
    26   27   25 1
    27   28   25 1
    28   29   16 1
    29   30   29 1
    30   31   29 1
    31   32   29 1
    32   33   16 1
    33   34   33 1
    34   35   33 1
    35   36   33 1
    36   37   16 1
    37   38   37 1
    38   39   37 1
    39   40   37 1
    40   41    5 1
    41   42   41 1
    42   43   42 ar
    43   44   43 1
    44   45   43 ar
    45   46   45 1
    46   47   45 ar
    47   48   47 ar
    48   49   48 1
    49   50   42 ar
    50   51   50 1
    51   52    5 1
    52   53    1 1
    53   12   14 ar
    54   48   50 ar
@<TRIPOS>SUBSTRUCTURE
     1 RES1 1

@<TRIPOS>CRYSIN
   8.6050   12.8720    9.5410  90.0000 104.2300  90.0000   7 1

