# MOL2 file generated by ConQuest
# Please check atom types

@<TRIPOS>MOLECULE
SEPGIE
    76    80     2
SMALL
USER_CHARGES
****
Generated from CSD

@<TRIPOS>ATOM
      1 N1         2.5168    6.6492    3.5220 N.pl3     1 RES1    0.0000
      2 H1         2.5227    7.5437    3.9902 H         1 RES1    0.0000
      3 C1         1.3552    5.8190    3.8386 C.3       1 RES1    0.0000
      4 C2         0.0700    6.3802    3.2791 C.3       1 RES1    0.0000
      5 H2        -0.1038    7.2374    3.6753 H         1 RES1    0.0000
      6 H3        -0.6544    5.7820    3.4789 H         1 RES1    0.0000
      7 H4         0.1515    6.4782    2.3270 H         1 RES1    0.0000
      8 C3         1.3026    5.6369    5.3308 C.3       1 RES1    0.0000
      9 H5         1.1617    6.4876    5.7528 H         1 RES1    0.0000
     10 H6         2.1319    5.2620    5.6369 H         1 RES1    0.0000
     11 H7         0.5810    5.0454    5.5565 H         1 RES1    0.0000
     12 N2         1.5801    4.4718    3.1789 N.pl3     1 RES1    1.0000
     13 O1         0.9991    3.4700    3.7583 O.2       1 RES1   -1.0000
     14 C4         2.2009    4.3625    2.0238 C.2       1 RES1    0.0000
     15 C5         2.1820    3.0437    1.3298 C.ar      1 RES1    0.0000
     16 C6         1.1267    2.7225    0.5128 C.ar      1 RES1    0.0000
     17 H8         0.4170    3.3167    0.4294 H         1 RES1    0.0000
     18 C7         1.1026    1.5454   -0.1799 C.ar      1 RES1    0.0000
     19 H9         0.3817    1.3477   -0.7334 H         1 RES1    0.0000
     20 C8         2.1360    0.6584   -0.0616 C.ar      1 RES1    0.0000
     21 H10        2.1180   -0.1416   -0.5344 H         1 RES1    0.0000
     22 C9         3.1862    0.9470    0.7449 C.ar      1 RES1    0.0000
     23 H11        3.8860    0.3403    0.8275 H         1 RES1    0.0000
     24 C10        3.2248    2.1516    1.4550 C.ar      1 RES1    0.0000
     25 H12        3.9482    2.3489    2.0067 H         1 RES1    0.0000
     26 C11        2.8556    5.5139    1.4401 C.ar      1 RES1    0.0000
     27 C12        3.4198    5.4788    0.1654 C.ar      1 RES1    0.0000
     28 H13        3.3228    4.7112   -0.3503 H         1 RES1    0.0000
     29 C13        4.1188    6.5522   -0.3547 C.ar      1 RES1    0.0000
     30 C14        4.7162    6.5018   -1.7370 C.3       1 RES1    0.0000
     31 H14        4.5386    5.6455   -2.1321 H         1 RES1    0.0000
     32 H15        5.6653    6.6382   -1.6809 H         1 RES1    0.0000
     33 H16        4.3260    7.1911   -2.2793 H         1 RES1    0.0000
     34 C15        4.2427    7.6858    0.4450 C.ar      1 RES1    0.0000
     35 H17        4.7117    8.4185    0.1172 H         1 RES1    0.0000
     36 C16        3.6955    7.7558    1.7018 C.ar      1 RES1    0.0000
     37 H18        3.7948    8.5306    2.2071 H         1 RES1    0.0000
     38 C17        2.9941    6.6794    2.2218 C.ar      1 RES1    0.0000
     39 N3         0.7130    1.2776    5.7144 N.pl3     2 RES2    0.0000
     40 H19        1.0688    2.1443    5.2743 H         2 RES2    0.0000
     41 C18        0.0733    0.4060    4.7326 C.3       2 RES2    0.0000
     42 C19        1.0666    0.0895    3.6525 C.3       2 RES2    0.0000
     43 H20        1.8614   -0.2780    4.0461 H         2 RES2    0.0000
     44 H21        1.2885    0.8931    3.1763 H         2 RES2    0.0000
     45 H22        0.6856   -0.5486    3.0441 H         2 RES2    0.0000
     46 C20       -1.2148    0.9974    4.1666 C.3       2 RES2    0.0000
     47 H23       -1.0142    1.8097    3.6971 H         2 RES2    0.0000
     48 H24       -1.8242    1.1850    4.8844 H         2 RES2    0.0000
     49 H25       -1.6176    0.3691    3.5621 H         2 RES2    0.0000
     50 N4        -0.3219   -0.8648    5.4567 N.pl3     2 RES2    1.0000
     51 O2        -0.3672   -1.9282    4.7054 O.2       2 RES2   -1.0000
     52 C21       -0.7234   -0.8508    6.7037 C.2       2 RES2    0.0000
     53 C22       -1.3267   -2.0864    7.2624 C.ar      2 RES2    0.0000
     54 C23       -0.7324   -2.7794    8.3011 C.ar      2 RES2    0.0000
     55 H26        0.0726   -2.4786    8.6565 H         2 RES2    0.0000
     56 C24       -1.3283   -3.9172    8.8145 C.ar      2 RES2    0.0000
     57 H27       -0.9110   -4.3933    9.4962 H         2 RES2    0.0000
     58 C25       -2.5387   -4.3467    8.3176 C.ar      2 RES2    0.0000
     59 H28       -2.9456   -5.1020    8.6769 H         2 RES2    0.0000
     60 C26       -3.1428   -3.6689    7.3012 C.ar      2 RES2    0.0000
     61 H29       -3.9616   -3.9588    6.9688 H         2 RES2    0.0000
     62 C27       -2.5340   -2.5471    6.7645 C.ar      2 RES2    0.0000
     63 H30       -2.9425   -2.0973    6.0609 H         2 RES2    0.0000
     64 C28       -0.6344    0.3868    7.4755 C.ar      2 RES2    0.0000
     65 C29       -1.2407    0.5318    8.7257 C.ar      2 RES2    0.0000
     66 H31       -1.7359   -0.1750    9.0723 H         2 RES2    0.0000
     67 C30       -1.1261    1.7005    9.4654 C.ar      2 RES2    0.0000
     68 C31       -1.8379    1.8568   10.7895 C.3       2 RES2    0.0000
     69 H32       -1.8206    2.7789   11.0558 H         2 RES2    0.0000
     70 H33       -1.3977    1.3231   11.4552 H         2 RES2    0.0000
     71 H34       -2.7487    1.5666   10.6986 H         2 RES2    0.0000
     72 C32       -0.3406    2.7194    8.9440 C.ar      2 RES2    0.0000
     73 H35       -0.2251    3.4986    9.4376 H         2 RES2    0.0000
     74 C33        0.2734    2.6069    7.7074 C.ar      2 RES2    0.0000
     75 H36        0.7956    3.3046    7.3846 H         2 RES2    0.0000
     76 C34        0.1111    1.4518    6.9470 C.ar      2 RES2    0.0000
@<TRIPOS>BOND
     1    1    2 1
     2    3    1 1
     3    4    3 1
     4    5    4 1
     5    6    4 1
     6    7    4 1
     7    8    3 1
     8    9    8 1
     9   10    8 1
    10   11    8 1
    11   12    3 1
    12   13   12 1
    13   14   12 2
    14   15   14 1
    15   16   15 ar
    16   17   16 1
    17   18   16 ar
    18   19   18 1
    19   20   18 ar
    20   21   20 1
    21   22   20 ar
    22   23   22 1
    23   24   15 ar
    24   25   24 1
    25   26   14 1
    26   27   26 ar
    27   28   27 1
    28   29   27 ar
    29   30   29 1
    30   31   30 1
    31   32   30 1
    32   33   30 1
    33   34   29 ar
    34   35   34 1
    35   36   34 ar
    36   37   36 1
    37   38    1 1
    38   39   40 1
    39   41   39 1
    40   42   41 1
    41   43   42 1
    42   44   42 1
    43   45   42 1
    44   46   41 1
    45   47   46 1
    46   48   46 1
    47   49   46 1
    48   50   41 1
    49   51   50 1
    50   52   50 2
    51   53   52 1
    52   54   53 ar
    53   55   54 1
    54   56   54 ar
    55   57   56 1
    56   58   56 ar
    57   59   58 1
    58   60   58 ar
    59   61   60 1
    60   62   53 ar
    61   63   62 1
    62   64   52 1
    63   65   64 ar
    64   66   65 1
    65   67   65 ar
    66   68   67 1
    67   69   68 1
    68   70   68 1
    69   71   68 1
    70   72   67 ar
    71   73   72 1
    72   74   72 ar
    73   75   74 1
    74   76   39 1
    75   22   24 ar
    76   26   38 ar
    77   36   38 ar
    78   60   62 ar
    79   64   76 ar
    80   74   76 ar
@<TRIPOS>SUBSTRUCTURE
     1 RES1 1
     2 RES2 39

@<TRIPOS>CRYSIN
   9.7190   11.0920   14.0870  87.3400  75.4100  81.2600   2 1

