# MOL2 file generated by ConQuest
# Please check atom types

@<TRIPOS>MOLECULE
SEPROV
    81    86     1
SMALL
NO_CHARGES
****
Generated from CSD

@<TRIPOS>ATOM
      1 C1         2.4279    4.2895   18.0730 C.2       1 RES1    0.0000
      2 H1         1.6914    4.7244   18.4399 H         1 RES1    0.0000
      3 C2         4.2795    3.8995   17.0703 C.2       1 RES1    0.0000
      4 C3         3.8069    2.6728   17.4569 C.2       1 RES1    0.0000
      5 C4         0.6891    1.0705   21.4120 C.2       1 RES1    0.0000
      6 C5         0.0478   -0.0475   22.1156 C.ar      1 RES1    0.0000
      7 C6         0.6290   -0.5474   23.2639 C.ar      1 RES1    0.0000
      8 H2         1.4175   -0.1737   23.5858 H         1 RES1    0.0000
      9 C7         0.0411   -1.6017   23.9373 C.ar      1 RES1    0.0000
     10 H3         0.4456   -1.9316   24.7069 H         1 RES1    0.0000
     11 C8        -1.1300   -2.1753   23.4939 C.ar      1 RES1    0.0000
     12 C9        -1.6986   -1.6679   22.3500 C.ar      1 RES1    0.0000
     13 H4        -2.4902   -2.0404   22.0341 H         1 RES1    0.0000
     14 C10       -1.1237   -0.6180   21.6588 C.ar      1 RES1    0.0000
     15 H5        -1.5253   -0.2956   20.8841 H         1 RES1    0.0000
     16 C11       -1.7752   -3.3221   24.2262 C.3       1 RES1    0.0000
     17 H6        -1.1626   -4.0601   24.2690 H         1 RES1    0.0000
     18 H7        -2.5692   -3.5933   23.7590 H         1 RES1    0.0000
     19 H8        -2.0064   -3.0446   25.1158 H         1 RES1    0.0000
     20 C12       -2.3725    3.9920   18.6726 C.2       1 RES1    0.0000
     21 C13       -3.6710    4.0782   19.3515 C.ar      1 RES1    0.0000
     22 C14       -4.2417    3.0127   20.0320 C.ar      1 RES1    0.0000
     23 H9        -3.8219    2.1828   20.0325 H         1 RES1    0.0000
     24 C15       -5.4316    3.1865   20.7066 C.ar      1 RES1    0.0000
     25 H10       -5.8000    2.4672   21.1680 H         1 RES1    0.0000
     26 C16       -6.0920    4.4001   20.7172 C.ar      1 RES1    0.0000
     27 C17       -5.5243    5.4449   20.0229 C.ar      1 RES1    0.0000
     28 H11       -5.9543    6.2698   20.0085 H         1 RES1    0.0000
     29 C18       -4.3299    5.2937   19.3478 C.ar      1 RES1    0.0000
     30 H12       -3.9661    6.0149   18.8874 H         1 RES1    0.0000
     31 C19       -7.3882    4.5738   21.4646 C.3       1 RES1    0.0000
     32 H13       -7.2025    4.8169   22.3757 H         1 RES1    0.0000
     33 H14       -7.8803    3.7501   21.4471 H         1 RES1    0.0000
     34 H15       -7.9073    5.2656   21.0477 H         1 RES1    0.0000
     35 C20       -0.2144    3.2871   14.2982 C.2       1 RES1    0.0000
     36 C21        0.5645    4.4744   13.8818 C.ar      1 RES1    0.0000
     37 C22        1.6726    4.9100   14.5879 C.ar      1 RES1    0.0000
     38 H16        1.9312    4.4594   15.3582 H         1 RES1    0.0000
     39 C23        2.3942    5.9980   14.1659 C.ar      1 RES1    0.0000
     40 H17        3.1347    6.2761   14.6557 H         1 RES1    0.0000
     41 C24        2.0311    6.6866   13.0179 C.ar      1 RES1    0.0000
     42 C25        0.9158    6.2461   12.3325 C.ar      1 RES1    0.0000
     43 H18        0.6478    6.7016   11.5668 H         1 RES1    0.0000
     44 C26        0.1842    5.1487   12.7480 C.ar      1 RES1    0.0000
     45 H19       -0.5594    4.8700   12.2644 H         1 RES1    0.0000
     46 C27        2.8397    7.8809   12.5680 C.3       1 RES1    0.0000
     47 H20        3.7750    7.6940   12.6806 H         1 RES1    0.0000
     48 H21        2.6007    8.6464   13.0944 H         1 RES1    0.0000
     49 H22        2.6583    8.0602   11.6413 H         1 RES1    0.0000
     50 C28        1.7506    1.8816   18.6273 C.3       1 RES1    0.0000
     51 H23        2.2821    1.2755   19.1857 H         1 RES1    0.0000
     52 C29        0.5941    2.4284   19.4537 C.3       1 RES1    0.0000
     53 H24        0.8266    3.2290   19.9676 H         1 RES1    0.0000
     54 C30       -0.4206    2.6903   18.3514 C.3       1 RES1    0.0000
     55 H25       -0.1782    3.5077   17.8674 H         1 RES1    0.0000
     56 C31       -0.2370    1.4867   17.4435 C.3       1 RES1    0.0000
     57 H26       -0.7798    0.7487   17.7928 H         1 RES1    0.0000
     58 C32       -0.5942    1.7017   16.0010 C.3       1 RES1    0.0000
     59 H27       -0.3498    0.9230   15.4761 H         1 RES1    0.0000
     60 H28       -1.5501    1.8429   15.9115 H         1 RES1    0.0000
     61 C33        5.4798    4.1588   16.3166 C.2       1 RES1    0.0000
     62 C34        6.9115    5.1550   15.1826 C.2       1 RES1    0.0000
     63 C35        7.7307    6.0861   14.3798 C.3       1 RES1    0.0000
     64 H29        7.4463    6.9872   14.5450 H         1 RES1    0.0000
     65 H30        7.6245    5.8830   13.4480 H         1 RES1    0.0000
     66 H31        8.6547    5.9924   14.6244 H         1 RES1    0.0000
     67 N1         2.6123    2.9184   18.1089 N.3       1 RES1    0.0000
     68 N2         3.4039    4.8994   17.4682 N.2       1 RES1    0.0000
     69 N3         4.3398    1.4398   17.3441 N.3       1 RES1    0.0000
     70 H32        5.1087    1.3361   16.9748 H         1 RES1    0.0000
     71 H33        3.9100    0.7568   17.6412 H         1 RES1    0.0000
     72 N4         6.3344    3.2127   16.0441 N.2       1 RES1    0.0000
     73 N5         5.8107    5.3968   15.8143 N.2       1 RES1    0.0000
     74 O1         1.6803    1.6492   21.7661 O.2       1 RES1    0.0000
     75 O2        -1.8820    4.8763   18.0427 O.2       1 RES1    0.0000
     76 O3        -1.0564    2.7409   13.6407 O.2       1 RES1    0.0000
     77 O4         0.0533    1.3698   20.2584 O.3       1 RES1    0.0000
     78 O5        -1.7530    2.8021   18.8429 O.3       1 RES1    0.0000
     79 O6         1.1509    1.1355   17.5789 O.3       1 RES1    0.0000
     80 O7         0.1261    2.8653   15.5280 O.3       1 RES1    0.0000
     81 O8         7.3170    3.8858   15.2675 O.3       1 RES1    0.0000
@<TRIPOS>BOND
     1    1    2 1
     2    3    4 2
     3    4   67 1
     4    5    6 1
     5    6    7 ar
     6    7    8 1
     7    9    7 ar
     8   10    9 1
     9   11    9 ar
    10   12   11 ar
    11   13   12 1
    12   14    6 ar
    13   15   14 1
    14   16   11 1
    15   17   16 1
    16   18   16 1
    17   19   16 1
    18   20   21 1
    19   21   22 ar
    20   22   23 1
    21   24   22 ar
    22   25   24 1
    23   26   24 ar
    24   27   26 ar
    25   28   27 1
    26   29   21 ar
    27   30   29 1
    28   31   26 1
    29   32   31 1
    30   33   31 1
    31   34   31 1
    32   35   36 1
    33   36   37 ar
    34   37   38 1
    35   39   37 ar
    36   40   39 1
    37   41   39 ar
    38   42   41 ar
    39   43   42 1
    40   44   36 ar
    41   45   44 1
    42   46   41 1
    43   47   46 1
    44   48   46 1
    45   49   46 1
    46   50   51 1
    47   52   50 1
    48   53   52 1
    49   54   52 1
    50   55   54 1
    51   56   54 1
    52   57   56 1
    53   58   56 1
    54   59   58 1
    55   60   58 1
    56   61    3 1
    57   62   63 1
    58   63   64 1
    59   65   63 1
    60   66   63 1
    61   67    1 1
    62   68    1 2
    63   69    4 1
    64   70   69 1
    65   71   69 1
    66   72   61 2
    67   73   61 1
    68   74    5 2
    69   75   20 2
    70   76   35 2
    71   77    5 1
    72   78   20 1
    73   79   50 1
    74   80   35 1
    75   81   62 1
    76    3   68 1
    77   12   14 ar
    78   27   29 ar
    79   42   44 ar
    80   50   67 1
    81   52   77 1
    82   54   78 1
    83   56   79 1
    84   58   80 1
    85   62   73 2
    86   72   81 1
@<TRIPOS>SUBSTRUCTURE
     1 RES1 1

@<TRIPOS>CRYSIN
  10.9634    6.2492   24.2770  90.0000  97.7140  90.0000   4 1

