# MOL2 file generated by ConQuest
# Please check atom types

@<TRIPOS>MOLECULE
SEPRIP
    42    38     2
SMALL
NO_CHARGES
****
Generated from CSD

@<TRIPOS>ATOM
      1 C1         3.4677    3.5463   27.9708 C.2       1 RES1    0.0000
      2 C2         4.7034    3.0411   27.6849 C.2       1 RES1    0.0000
      3 C3         5.6564   -0.1587   26.3200 C.3       1 RES1    0.0000
      4 H1         5.2925   -0.3864   27.2013 H         1 RES1    0.0000
      5 C4         3.1323    1.9743   26.5686 C.2       1 RES1    0.0000
      6 H2         2.7196    1.3676   25.9970 H         1 RES1    0.0000
      7 C5         3.1892    4.6968   28.7913 C.2       1 RES1    0.0000
      8 C6         5.5048    1.3211   26.0029 C.3       1 RES1    0.0000
      9 H3         6.3686    1.7625   26.1422 H         1 RES1    0.0000
     10 C7         2.1769    6.3206   29.6590 C.2       1 RES1    0.0000
     11 C8         1.2487    7.3815   30.1012 C.3       1 RES1    0.0000
     12 H4         0.3434    7.0907   29.9681 H         1 RES1    0.0000
     13 H5         1.4065    8.1781   29.5883 H         1 RES1    0.0000
     14 H6         1.3929    7.5653   31.0334 H         1 RES1    0.0000
     15 C9         4.8730   -0.8092   25.1908 C.3       1 RES1    0.0000
     16 H7         3.9157   -0.7774   25.3980 H         1 RES1    0.0000
     17 O1         5.1520    1.4233   24.6174 O.3       1 RES1    0.0000
     18 O2         7.0257   -0.5045   26.2033 O.3       1 RES1    0.0000
     19 H8         7.2442   -0.9752   26.8369 H         1 RES1    0.0000
     20 O3         5.2597   -2.1509   24.9623 O.3       1 RES1    0.0000
     21 H9         4.6224   -2.5718   24.6631 H         1 RES1    0.0000
     22 O4         3.4275    6.3691   30.1101 O.3       1 RES1    0.0000
     23 N1         4.4887    2.0301   26.7681 N.3       1 RES1    0.0000
     24 N2         5.9132    3.3704   28.1635 N.3       1 RES1    0.0000
     25 H10        5.9880    3.9951   28.7483 H         1 RES1    0.0000
     26 H11        6.6136    2.9568   27.8837 H         1 RES1    0.0000
     27 N3         4.1137    5.2671   29.5327 N.2       1 RES1    0.0000
     28 N4         1.9715    5.3328   28.8521 N.2       1 RES1    0.0000
     29 N5         2.4869    2.8599   27.2631 N.2       1 RES1    0.0000
     30 C10        5.1644    0.1122   24.0294 C.3       1 RES1    0.0000
     31 C11        4.2140    0.0578   22.9184 C.3       1 RES1    0.0000
     32 H12        4.4782    0.7356   22.2761 H         1 RES1    0.0000
     33 H13        4.3241   -0.8019   22.4830 H         1 RES1    0.0000
     34 O5         2.9417    0.2171   23.1540 O.3       1 RES1    0.0000
     35 H14        2.7227   -0.2476   23.7923 H         1 RES1    0.0000
     36 C12        5.1644    0.1122   24.0294 Du        2 SUP2    0.0000
     37 O6         4.0958    1.0688   22.0723 Du        2 SUP2    0.0000
     38 H15        4.8210    1.4505   22.0507 Du        2 SUP2    0.0000
     39 C13        4.1768    0.0597   22.8288 Du        2 SUP2    0.0000
     40 H16        4.4138   -0.7024   22.2823 Du        2 SUP2    0.0000
     41 H17        3.2883   -0.1102   23.1840 Du        2 SUP2    0.0000
     42 H18        6.0146    0.0133   23.7707 H         1 RES1    0.0000
@<TRIPOS>BOND
     1    1    2 2
     2    2   23 1
     3    3    4 1
     4    5    6 1
     5    7    1 1
     6    8    3 1
     7    9    8 1
     8   10   11 1
     9   11   12 1
    10   13   11 1
    11   14   11 1
    12   15    3 1
    13   16   15 1
    14   17    8 1
    15   18    3 1
    16   19   18 1
    17   20   15 1
    18   21   20 1
    19   22   10 1
    20   23    5 1
    21   24    2 1
    22   25   24 1
    23   26   24 1
    24   27    7 2
    25   28    7 1
    26   29    1 1
    27   30   15 1
    28   31   30 1
    29   32   31 1
    30   33   31 1
    31   34   31 1
    32   35   34 1
    33   42   30 1
    34    5   29 2
    35    8   23 1
    36   10   28 2
    37   17   30 1
    38   22   27 1
@<TRIPOS>SUBSTRUCTURE
     1 RES1 1
     2 SUP2 36

@<TRIPOS>CRYSIN
   6.1879    6.6386   30.8790  90.0000  90.0000  90.0000  19 1

