# MOL2 file generated by ConQuest
# Please check atom types

@<TRIPOS>MOLECULE
SEPSIS
    68    73     1
SMALL
NO_CHARGES
****
Generated from CSD

@<TRIPOS>ATOM
      1 C1         8.8875    1.9321    3.6977 C.ar      1 RES1    0.0000
      2 C2         8.7347    0.5560    3.8089 C.ar      1 RES1    0.0000
      3 H1         8.0011    0.1242    3.3881 H         1 RES1    0.0000
      4 C3         9.6526   -0.1847    4.5324 C.ar      1 RES1    0.0000
      5 H2         9.5440   -1.1259    4.6032 H         1 RES1    0.0000
      6 C4        10.7145    0.4202    5.1457 C.ar      1 RES1    0.0000
      7 H3        11.3222   -0.0936    5.6654 H         1 RES1    0.0000
      8 C5        10.8997    1.7763    5.0049 C.ar      1 RES1    0.0000
      9 H4        11.6472    2.1956    5.4152 H         1 RES1    0.0000
     10 C6         9.9979    2.5411    4.2657 C.ar      1 RES1    0.0000
     11 H5        10.1424    3.4731    4.1514 H         1 RES1    0.0000
     12 C7         6.8017    3.2897    3.7367 C.3       1 RES1    0.0000
     13 C8         7.1025    3.7503    5.1989 C.3       1 RES1    0.0000
     14 H6         8.0929    3.8502    5.2980 H         1 RES1    0.0000
     15 C9         6.6095    2.8190    6.2851 C.ar      1 RES1    0.0000
     16 C10        7.4551    1.8577    6.8107 C.ar      1 RES1    0.0000
     17 H7         8.3609    1.8176    6.5260 H         1 RES1    0.0000
     18 C11        6.9861    0.9533    7.7505 C.ar      1 RES1    0.0000
     19 H8         7.5688    0.2870    8.0970 H         1 RES1    0.0000
     20 C12        5.6824    1.0138    8.1847 C.ar      1 RES1    0.0000
     21 H9         5.3644    0.3915    8.8290 H         1 RES1    0.0000
     22 C13        4.8449    1.9790    7.6819 C.ar      1 RES1    0.0000
     23 H10        3.9459    2.0291    7.9870 H         1 RES1    0.0000
     24 C14        5.3004    2.8801    6.7328 C.ar      1 RES1    0.0000
     25 H11        4.7126    3.5425    6.3873 H         1 RES1    0.0000
     26 C15        5.0516    6.4745    4.1583 C.ar      1 RES1    0.0000
     27 C16        5.2460    7.3935    5.1764 C.ar      1 RES1    0.0000
     28 H12        5.7822    7.1691    5.9270 H         1 RES1    0.0000
     29 C17        4.6506    8.6478    5.0912 C.ar      1 RES1    0.0000
     30 H13        4.7806    9.2760    5.7912 H         1 RES1    0.0000
     31 C18        3.8753    8.9930    4.0082 C.ar      1 RES1    0.0000
     32 H14        3.4681    9.8498    3.9627 H         1 RES1    0.0000
     33 C19        3.6961    8.0829    2.9918 C.ar      1 RES1    0.0000
     34 H15        3.1696    8.3178    2.2373 H         1 RES1    0.0000
     35 C20        4.2744    6.8311    3.0597 C.ar      1 RES1    0.0000
     36 H16        4.1411    6.2096    2.3531 H         1 RES1    0.0000
     37 C21        6.2564    4.5873    3.0803 C.3       1 RES1    0.0000
     38 H17        5.5841    4.3277    2.3874 H         1 RES1    0.0000
     39 C22        7.2855    5.4794    2.4297 C.ar      1 RES1    0.0000
     40 C23        8.3374    6.0510    3.1270 C.ar      1 RES1    0.0000
     41 H18        8.4092    5.9146    4.0642 H         1 RES1    0.0000
     42 C24        9.2865    6.8205    2.4700 C.ar      1 RES1    0.0000
     43 H19       10.0033    7.2074    2.9592 H         1 RES1    0.0000
     44 C25        9.1936    7.0251    1.1139 C.ar      1 RES1    0.0000
     45 H20        9.8468    7.5478    0.6647 H         1 RES1    0.0000
     46 C26        8.1569    6.4728    0.4160 C.ar      1 RES1    0.0000
     47 H21        8.0898    6.6159   -0.5204 H         1 RES1    0.0000
     48 C27        7.2002    5.7028    1.0675 C.ar      1 RES1    0.0000
     49 H22        6.4819    5.3262    0.5733 H         1 RES1    0.0000
     50 C28        5.7921    2.1451    3.6215 C.3       1 RES1    0.0000
     51 H23        5.9284    1.4725    4.3359 H         1 RES1    0.0000
     52 H24        4.8618    2.4815    3.6654 H         1 RES1    0.0000
     53 C29        6.1048    1.5613    2.2447 C.3       1 RES1    0.0000
     54 H25        6.1522    0.5647    2.3087 H         1 RES1    0.0000
     55 C30        5.0902    1.9509    1.1908 C.2       1 RES1    0.0000
     56 C31        2.8961    1.4953    0.4537 C.3       1 RES1    0.0000
     57 H26        3.1657    1.4460   -0.4975 H         1 RES1    0.0000
     58 H27        2.5790    2.4139    0.6419 H         1 RES1    0.0000
     59 C32        1.8191    0.5181    0.7289 C.3       1 RES1    0.0000
     60 H28        1.0439    0.7183    0.1630 H         1 RES1    0.0000
     61 H29        1.5589    0.5760    1.6726 H         1 RES1    0.0000
     62 H30        2.1407   -0.3868    0.5332 H         1 RES1    0.0000
     63 N1         7.9812    2.7962    2.9885 N.3       1 RES1    0.0000
     64 N2         5.5309    5.1437    4.2414 N.3       1 RES1    0.0000
     65 O1         7.3922    2.0785    1.8746 O.3       1 RES1    0.0000
     66 O2         6.5040    5.0502    5.3277 O.3       1 RES1    0.0000
     67 O3         5.2021    2.8249    0.3837 O.2       1 RES1    0.0000
     68 O4         4.0231    1.1708    1.3091 O.3       1 RES1    0.0000
@<TRIPOS>BOND
     1    1    2 ar
     2    2    3 1
     3    4    2 ar
     4    5    4 1
     5    6    4 ar
     6    7    6 1
     7    8    6 ar
     8    9    8 1
     9   10    1 ar
    10   11   10 1
    11   12   13 1
    12   13   14 1
    13   15   13 1
    14   16   15 ar
    15   17   16 1
    16   18   16 ar
    17   19   18 1
    18   20   18 ar
    19   21   20 1
    20   22   20 ar
    21   23   22 1
    22   24   15 ar
    23   25   24 1
    24   26   27 ar
    25   27   28 1
    26   29   27 ar
    27   30   29 1
    28   31   29 ar
    29   32   31 1
    30   33   31 ar
    31   34   33 1
    32   35   26 ar
    33   36   35 1
    34   37   12 1
    35   38   37 1
    36   39   37 1
    37   40   39 ar
    38   41   40 1
    39   42   40 ar
    40   43   42 1
    41   44   42 ar
    42   45   44 1
    43   46   44 ar
    44   47   46 1
    45   48   39 ar
    46   49   48 1
    47   50   12 1
    48   51   50 1
    49   52   50 1
    50   53   50 1
    51   54   53 1
    52   55   53 1
    53   56   57 1
    54   58   56 1
    55   59   56 1
    56   60   59 1
    57   61   59 1
    58   62   59 1
    59   63    1 1
    60   64   26 1
    61   65   53 1
    62   66   13 1
    63   67   55 2
    64   68   55 1
    65    8   10 ar
    66   12   63 1
    67   22   24 ar
    68   33   35 ar
    69   37   64 1
    70   46   48 ar
    71   56   68 1
    72   63   65 1
    73   64   66 1
@<TRIPOS>SUBSTRUCTURE
     1 RES1 1

@<TRIPOS>CRYSIN
   9.2140   10.2240   14.5971 100.1170  95.0210  94.0310   2 1

