# MOL2 file generated by ConQuest
# Please check atom types

@<TRIPOS>MOLECULE
SEPTAL
    51    55     2
SMALL
NO_CHARGES
****
Generated from CSD

@<TRIPOS>ATOM
      1 N1         1.6399    3.8416   14.6695 N.3       1 RES1    0.0000
      2 N2         1.7642    6.2960   12.4446 N.3       1 RES1    0.0000
      3 O1         3.2181    6.0874   12.3413 O.3       1 RES1    0.0000
      4 C1         2.3319    1.8375   13.9315 C.3       1 RES1    0.0000
      5 H1         1.9553    1.0039   13.5832 H         1 RES1    0.0000
      6 H2         3.1113    1.5950   14.4534 H         1 RES1    0.0000
      7 C2         2.6897    2.7780   12.8042 C.3       1 RES1    0.0000
      8 H3         2.2109    2.5333   11.9617 H         1 RES1    0.0000
      9 C3         4.1720    2.9497   12.5652 C.ar      1 RES1    0.0000
     10 C4         5.0653    1.9856   12.0907 C.ar      1 RES1    0.0000
     11 H4         4.7617    1.1203   11.8428 H         1 RES1    0.0000
     12 C5         6.4066    2.3254   11.9925 C.ar      1 RES1    0.0000
     13 H5         7.0287    1.6864   11.6673 H         1 RES1    0.0000
     14 C6         6.8509    3.5865   12.3627 C.ar      1 RES1    0.0000
     15 H6         7.7748    3.7951   12.2959 H         1 RES1    0.0000
     16 C7         5.9638    4.5477   12.8300 C.ar      1 RES1    0.0000
     17 H7         6.2707    5.4078   13.0943 H         1 RES1    0.0000
     18 C8         4.6133    4.2145   12.8993 C.ar      1 RES1    0.0000
     19 C9         3.4809    5.0850   13.3448 C.3       1 RES1    0.0000
     20 H8         3.6459    5.4867   14.2457 H         1 RES1    0.0000
     21 C10        2.2284    4.1629   13.3329 C.3       1 RES1    0.0000
     22 C11        1.2712    4.8963   12.3704 C.3       1 RES1    0.0000
     23 H9         1.4218    4.5513   11.4445 H         1 RES1    0.0000
     24 C12       -0.2100    4.7872   12.6979 C.3       1 RES1    0.0000
     25 H10       -0.3830    5.2007   13.5700 H         1 RES1    0.0000
     26 H11       -0.4699    3.8430   12.7262 H         1 RES1    0.0000
     27 H12       -0.7320    5.2486   12.0089 H         1 RES1    0.0000
     28 C13        1.8632    4.6774   15.7970 C.ar      1 RES1    0.0000
     29 C14        1.6082    6.0424   15.7079 C.ar      1 RES1    0.0000
     30 H13        1.2887    6.4132   14.8932 H         1 RES1    0.0000
     31 C15        1.8215    6.8613   16.8042 C.ar      1 RES1    0.0000
     32 H14        1.6638    7.7951   16.7298 H         1 RES1    0.0000
     33 C16        2.2607    6.3343   18.0042 C.ar      1 RES1    0.0000
     34 H15        2.4150    6.9011   18.7515 H         1 RES1    0.0000
     35 C17        2.4739    4.9811   18.1044 C.ar      1 RES1    0.0000
     36 H16        2.7611    4.6125   18.9308 H         1 RES1    0.0000
     37 C18        2.2731    4.1452   17.0167 C.ar      1 RES1    0.0000
     38 H17        2.4161    3.2099   17.1036 H         1 RES1    0.0000
     39 C19        1.3800    7.1650   11.3679 C.ar      1 RES1    0.0000
     40 C20        2.1810    7.3964   10.2520 C.ar      1 RES1    0.0000
     41 H18        2.9904    6.9114   10.1364 H         1 RES1    0.0000
     42 C21        1.7957    8.3339    9.3127 C.ar      1 RES1    0.0000
     43 H19        2.3453    8.4968    8.5546 H         1 RES1    0.0000
     44 C22        0.6090    9.0393    9.4684 C.ar      1 RES1    0.0000
     45 H20        0.3554    9.6931    8.8283 H         1 RES1    0.0000
     46 C23       -0.2025    8.7880   10.5555 C.ar      1 RES1    0.0000
     47 H21       -1.0277    9.2479   10.6461 H         1 RES1    0.0000
     48 C24        0.1820    7.8696   11.5159 C.ar      1 RES1    0.0000
     49 H22       -0.3693    7.7178   12.2751 H         1 RES1    0.0000
     50 O2         2.3981    2.5222   15.0510 O.3       1 RES1    0.0000
     51 O3         1.3291    2.5775   14.7535 Du        2 SUP2    0.0000
@<TRIPOS>BOND
     1    1   21 1
     2    2    3 1
     3    3   19 1
     4    4    5 1
     5    6    4 1
     6    7    4 1
     7    8    7 1
     8    9    7 1
     9   10    9 ar
    10   11   10 1
    11   12   10 ar
    12   13   12 1
    13   14   12 ar
    14   15   14 1
    15   16   14 ar
    16   17   16 1
    17   18    9 ar
    18   19   18 1
    19   20   19 1
    20   21    7 1
    21   22    2 1
    22   23   22 1
    23   24   22 1
    24   25   24 1
    25   26   24 1
    26   27   24 1
    27   28    1 1
    28   29   28 ar
    29   30   29 1
    30   31   29 ar
    31   32   31 1
    32   33   31 ar
    33   34   33 1
    34   35   33 ar
    35   36   35 1
    36   37   28 ar
    37   38   37 1
    38   39    2 1
    39   40   39 ar
    40   41   40 1
    41   42   40 ar
    42   43   42 1
    43   44   42 ar
    44   45   44 1
    45   46   44 ar
    46   47   46 1
    47   48   39 ar
    48   49   48 1
    49   50    1 1
    50    4   50 1
    51   16   18 ar
    52   19   21 1
    53   21   22 1
    54   35   37 ar
    55   46   48 ar
@<TRIPOS>SUBSTRUCTURE
     1 RES1 1
     2 SUP2 51

@<TRIPOS>CRYSIN
  13.7372    7.3706   19.7024  90.0000 106.6530  90.0000 231 1

