# MOL2 file generated by ConQuest
# Please check atom types

@<TRIPOS>MOLECULE
SEPWER
    46    37     2
SMALL
NO_CHARGES
****
Generated from CSD

@<TRIPOS>ATOM
      1 C1        -1.0166   10.0327   11.1322 C.2       1 RES1    0.0000
      2 N1        -0.7569   10.5862   12.2509 N.2       1 RES1    0.0000
      3 C2        -1.8617    8.8289   10.9430 C.3       1 RES1    0.0000
      4 H1        -2.2294    8.5476   11.8070 H         1 RES1    0.0000
      5 H2        -1.3188    8.1040   10.5689 H         1 RES1    0.0000
      6 H3        -2.5957    9.0374   10.3287 H         1 RES1    0.0000
      7 O1        -1.4367    9.9411   13.3313 O.3       1 RES1    0.0000
      8 C3        -0.9524   10.3809   14.5290 C.2       1 RES1    0.0000
      9 C4        -2.0250   10.3197   15.5666 C.2       1 RES1    0.0000
     10 O2        -3.1653   10.0773   15.3090 O.2       1 RES1    0.0000
     11 O3        -1.5625   10.5675   16.7867 O.3       1 RES1    0.0000
     12 C5        -2.5236   10.4065   17.8556 C.3       1 RES1    0.0000
     13 H4        -2.1173   10.6824   18.7046 H         1 RES1    0.0000
     14 H5        -2.7932    9.4665   17.9131 H         1 RES1    0.0000
     15 H6        -3.3102   10.9625   17.6744 H         1 RES1    0.0000
     16 C6         0.3441   10.5673   14.6914 C.2       1 RES1    0.0000
     17 H7         0.6420   10.8800   15.5384 H         1 RES1    0.0000
     18 C7         1.3729   10.3212   13.6427 C.2       1 RES1    0.0000
     19 O4         1.5376    9.2642   13.0994 O.2       1 RES1    0.0000
     20 O5         2.1636   11.3883   13.4833 O.3       1 RES1    0.0000
     21 C8         3.2579   11.1879   12.5462 C.3       1 RES1    0.0000
     22 H8         3.7993   12.0026   12.4985 H         1 RES1    0.0000
     23 H9         2.8944   10.9843   11.6592 H         1 RES1    0.0000
     24 H10        3.8156   10.4424   12.8511 H         1 RES1    0.0000
     25 C9        -0.3759   10.6873    9.9588 C.ar      1 RES1    0.0000
     26 C10       -0.4326   10.0938    8.7012 C.ar      1 RES1    0.0000
     27 H11       -0.8945    9.2702    8.5931 H         1 RES1    0.0000
     28 C11        0.1747   10.6880    7.6024 C.ar      1 RES1    0.0000
     29 H12        0.1360   10.2788    6.7467 H         1 RES1    0.0000
     30 C12        0.8311   11.8760    7.7792 C.ar      1 RES1    0.0000
     31 C13        0.9119   12.5111    9.0134 C.ar      1 RES1    0.0000
     32 H13        1.3708   13.3373    9.1075 H         1 RES1    0.0000
     33 C14        0.3081   11.9079   10.0974 C.ar      1 RES1    0.0000
     34 H14        0.3550   12.3238   10.9508 H         1 RES1    0.0000
     35 N2         1.4602   12.5134    6.6121 N.pl3     1 RES1    0.0000
     36 O6         2.0415   13.5799    6.7733 O.2       1 RES1    0.0000
     37 O7         1.3788   11.9448    5.5258 O.2       1 RES1    0.0000
     38 C15        0.1960   11.0558   14.8470 Du        2 SUP2    0.0000
     39 H15        0.2744   11.3637   15.7417 Du        2 SUP2    0.0000
     40 C16        1.3388   11.3601   13.9358 Du        2 SUP2    0.0000
     41 O8         1.6873   12.4814   13.6750 Du        2 SUP2    0.0000
     42 O9         1.9655   10.2630   13.5056 Du        2 SUP2    0.0000
     43 C17        3.0804   10.5285   12.5971 Du        2 SUP2    0.0000
     44 H16        3.5405    9.6884   12.3907 Du        2 SUP2    0.0000
     45 H17        3.7086   11.1479   13.0236 Du        2 SUP2    0.0000
     46 H18        2.7397   10.9273   11.7701 Du        2 SUP2    0.0000
@<TRIPOS>BOND
     1    1    2 2
     2    2    7 1
     3    3    1 1
     4    4    3 1
     5    5    3 1
     6    6    3 1
     7    7    8 1
     8    8    9 1
     9    9   10 2
    10   11    9 1
    11   12   11 1
    12   13   12 1
    13   14   12 1
    14   15   12 1
    15   16    8 2
    16   17   16 1
    17   18   16 1
    18   19   18 2
    19   20   18 1
    20   21   20 1
    21   22   21 1
    22   23   21 1
    23   24   21 1
    24   25    1 1
    25   26   25 ar
    26   27   26 1
    27   28   26 ar
    28   29   28 1
    29   30   28 ar
    30   31   30 ar
    31   32   31 1
    32   33   25 ar
    33   34   33 1
    34   35   30 1
    35   36   35 2
    36   37   35 2
    37   31   33 ar
@<TRIPOS>SUBSTRUCTURE
     1 RES1 1
     2 SUP2 38

@<TRIPOS>CRYSIN
   7.8696   12.1226   15.5340  90.0000  97.5363  90.0000 231 1

