# MOL2 file generated by ConQuest
# Please check atom types

@<TRIPOS>MOLECULE
SEPWIV
    62    62     2
SMALL
NO_CHARGES
****
Generated from CSD

@<TRIPOS>ATOM
      1 C1         3.7931    7.7572    7.5477 C.2       1 RES1    0.0000
      2 N1         4.8240    7.1970    8.0673 N.2       1 RES1    0.0000
      3 O1         5.9557    7.3346    7.2094 O.3       1 RES1    0.0000
      4 C2         7.0056    6.6443    7.7252 C.2       1 RES1    0.0000
      5 H1         6.9237    6.2140    8.5677 H         1 RES1    0.0000
      6 C3         8.1489    6.5720    7.0479 C.2       1 RES1    0.0000
      7 H2         8.2628    7.0586    6.2397 H         1 RES1    0.0000
      8 C4         9.2286    5.7317    7.5674 C.2       1 RES1    0.0000
      9 O2         9.2527    5.1960    8.6608 O.2       1 RES1    0.0000
     10 O3        10.2033    5.6024    6.6566 O.3       1 RES1    0.0000
     11 C5        11.2854    4.7380    7.0205 C.3       1 RES1    0.0000
     12 H3        11.7772    5.1290    7.7728 H         1 RES1    0.0000
     13 H4        11.8889    4.6310    6.2565 H         1 RES1    0.0000
     14 H5        10.9305    3.8627    7.2813 H         1 RES1    0.0000
     15 C6         3.7860    8.4714    6.2261 C.3       1 RES1    0.0000
     16 H6         3.5053    7.8511    5.5214 H         1 RES1    0.0000
     17 H7         4.6863    8.8043    6.0296 H         1 RES1    0.0000
     18 H8         3.1616    9.2257    6.2659 H         1 RES1    0.0000
     19 C7         2.5561    7.6461    8.3718 C.ar      1 RES1    0.0000
     20 C8         1.4154    8.3622    8.0166 C.ar      1 RES1    0.0000
     21 H9         1.4333    8.9245    7.2509 H         1 RES1    0.0000
     22 C9         0.2507    8.2632    8.7701 C.ar      1 RES1    0.0000
     23 H10       -0.5293    8.7473    8.5268 H         1 RES1    0.0000
     24 C10        0.2585    7.4413    9.8830 C.ar      1 RES1    0.0000
     25 C11        1.3724    6.7155   10.2705 C.ar      1 RES1    0.0000
     26 H11        1.3466    6.1591   11.0396 H         1 RES1    0.0000
     27 C12        2.5249    6.8207    9.5084 C.ar      1 RES1    0.0000
     28 H12        3.3004    6.3306    9.7564 H         1 RES1    0.0000
     29 N2        -0.9710    7.3364   10.6811 N.pl3     1 RES1    0.0000
     30 O4        -0.9663    6.5876   11.6566 O.2       1 RES1    0.0000
     31 O5        -1.9420    8.0096   10.3454 O.2       1 RES1    0.0000
     32 C13        4.1539    3.1994    1.8791 C.2       2 RES2    0.0000
     33 N3         2.9512    3.4341    2.2401 N.2       2 RES2    0.0000
     34 O6         2.3203    4.3191    1.3097 O.3       2 RES2    0.0000
     35 C14        1.0307    4.5513    1.6595 C.2       2 RES2    0.0000
     36 H13        0.5308    5.1118    1.0774 H         2 RES2    0.0000
     37 C15        0.3858    4.0830    2.7263 C.2       2 RES2    0.0000
     38 H14        0.8612    3.5427    3.3466 H         2 RES2    0.0000
     39 C16       -1.0270    4.3686    2.9802 C.2       2 RES2    0.0000
     40 O7        -1.6467    3.9234    3.9135 O.2       2 RES2    0.0000
     41 O8        -1.5665    5.1989    2.0636 O.3       2 RES2    0.0000
     42 C17       -2.9594    5.5105    2.2747 C.3       2 RES2    0.0000
     43 H15       -3.0594    6.0047    3.1146 H         2 RES2    0.0000
     44 H16       -3.4768    4.6794    2.3207 H         2 RES2    0.0000
     45 H17       -3.2879    6.0590    1.5321 H         2 RES2    0.0000
     46 C18        4.7983    3.7851    0.6581 C.3       2 RES2    0.0000
     47 H18        4.7204    4.7614    0.6847 H         2 RES2    0.0000
     48 H19        4.3498    3.4435   -0.1439 H         2 RES2    0.0000
     49 H20        5.7445    3.5326    0.6353 H         2 RES2    0.0000
     50 C19        4.8996    2.2912    2.8007 C.ar      2 RES2    0.0000
     51 C20        6.1996    1.8869    2.5038 C.ar      2 RES2    0.0000
     52 H21        6.6028    2.1631    1.6896 H         2 RES2    0.0000
     53 C21        6.9144    1.0832    3.3873 C.ar      2 RES2    0.0000
     54 H22        7.8073    0.8210    3.1944 H         2 RES2    0.0000
     55 C22        6.2931    0.6770    4.5517 C.ar      2 RES2    0.0000
     56 C23        4.9930    1.0283    4.8708 C.ar      2 RES2    0.0000
     57 H23        4.5850    0.7183    5.6705 H         2 RES2    0.0000
     58 C24        4.3035    1.8458    3.9904 C.ar      2 RES2    0.0000
     59 H24        3.4141    2.1090    4.1951 H         2 RES2    0.0000
     60 N4         7.0465   -0.1538    5.5031 N.pl3     2 RES2    0.0000
     61 O9         6.4546   -0.6002    6.4840 O.2       2 RES2    0.0000
     62 O10        8.2357   -0.3646    5.2810 O.2       2 RES2    0.0000
@<TRIPOS>BOND
     1    1    2 2
     2    2    3 1
     3    3    4 1
     4    4    5 1
     5    6    4 2
     6    7    6 1
     7    8    6 1
     8    9    8 2
     9   10    8 1
    10   11   10 1
    11   12   11 1
    12   13   11 1
    13   14   11 1
    14   15    1 1
    15   16   15 1
    16   17   15 1
    17   18   15 1
    18   19    1 1
    19   20   19 ar
    20   21   20 1
    21   22   20 ar
    22   23   22 1
    23   24   22 ar
    24   25   24 ar
    25   26   25 1
    26   27   19 ar
    27   28   27 1
    28   29   24 1
    29   30   29 2
    30   31   29 2
    31   32   33 2
    32   33   34 1
    33   34   35 1
    34   35   36 1
    35   37   35 2
    36   38   37 1
    37   39   37 1
    38   40   39 2
    39   41   39 1
    40   42   41 1
    41   43   42 1
    42   44   42 1
    43   45   42 1
    44   46   32 1
    45   47   46 1
    46   48   46 1
    47   49   46 1
    48   50   32 1
    49   51   50 ar
    50   52   51 1
    51   53   51 ar
    52   54   53 1
    53   55   53 ar
    54   56   55 ar
    55   57   56 1
    56   58   50 ar
    57   59   58 1
    58   60   55 1
    59   61   60 2
    60   62   60 2
    61   25   27 ar
    62   56   58 ar
@<TRIPOS>SUBSTRUCTURE
     1 RES1 1
     2 RES2 32

@<TRIPOS>CRYSIN
  10.9080   11.3838   11.6457  64.7860  86.6390  72.3670   2 1

