# MOL2 file generated by ConQuest
# Please check atom types

@<TRIPOS>MOLECULE
SEQQEN
    66    68     2
SMALL
NO_CHARGES
****
Generated from CSD

@<TRIPOS>ATOM
      1 C1         1.8241    5.8350    6.1143 C.1       1 RES1    0.0000
      2 N1         1.9220    6.0136    4.9843 N.1       1 RES1    0.0000
      3 C2         1.7399    5.5599    7.5612 C.3       1 RES1    0.0000
      4 H1         1.1535    4.7599    7.6886 H         1 RES1    0.0000
      5 C3         5.0046    3.4352    7.9503 C.2       1 RES1    0.0000
      6 O1         5.2644    2.3017    8.2863 O.2       1 RES1    0.0000
      7 C4         3.5931    3.8355    7.5620 C.3       1 RES1    0.0000
      8 H2         2.9640    3.1473    7.8945 H         1 RES1    0.0000
      9 H3         3.5270    3.8500    6.5740 H         1 RES1    0.0000
     10 C5         3.1593    5.2069    8.1064 C.3       1 RES1    0.0000
     11 H4         3.0907    5.1295    9.1013 H         1 RES1    0.0000
     12 C6         4.2261    6.2619    7.7958 C.3       1 RES1    0.0000
     13 H5         4.3189    6.3625    6.8155 H         1 RES1    0.0000
     14 H6         3.9492    7.1354    8.1708 H         1 RES1    0.0000
     15 C7         5.5641    5.8472    8.3972 C.3       1 RES1    0.0000
     16 H7         5.4721    5.7761    9.3806 H         1 RES1    0.0000
     17 H8         6.2393    6.5449    8.2041 H         1 RES1    0.0000
     18 C8         6.0488    4.5045    7.8362 C.3       1 RES1    0.0000
     19 H9         6.2939    4.6194    6.8838 H         1 RES1    0.0000
     20 H10        6.8603    4.2205    8.3269 H         1 RES1    0.0000
     21 C9         1.0989    6.7394    8.3069 C.ar      1 RES1    0.0000
     22 C10        0.3231    6.6196    9.4725 C.ar      1 RES1    0.0000
     23 N2        -0.0291    5.3067   10.0388 N.pl3     1 RES1    0.0000
     24 O2         0.7094    4.3464    9.8273 O.2       1 RES1    0.0000
     25 O3        -1.0668    5.2245   10.6950 O.2       1 RES1    0.0000
     26 C11       -0.1949    7.7180   10.1247 C.ar      1 RES1    0.0000
     27 H11       -0.7138    7.5992   10.9116 H         1 RES1    0.0000
     28 C12        0.0369    8.9935    9.6389 C.ar      1 RES1    0.0000
     29 H12       -0.3065    9.7525   10.0955 H         1 RES1    0.0000
     30 C13        0.7694    9.1466    8.4883 C.ar      1 RES1    0.0000
     31 H13        0.9230   10.0170    8.1404 H         1 RES1    0.0000
     32 C14        1.2901    8.0350    7.8267 C.ar      1 RES1    0.0000
     33 H14        1.7879    8.1634    7.0276 H         1 RES1    0.0000
     34 C15        8.2950    9.9935    4.0508 C.1       2 RES2    0.0000
     35 N3         8.5674   11.0674    3.7600 N.1       2 RES2    0.0000
     36 C16        7.9426    8.6161    4.4653 C.3       2 RES2    0.0000
     37 H15        8.2810    8.4829    5.3965 H         2 RES2    0.0000
     38 C17        4.2504    9.3380    5.4986 C.2       2 RES2    0.0000
     39 O4         3.6701    9.5220    6.5596 O.2       2 RES2    0.0000
     40 C18        5.7557    9.4091    5.4494 C.3       2 RES2    0.0000
     41 H16        6.1110    9.2493    6.3596 H         2 RES2    0.0000
     42 H17        6.0219   10.3238    5.1801 H         2 RES2    0.0000
     43 C19        6.3994    8.4067    4.4874 C.3       2 RES2    0.0000
     44 H18        6.2231    7.4890    4.8435 H         2 RES2    0.0000
     45 C20        5.7228    8.5126    3.1261 C.3       2 RES2    0.0000
     46 H19        6.1607    7.8974    2.4861 H         2 RES2    0.0000
     47 H20        5.8114    9.4354    2.7792 H         2 RES2    0.0000
     48 C21        4.2389    8.1497    3.2616 C.3       2 RES2    0.0000
     49 H21        3.8074    8.1955    2.3718 H         2 RES2    0.0000
     50 H22        4.1571    7.2206    3.5937 H         2 RES2    0.0000
     51 C22        3.5244    9.0917    4.2180 C.3       2 RES2    0.0000
     52 H23        3.3834    9.9590    3.7616 H         2 RES2    0.0000
     53 H24        2.6329    8.7150    4.4264 H         2 RES2    0.0000
     54 C23        8.6389    7.5952    3.5682 C.ar      2 RES2    0.0000
     55 C24        8.9103    6.2640    3.9201 C.ar      2 RES2    0.0000
     56 N4         8.6645    5.7371    5.2780 N.pl3     2 RES2    0.0000
     57 O5         8.0903    6.4437    6.1017 O.2       2 RES2    0.0000
     58 O6         9.0691    4.6110    5.5390 O.2       2 RES2    0.0000
     59 C25        9.4833    5.3647    3.0270 C.ar      2 RES2    0.0000
     60 H25        9.6505    4.4686    3.2947 H         2 RES2    0.0000
     61 C26        9.8084    5.7772    1.7496 C.ar      2 RES2    0.0000
     62 H26       10.1958    5.1672    1.1331 H         2 RES2    0.0000
     63 C27        9.5649    7.0870    1.3756 C.ar      2 RES2    0.0000
     64 H27        9.7916    7.3793    0.5008 H         2 RES2    0.0000
     65 C28        8.9919    7.9737    2.2726 C.ar      2 RES2    0.0000
     66 H28        8.8344    8.8688    1.9964 H         2 RES2    0.0000
@<TRIPOS>BOND
     1    1    2 3
     2    3    1 1
     3    4    3 1
     4    5    6 2
     5    7    5 1
     6    8    7 1
     7    9    7 1
     8   10    3 1
     9   11   10 1
    10   12   10 1
    11   13   12 1
    12   14   12 1
    13   15   12 1
    14   16   15 1
    15   17   15 1
    16   18    5 1
    17   19   18 1
    18   20   18 1
    19   21    3 1
    20   22   21 ar
    21   23   22 1
    22   24   23 2
    23   25   23 2
    24   26   22 ar
    25   27   26 1
    26   28   26 ar
    27   29   28 1
    28   30   28 ar
    29   31   30 1
    30   32   21 ar
    31   33   32 1
    32   34   35 3
    33   36   34 1
    34   37   36 1
    35   38   39 2
    36   40   38 1
    37   41   40 1
    38   42   40 1
    39   43   36 1
    40   44   43 1
    41   45   43 1
    42   46   45 1
    43   47   45 1
    44   48   45 1
    45   49   48 1
    46   50   48 1
    47   51   38 1
    48   52   51 1
    49   53   51 1
    50   54   36 1
    51   55   54 ar
    52   56   55 1
    53   57   56 2
    54   58   56 2
    55   59   55 ar
    56   60   59 1
    57   61   59 ar
    58   62   61 1
    59   63   61 ar
    60   64   63 1
    61   65   54 ar
    62   66   65 1
    63    7   10 1
    64   15   18 1
    65   30   32 ar
    66   40   43 1
    67   48   51 1
    68   63   65 ar
@<TRIPOS>SUBSTRUCTURE
     1 RES1 1
     2 RES2 34

@<TRIPOS>CRYSIN
  21.7836   14.3008    7.9630  90.0000  95.6630  90.0000  14 1

