# MOL2 file generated by ConQuest
# Please check atom types

@<TRIPOS>MOLECULE
SEQQAJ
    31    32     1
SMALL
NO_CHARGES
****
Generated from CSD

@<TRIPOS>ATOM
      1 C1         1.7246    9.4547    3.7036 C.1       1 RES1    0.0000
      2 N1         1.0009    9.0778    2.9012 N.1       1 RES1    0.0000
      3 C2         2.6410    9.9720    4.7376 C.3       1 RES1    0.0000
      4 H1         3.1377   10.7489    4.3506 H         1 RES1    0.0000
      5 C3        -1.1767   12.6978    6.2362 C.3       1 RES1    0.0000
      6 H2        -0.7384   13.4979    6.5940 H         1 RES1    0.0000
      7 H3        -1.9171   12.4402    6.8243 H         1 RES1    0.0000
      8 H4        -1.5230   12.8883    5.3394 H         1 RES1    0.0000
      9 N2        -0.2128   11.6075    6.1630 N.am      1 RES1    0.0000
     10 C4         1.0496   11.7351    5.6309 C.2       1 RES1    0.0000
     11 O1         1.4566   12.7028    5.0173 O.2       1 RES1    0.0000
     12 C5         1.8353   10.4785    5.9604 C.3       1 RES1    0.0000
     13 H5         2.4894   10.7093    6.6808 H         1 RES1    0.0000
     14 C6         0.7992    9.5235    6.5612 C.3       1 RES1    0.0000
     15 H6         0.6311    8.7605    5.9533 H         1 RES1    0.0000
     16 H7         1.1083    9.1745    7.4346 H         1 RES1    0.0000
     17 C7        -0.4389   10.3533    6.7282 C.2       1 RES1    0.0000
     18 O2        -1.4833   10.0310    7.2478 O.2       1 RES1    0.0000
     19 C8         3.6596    8.9174    5.1455 C.ar      1 RES1    0.0000
     20 C9         4.9922    9.2155    5.4374 C.ar      1 RES1    0.0000
     21 N3         5.4827   10.5972    5.3580 N.pl3     1 RES1    0.0000
     22 O3         4.7794   11.4944    5.8134 O.2       1 RES1    0.0000
     23 O4         6.5785   10.7835    4.8447 O.2       1 RES1    0.0000
     24 C10        5.9203    8.2556    5.7977 C.ar      1 RES1    0.0000
     25 H8         6.8221    8.4973    5.9732 H         1 RES1    0.0000
     26 C11        5.5129    6.9382    5.8981 C.ar      1 RES1    0.0000
     27 H9         6.1353    6.2654    6.1480 H         1 RES1    0.0000
     28 C12        4.1994    6.6024    5.6343 C.ar      1 RES1    0.0000
     29 H10        3.9170    5.6991    5.7180 H         1 RES1    0.0000
     30 C13        3.2881    7.5787    5.2468 C.ar      1 RES1    0.0000
     31 H11        2.3940    7.3276    5.0470 H         1 RES1    0.0000
@<TRIPOS>BOND
     1    1    2 3
     2    3    1 1
     3    4    3 1
     4    5    6 1
     5    7    5 1
     6    8    5 1
     7    9    5 1
     8   10    9 1
     9   11   10 2
    10   12    3 1
    11   13   12 1
    12   14   12 1
    13   15   14 1
    14   16   14 1
    15   17    9 1
    16   18   17 2
    17   19    3 1
    18   20   19 ar
    19   21   20 1
    20   22   21 2
    21   23   21 2
    22   24   20 ar
    23   25   24 1
    24   26   24 ar
    25   27   26 1
    26   28   26 ar
    27   29   28 1
    28   30   19 ar
    29   31   30 1
    30   10   12 1
    31   14   17 1
    32   28   30 ar
@<TRIPOS>SUBSTRUCTURE
     1 RES1 1

@<TRIPOS>CRYSIN
   9.9636   16.3916    7.4181  90.0000  90.5800  90.0000  14 1

