# MOL2 file generated by ConQuest
# Please check atom types

@<TRIPOS>MOLECULE
SERMUZ
    52    54     2
SMALL
NO_CHARGES
****
Generated from CSD

@<TRIPOS>ATOM
      1 O1         7.8966   10.3386    5.0735 O.3       1 RES1    0.0000
      2 O2         7.0362    8.5882    6.1744 O.2       1 RES1    0.0000
      3 O3         8.7001   10.7367   -1.7697 O.2       1 RES1    0.0000
      4 O4         8.0965    8.7089   -2.1981 O.2       1 RES1    0.0000
      5 N1         6.9235    7.2292    3.8403 N.2       1 RES1    0.0000
      6 N2         6.9732    6.9256    2.5865 N.pl3     1 RES1    0.0000
      7 H1         6.7740    6.1448    2.2855 H         1 RES1    0.0000
      8 N3         8.2962    9.6417   -1.4189 N.pl3     1 RES1    0.0000
      9 C1         7.3902    8.0061    1.7405 C.ar      1 RES1    0.0000
     10 C2         7.5842    8.1833    0.3981 C.ar      1 RES1    0.0000
     11 H2         7.4346    7.4985   -0.2124 H         1 RES1    0.0000
     12 C3         8.0093    9.4170    0.0000 C.ar      1 RES1    0.0000
     13 C4         8.2169   10.4807    0.8933 C.ar      1 RES1    0.0000
     14 H3         8.4870   11.3075    0.5644 H         1 RES1    0.0000
     15 C5         8.0310   10.3225    2.2248 C.ar      1 RES1    0.0000
     16 H4         8.1723   11.0202    2.8244 H         1 RES1    0.0000
     17 C6         7.6101    9.0407    2.6606 C.ar      1 RES1    0.0000
     18 C7         7.3285    8.5451    3.8937 C.2       1 RES1    0.0000
     19 C8         7.3942    9.1234    5.1645 C.2       1 RES1    0.0000
     20 C9         8.0184   11.0784    6.3273 C.3       1 RES1    0.0000
     21 H5         7.1773   11.0601    6.8080 H         1 RES1    0.0000
     22 H6         8.7013   10.6759    6.8869 H         1 RES1    0.0000
     23 C10        8.3794   12.4458    6.0069 C.3       1 RES1    0.0000
     24 H7         8.6099   12.9119    6.8128 H         1 RES1    0.0000
     25 H8         7.6361   12.8830    5.5857 H         1 RES1    0.0000
     26 H9         9.1313   12.4473    5.4109 H         1 RES1    0.0000
     27 O5         5.5559   13.2370    1.7879 O.2       2 RES2    0.0000
     28 O6         5.6465   13.8611    3.9399 O.3       2 RES2    0.0000
     29 O7         3.2762    6.8967   -0.0473 O.2       2 RES2    0.0000
     30 O8         3.1037    6.1366    1.9335 O.2       2 RES2    0.0000
     31 N4         4.2500   10.3519    4.8465 N.pl3     2 RES2    0.0000
     32 H10        4.0515    9.9557    5.5833 H         2 RES2    0.0000
     33 N5         3.3594    7.0223    1.1567 N.pl3     2 RES2    0.0000
     34 N6         4.7062   11.5623    4.7628 N.2       2 RES2    0.0000
     35 C11        4.1179    9.7493    3.5247 C.ar      2 RES2    0.0000
     36 C12        3.7183    8.5137    3.0599 C.ar      2 RES2    0.0000
     37 H11        3.4305    7.8441    3.6376 H         2 RES2    0.0000
     38 C13        3.7676    8.3244    1.7138 C.ar      2 RES2    0.0000
     39 C14        4.1819    9.3026    0.8241 C.ar      2 RES2    0.0000
     40 H12        4.1983    9.1159   -0.0874 H         2 RES2    0.0000
     41 C15        4.5660   10.5320    1.2647 C.ar      2 RES2    0.0000
     42 H13        4.8318   11.2013    0.6761 H         2 RES2    0.0000
     43 C16        4.5394   10.7370    2.6448 C.ar      2 RES2    0.0000
     44 C17        4.8869   11.8212    3.4094 C.2       2 RES2    0.0000
     45 C18        5.3915   13.0424    2.9288 C.2       2 RES2    0.0000
     46 C19        6.1367   15.1455    3.4131 C.3       2 RES2    0.0000
     47 H14        6.5250   15.0058    2.5355 H         2 RES2    0.0000
     48 H15        5.3912   15.7587    3.3172 H         2 RES2    0.0000
     49 C20        7.0631   15.6930    4.2275 C.3       2 RES2    0.0000
     50 H16        7.2572   15.0851    4.9448 H         2 RES2    0.0000
     51 H17        6.7248   16.5154    4.5880 H         2 RES2    0.0000
     52 H18        7.8645   15.8668    3.7299 H         2 RES2    0.0000
@<TRIPOS>BOND
     1    1   19 1
     2    2   19 2
     3    3    8 2
     4    4    8 2
     5    5    6 1
     6    6    7 1
     7    8   12 1
     8    9    6 1
     9   10    9 ar
    10   11   10 1
    11   12   10 ar
    12   13   12 ar
    13   14   13 1
    14   15   13 ar
    15   16   15 1
    16   17    9 ar
    17   18    5 2
    18   19   18 1
    19   20    1 1
    20   21   20 1
    21   22   20 1
    22   23   20 1
    23   24   23 1
    24   25   23 1
    25   26   23 1
    26   27   45 2
    27   28   45 1
    28   29   33 2
    29   30   33 2
    30   31   32 1
    31   33   38 1
    32   34   31 1
    33   35   31 1
    34   36   35 ar
    35   37   36 1
    36   38   36 ar
    37   39   38 ar
    38   40   39 1
    39   41   39 ar
    40   42   41 1
    41   43   35 ar
    42   44   34 2
    43   45   44 1
    44   46   28 1
    45   47   46 1
    46   48   46 1
    47   49   46 1
    48   50   49 1
    49   51   49 1
    50   52   49 1
    51   15   17 ar
    52   17   18 1
    53   41   43 ar
    54   43   44 1
@<TRIPOS>SUBSTRUCTURE
     1 RES1 1
     2 RES2 27

@<TRIPOS>CRYSIN
   7.3430   12.1890   12.8943  70.2770  87.4890  81.4310   2 1

