# MOL2 file generated by ConQuest
# Please check atom types

@<TRIPOS>MOLECULE
SERPUD
   117   123     3
SMALL
NO_CHARGES
****
Generated from CSD

@<TRIPOS>ATOM
      1 N1         0.2595    4.3138    9.8032 N.ar      1 RES1    0.0000
      2 C1         0.6580    4.6706    8.6331 C.ar      1 RES1    0.0000
      3 C2         1.3828    5.8485    8.3455 C.ar      1 RES1    0.0000
      4 H1         1.6663    6.0438    7.4826 H         1 RES1    0.0000
      5 C3         1.6438    6.6736    9.3828 C.ar      1 RES1    0.0000
      6 H2         2.1165    7.4608    9.2344 H         1 RES1    0.0000
      7 C4         1.2149    6.3616   10.6779 C.ar      1 RES1    0.0000
      8 C5         1.4059    7.1925   11.8193 C.ar      1 RES1    0.0000
      9 H3         1.8042    8.0293   11.7347 H         1 RES1    0.0000
     10 C6         0.9921    6.7348   13.0493 C.ar      1 RES1    0.0000
     11 H4         1.1531    7.2596   13.8016 H         1 RES1    0.0000
     12 C7         0.3398    5.5190   13.2054 C.ar      1 RES1    0.0000
     13 H5         0.0564    5.2508   14.0488 H         1 RES1    0.0000
     14 C8         0.1196    4.7231   12.1369 C.ar      1 RES1    0.0000
     15 O1        -0.4883    3.5286   12.3204 O.3       1 RES1    0.0000
     16 H6        -0.4981    3.1138   11.6124 H         1 RES1    0.0000
     17 C9         0.5426    5.1400   10.8627 C.ar      1 RES1    0.0000
     18 C10        0.3254    3.8076    7.4604 C.2       1 RES1    0.0000
     19 O2         0.6589    4.0004    6.2930 O.2       1 RES1    0.0000
     20 N2        -0.3946    2.7172    7.8262 N.am      1 RES1    0.0000
     21 H7        -0.5565    2.5715    8.6579 H         1 RES1    0.0000
     22 O3        -0.8861    1.8094    6.8383 O.3       1 RES1    0.0000
     23 C11        0.1025    0.8163    6.7290 C.3       1 RES1    0.0000
     24 H8         0.2191    0.3499    7.5724 H         1 RES1    0.0000
     25 H9         0.9517    1.2012    6.4622 H         1 RES1    0.0000
     26 C12       -0.4338   -0.1516    5.6344 C.ar      1 RES1    0.0000
     27 C13        0.1961   -0.1837    4.4213 C.ar      1 RES1    0.0000
     28 H10        0.8967    0.4082    4.2652 H         1 RES1    0.0000
     29 C14       -0.1628   -1.0583    3.4231 C.ar      1 RES1    0.0000
     30 H11        0.2751   -1.0554    2.6031 H         1 RES1    0.0000
     31 C15       -1.1785   -1.9242    3.6756 C.ar      1 RES1    0.0000
     32 C16       -1.8080   -1.9155    4.8821 C.ar      1 RES1    0.0000
     33 H12       -2.4962   -2.5190    5.0370 H         1 RES1    0.0000
     34 C17       -1.4572   -1.0408    5.8726 C.ar      1 RES1    0.0000
     35 H13       -1.9016   -1.0467    6.6899 H         1 RES1    0.0000
     36 C18       -1.6716   -2.8980    2.5666 C.3       1 RES1    0.0000
     37 H14       -1.4374   -3.7989    2.8048 H         1 RES1    0.0000
     38 H15       -1.2556   -2.6706    1.7324 H         1 RES1    0.0000
     39 H16       -2.6241   -2.8280    2.4781 H         1 RES1    0.0000
     40 N3        -1.1774    9.5512   10.0948 N.ar      2 RES2    0.0000
     41 C19       -0.3031   10.2538    9.4075 C.ar      2 RES2    0.0000
     42 C20        0.1187    9.9185    8.0943 C.ar      2 RES2    0.0000
     43 H17        0.7495   10.4287    7.6414 H         2 RES2    0.0000
     44 C21       -0.4517    8.7902    7.5164 C.ar      2 RES2    0.0000
     45 H18       -0.2177    8.5395    6.6535 H         2 RES2    0.0000
     46 C22       -1.3804    8.0351    8.2362 C.ar      2 RES2    0.0000
     47 C23       -1.9429    6.8777    7.7077 C.ar      2 RES2    0.0000
     48 H19       -1.6840    6.5628    6.8721 H         2 RES2    0.0000
     49 C24       -2.8818    6.2100    8.4379 C.ar      2 RES2    0.0000
     50 H20       -3.2904    5.4578    8.0722 H         2 RES2    0.0000
     51 C25       -3.2521    6.6269    9.7303 C.ar      2 RES2    0.0000
     52 H21       -3.8905    6.1575   10.2158 H         2 RES2    0.0000
     53 C26       -2.6624    7.7290   10.2562 C.ar      2 RES2    0.0000
     54 O4        -3.0193    8.1415   11.4926 O.3       2 RES2    0.0000
     55 H22       -2.5463    8.7727   11.7165 H         2 RES2    0.0000
     56 C27       -1.7222    8.4520    9.5234 C.ar      2 RES2    0.0000
     57 C28        0.2630   11.4725   10.0414 C.2       2 RES2    0.0000
     58 O5         1.1009   12.1737    9.4921 O.2       2 RES2    0.0000
     59 N4        -0.2319   11.7203   11.2583 N.am      2 RES2    0.0000
     60 H23       -0.7476   11.1460   11.6384 H         2 RES2    0.0000
     61 O6         0.0877   12.9066   11.9091 O.3       2 RES2    0.0000
     62 C29        1.3807   12.8632   12.5547 C.3       2 RES2    0.0000
     63 H24        1.5967   13.7495   12.8866 H         2 RES2    0.0000
     64 H25        2.0519   12.6212   11.8974 H         2 RES2    0.0000
     65 C30        1.4440   11.8836   13.6987 C.ar      2 RES2    0.0000
     66 C31        0.7251   12.0323   14.8766 C.ar      2 RES2    0.0000
     67 H26        0.1128   12.7291   14.9508 H         2 RES2    0.0000
     68 C32        0.9015   11.1693   15.9413 C.ar      2 RES2    0.0000
     69 H27        0.3931   11.2772   16.7118 H         2 RES2    0.0000
     70 C33        1.8155   10.1576   15.8684 C.ar      2 RES2    0.0000
     71 C34        2.4911    9.9710   14.7022 C.ar      2 RES2    0.0000
     72 H28        3.0687    9.2480   14.6215 H         2 RES2    0.0000
     73 C35        2.3367   10.8427   13.6298 C.ar      2 RES2    0.0000
     74 H29        2.8404   10.7174   12.8579 H         2 RES2    0.0000
     75 C36        2.0158    9.2771   17.0840 C.3       2 RES2    0.0000
     76 H30        1.1842    9.1897   17.5565 H         2 RES2    0.0000
     77 H31        2.6722    9.6736   17.6619 H         2 RES2    0.0000
     78 H32        2.3173    8.4083   16.8042 H         2 RES2    0.0000
     79 N5         2.5739   16.6930    3.1719 N.ar      3 RES3    0.0000
     80 C37        1.9567   15.5396    3.3476 C.ar      3 RES3    0.0000
     81 C38        0.5947   15.3705    3.1133 C.ar      3 RES3    0.0000
     82 H33        0.2036   14.5425    3.2708 H         3 RES3    0.0000
     83 C39       -0.1689   16.3909    2.6604 C.ar      3 RES3    0.0000
     84 H34       -1.0722   16.2743    2.4729 H         3 RES3    0.0000
     85 C40        0.4659   17.6446    2.4833 C.ar      3 RES3    0.0000
     86 C41       -0.2483   18.8050    2.0278 C.ar      3 RES3    0.0000
     87 H35       -1.1576   18.7612    1.8339 H         3 RES3    0.0000
     88 C42        0.4463   19.9712    1.8898 C.ar      3 RES3    0.0000
     89 H36       -0.0025   20.7234    1.5762 H         3 RES3    0.0000
     90 C43        1.8020   20.0790    2.2009 C.ar      3 RES3    0.0000
     91 H37        2.2439   20.8954    2.1345 H         3 RES3    0.0000
     92 C44        2.4501   18.9712    2.6005 C.ar      3 RES3    0.0000
     93 O7         3.7847   19.0691    2.9037 O.3       3 RES3    0.0000
     94 H38        4.1002   18.3181    3.0001 H         3 RES3    0.0000
     95 C45        1.8158   17.7204    2.7515 C.ar      3 RES3    0.0000
     96 C46        2.8167   14.3909    3.8226 C.2       3 RES3    0.0000
     97 O8         2.3190   13.2845    4.0348 O.2       3 RES3    0.0000
     98 N6         4.0768   14.7081    3.9580 N.am      3 RES3    0.0000
     99 H39        4.3459   15.4988    3.7523 H         3 RES3    0.0000
    100 O9         4.9816   13.7705    4.4291 O.3       3 RES3    0.0000
    101 C47        5.1983   14.0265    5.8088 C.3       3 RES3    0.0000
    102 H40        4.3988   13.8020    6.3099 H         3 RES3    0.0000
    103 H41        5.3819   14.9682    5.9389 H         3 RES3    0.0000
    104 C48        6.3412   13.2218    6.3086 C.ar      3 RES3    0.0000
    105 C49        7.6732   13.6737    6.4075 C.ar      3 RES3    0.0000
    106 H42        7.8972   14.5309    6.1264 H         3 RES3    0.0000
    107 C50        8.6677   12.8165    6.9372 C.ar      3 RES3    0.0000
    108 H43        9.5558   13.0585    7.0739 H         3 RES3    0.0000
    109 C51        8.1480   11.5920    7.2210 C.ar      3 RES3    0.0000
    110 C52        6.9574   11.0731    7.1676 C.ar      3 RES3    0.0000
    111 H44        6.7564   10.1984    7.4084 H         3 RES3    0.0000
    112 C53        6.0333   11.9827    6.7095 C.ar      3 RES3    0.0000
    113 H45        5.1417   11.7203    6.6769 H         3 RES3    0.0000
    114 C54        9.3446   10.6124    7.7975 C.3       3 RES3    0.0000
    115 H46        9.0592   10.2101    8.6201 H         3 RES3    0.0000
    116 H47       10.1348   11.1343    7.9537 H         3 RES3    0.0000
    117 H48        9.5353    9.9273    7.1533 H         3 RES3    0.0000
@<TRIPOS>BOND
     1    1    2 ar
     2    2    3 ar
     3    3    4 1
     4    5    3 ar
     5    6    5 1
     6    7    5 ar
     7    8    7 ar
     8    9    8 1
     9   10    8 ar
    10   11   10 1
    11   12   10 ar
    12   13   12 1
    13   14   12 ar
    14   15   14 1
    15   16   15 1
    16   17    1 ar
    17   18    2 1
    18   19   18 2
    19   20   18 1
    20   21   20 1
    21   22   20 1
    22   23   22 1
    23   24   23 1
    24   25   23 1
    25   26   23 1
    26   27   26 ar
    27   28   27 1
    28   29   27 ar
    29   30   29 1
    30   31   29 ar
    31   32   31 ar
    32   33   32 1
    33   34   26 ar
    34   35   34 1
    35   36   31 1
    36   37   36 1
    37   38   36 1
    38   39   36 1
    39   40   41 ar
    40   41   42 ar
    41   42   43 1
    42   44   42 ar
    43   45   44 1
    44   46   44 ar
    45   47   46 ar
    46   48   47 1
    47   49   47 ar
    48   50   49 1
    49   51   49 ar
    50   52   51 1
    51   53   51 ar
    52   54   53 1
    53   55   54 1
    54   56   40 ar
    55   57   41 1
    56   58   57 2
    57   59   57 1
    58   60   59 1
    59   61   59 1
    60   62   61 1
    61   63   62 1
    62   64   62 1
    63   65   62 1
    64   66   65 ar
    65   67   66 1
    66   68   66 ar
    67   69   68 1
    68   70   68 ar
    69   71   70 ar
    70   72   71 1
    71   73   65 ar
    72   74   73 1
    73   75   70 1
    74   76   75 1
    75   77   75 1
    76   78   75 1
    77   79   80 ar
    78   80   81 ar
    79   81   82 1
    80   83   81 ar
    81   84   83 1
    82   85   83 ar
    83   86   85 ar
    84   87   86 1
    85   88   86 ar
    86   89   88 1
    87   90   88 ar
    88   91   90 1
    89   92   90 ar
    90   93   92 1
    91   94   93 1
    92   95   79 ar
    93   96   80 1
    94   97   96 2
    95   98   96 1
    96   99   98 1
    97  100   98 1
    98  101  100 1
    99  102  101 1
   100  103  101 1
   101  104  101 1
   102  105  104 ar
   103  106  105 1
   104  107  105 ar
   105  108  107 1
   106  109  107 ar
   107  110  109 ar
   108  111  110 1
   109  112  104 ar
   110  113  112 1
   111  114  109 1
   112  115  114 1
   113  116  114 1
   114  117  114 1
   115    7   17 ar
   116   14   17 ar
   117   32   34 ar
   118   46   56 ar
   119   53   56 ar
   120   71   73 ar
   121   85   95 ar
   122   92   95 ar
   123  110  112 ar
@<TRIPOS>SUBSTRUCTURE
     1 RES1 1
     2 RES2 40
     3 RES3 79

@<TRIPOS>CRYSIN
  13.0318   29.1550   14.3926  90.0000 115.2690  90.0000  14 1

