# MOL2 file generated by ConQuest
# Please check atom types

@<TRIPOS>MOLECULE
SERPOX
    64    62     3
SMALL
NO_CHARGES
****
Generated from CSD

@<TRIPOS>ATOM
      1 N1        11.8106    1.7717   11.6442 N.ar      1 RES1    0.0000
      2 C1        13.0436    1.6623   12.0962 C.ar      1 RES1    0.0000
      3 C2        14.1243    1.2178   11.3147 C.ar      1 RES1    0.0000
      4 H1        14.9788    1.1631   11.6787 H         1 RES1    0.0000
      5 C3        13.9011    0.8664   10.0172 C.ar      1 RES1    0.0000
      6 H2        14.6021    0.5592    9.4889 H         1 RES1    0.0000
      7 C4        12.6076    0.9696    9.4788 C.ar      1 RES1    0.0000
      8 C5        12.2699    0.6435    8.1483 C.ar      1 RES1    0.0000
      9 H3        12.9315    0.3688    7.5550 H         1 RES1    0.0000
     10 C6        10.9837    0.7315    7.7374 C.ar      1 RES1    0.0000
     11 H4        10.7708    0.5005    6.8626 H         1 RES1    0.0000
     12 C7         9.9695    1.1590    8.6011 C.ar      1 RES1    0.0000
     13 H5         9.0932    1.2056    8.2943 H         1 RES1    0.0000
     14 C8        10.2507    1.5075    9.8792 C.ar      1 RES1    0.0000
     15 O1         9.2472    1.9140   10.6948 O.3       1 RES1    0.0000
     16 H6         9.5495    2.0769   11.4393 H         1 RES1    0.0000
     17 C9        11.5807    1.4246   10.3465 C.ar      1 RES1    0.0000
     18 C10       13.2935    2.0501   13.5314 C.2       1 RES1    0.0000
     19 O2        14.4230    2.0155   14.0259 O.2       1 RES1    0.0000
     20 N2        12.1881    2.4333   14.1684 N.am      1 RES1    0.0000
     21 H7        11.4528    2.5531   13.7393 H         1 RES1    0.0000
     22 O3        12.2479    2.6378   15.5496 O.3       1 RES1    0.0000
     23 C11       12.2717    4.0201   15.8437 C.3       1 RES1    0.0000
     24 H8        11.4961    4.4679   15.4691 H         1 RES1    0.0000
     25 H9        13.0754    4.4354   15.4949 H         1 RES1    0.0000
     26 C12       12.2460    4.0727   17.3537 C.2       1 RES1    0.0000
     27 H10       11.5055    3.6330   17.7058 H         1 RES1    0.0000
     28 C13       12.8496    4.4780   18.1001 C.2       1 RES1    0.0000
     29 H11       12.4870    4.6806   18.9309 H         1 RES1    0.0000
     30 H12       13.7504    4.6360   17.9334 H         1 RES1    0.0000
     31 H13       13.0976    4.0241   17.7198 Du        3 SUP3    0.0000
     32 C14       11.3241    4.1741   18.2597 Du        3 SUP3    0.0000
     33 H14       11.5336    4.5124   19.1022 Du        3 SUP3    0.0000
     34 H15       10.4561    3.8944   18.0766 Du        3 SUP3    0.0000
     35 N3        15.9617    4.1157   15.7991 N.ar      2 RES2    0.0000
     36 C15       16.2713    5.3268   15.3956 C.ar      2 RES2    0.0000
     37 C16       16.8734    6.2826   16.2196 C.ar      2 RES2    0.0000
     38 H16       17.0740    7.1303   15.8939 H         2 RES2    0.0000
     39 C17       17.1617    5.9450   17.5133 C.ar      2 RES2    0.0000
     40 H17       17.5618    6.5691   18.0766 H         2 RES2    0.0000
     41 C18       16.8619    4.6654   17.9956 C.ar      2 RES2    0.0000
     42 C19       17.1456    4.2207   19.3064 C.ar      2 RES2    0.0000
     43 H18       17.5325    4.8002   19.9213 H         2 RES2    0.0000
     44 C20       16.8575    2.9502   19.6636 C.ar      2 RES2    0.0000
     45 H19       17.0681    2.6625   20.5222 H         2 RES2    0.0000
     46 C21       16.2495    2.0570   18.7722 C.ar      2 RES2    0.0000
     47 H20       16.0644    1.1874   19.0436 H         2 RES2    0.0000
     48 C22       15.9267    2.4580   17.5098 C.ar      2 RES2    0.0000
     49 O4        15.3285    1.5756   16.6766 O.3       2 RES2    0.0000
     50 H21       15.1741    1.9391   15.9573 H         2 RES2    0.0000
     51 C23       16.2497    3.7733   17.0892 C.ar      2 RES2    0.0000
     52 C24       15.9661    5.6654   13.9593 C.2       2 RES2    0.0000
     53 O5        16.2718    6.7545   13.4640 O.2       2 RES2    0.0000
     54 N4        15.3565    4.6772   13.3108 N.am      2 RES2    0.0000
     55 H22       15.0583    3.9957   13.7440 H         2 RES2    0.0000
     56 O6        15.2023    4.7509   11.9284 O.3       2 RES2    0.0000
     57 C25       13.9856    5.3472   11.5756 C.3       2 RES2    0.0000
     58 H23       13.9505    6.2672   11.8829 H         2 RES2    0.0000
     59 H24       13.2392    4.8609   11.9603 H         2 RES2    0.0000
     60 C26       13.9434    5.2865   10.0757 C.2       2 RES2    0.0000
     61 H25       14.6383    5.7484    9.6649 H         2 RES2    0.0000
     62 C27       13.2392    4.7921    9.3481 C.2       2 RES2    0.0000
     63 H26       12.5127    4.3037    9.6603 H         2 RES2    0.0000
     64 H27       13.3878    4.8711    8.4328 H         2 RES2    0.0000
@<TRIPOS>BOND
     1    1    2 ar
     2    2    3 ar
     3    3    4 1
     4    5    3 ar
     5    6    5 1
     6    7    5 ar
     7    8    7 ar
     8    9    8 1
     9   10    8 ar
    10   11   10 1
    11   12   10 ar
    12   13   12 1
    13   14   12 ar
    14   15   14 1
    15   16   15 1
    16   17    1 ar
    17   18    2 1
    18   19   18 2
    19   20   18 1
    20   21   20 1
    21   22   20 1
    22   23   22 1
    23   24   23 1
    24   25   23 1
    25   26   23 1
    26   27   26 1
    27   28   26 2
    28   29   28 1
    29   30   28 1
    30   35   36 ar
    31   36   37 ar
    32   37   38 1
    33   39   37 ar
    34   40   39 1
    35   41   39 ar
    36   42   41 ar
    37   43   42 1
    38   44   42 ar
    39   45   44 1
    40   46   44 ar
    41   47   46 1
    42   48   46 ar
    43   49   48 1
    44   50   49 1
    45   51   35 ar
    46   52   36 1
    47   53   52 2
    48   54   52 1
    49   55   54 1
    50   56   54 1
    51   57   56 1
    52   58   57 1
    53   59   57 1
    54   60   57 1
    55   61   60 1
    56   62   60 2
    57   63   62 1
    58   64   62 1
    59    7   17 ar
    60   14   17 ar
    61   41   51 ar
    62   48   51 ar
@<TRIPOS>SUBSTRUCTURE
     1 RES1 1
     2 RES2 35
     3 SUP3 31

@<TRIPOS>CRYSIN
  23.3970   23.3970   23.4700  90.0000  90.0000 120.0000 233 1

