# MOL2 file generated by ConQuest
# Please check atom types

@<TRIPOS>MOLECULE
SERPIR
   108   114     3
SMALL
NO_CHARGES
****
Generated from CSD

@<TRIPOS>ATOM
      1 N1         6.1782   -4.1466   12.4911 N.ar      1 RES1    0.0000
      2 C1         7.1119   -4.6611   11.7066 C.ar      1 RES1    0.0000
      3 C2         7.7963   -5.8561   12.0058 C.ar      1 RES1    0.0000
      4 H1         8.4527   -6.1821   11.4321 H         1 RES1    0.0000
      5 C3         7.4794   -6.5218   13.1456 C.ar      1 RES1    0.0000
      6 H2         7.9311   -7.3054   13.3618 H         1 RES1    0.0000
      7 C4         6.4775   -6.0378   14.0008 C.ar      1 RES1    0.0000
      8 C5         5.1135   -6.1124   15.9773 C.ar      1 RES1    0.0000
      9 H3         4.8631   -6.5336   16.7676 H         1 RES1    0.0000
     10 C6         4.4947   -4.9125   15.6118 C.ar      1 RES1    0.0000
     11 H4         3.8254   -4.5580   16.1502 H         1 RES1    0.0000
     12 C7         4.8634   -4.2585   14.4723 C.ar      1 RES1    0.0000
     13 O1         4.2800   -3.0901   14.1504 O.3       1 RES1    0.0000
     14 H5         4.7052   -2.7287   13.5485 H         1 RES1    0.0000
     15 C8         5.8558   -4.8339   13.6217 C.ar      1 RES1    0.0000
     16 C9         7.4100   -3.9227   10.4316 C.2       1 RES1    0.0000
     17 O2         8.1891   -4.3724    9.5738 O.2       1 RES1    0.0000
     18 N2         6.7608   -2.7798   10.3021 N.am      1 RES1    0.0000
     19 H6         6.2947   -2.4656   10.9525 H         1 RES1    0.0000
     20 O3         6.8425   -2.0934    9.0940 O.3       1 RES1    0.0000
     21 C10        6.9533   -0.6765    9.3544 C.3       1 RES1    0.0000
     22 H7         6.2073   -0.3996    9.9072 H         1 RES1    0.0000
     23 H8         6.8907   -0.1964    8.5145 H         1 RES1    0.0000
     24 C11        8.2267   -0.2946   10.0344 C.ar      1 RES1    0.0000
     25 C12        9.4206   -0.3014    9.3392 C.ar      1 RES1    0.0000
     26 H9         9.4311   -0.5283    8.4369 H         1 RES1    0.0000
     27 C13       10.5884    0.0255    9.9790 C.ar      1 RES1    0.0000
     28 H10       11.3850    0.0216    9.4966 H         1 RES1    0.0000
     29 C14       10.6108    0.3564   11.3029 C.ar      1 RES1    0.0000
     30 H11       11.4114    0.5705   11.7250 H         1 RES1    0.0000
     31 C15        9.4429    0.3663   11.9929 C.ar      1 RES1    0.0000
     32 H12        9.4388    0.5950   12.8938 H         1 RES1    0.0000
     33 C16        8.2493    0.0344   11.3580 C.ar      1 RES1    0.0000
     34 H13        7.4559    0.0363   11.8427 H         1 RES1    0.0000
     35 C17        6.0750   -6.6701   15.2006 C.ar      1 RES1    0.0000
     36 H14        6.4691   -7.4723   15.4581 H         1 RES1    0.0000
     37 C18       13.1120   -7.8386    7.4425 C.ar      2 RES2    0.0000
     38 H15       13.6844   -8.3119    6.8805 H         2 RES2    0.0000
     39 N3         9.8290   -6.1006    7.4387 N.ar      2 RES2    0.0000
     40 C19        9.4443   -6.3196    6.1985 C.ar      2 RES2    0.0000
     41 C20       10.1945   -7.0609    5.2649 C.ar      2 RES2    0.0000
     42 H16        9.8764   -7.1984    4.4023 H         2 RES2    0.0000
     43 C21       11.3964   -7.5735    5.6546 C.ar      2 RES2    0.0000
     44 H17       11.9066   -8.0664    5.0541 H         2 RES2    0.0000
     45 C22       11.8679   -7.3584    6.9635 C.ar      2 RES2    0.0000
     46 C23       13.4553   -7.5980    8.7342 C.ar      2 RES2    0.0000
     47 H18       14.2667   -7.9240    9.0515 H         2 RES2    0.0000
     48 C24       12.6318   -6.8793    9.5974 C.ar      2 RES2    0.0000
     49 H19       12.8942   -6.7447   10.4787 H         2 RES2    0.0000
     50 C25       11.4402   -6.3677    9.1600 C.ar      2 RES2    0.0000
     51 O4        10.6658   -5.6362    9.9908 O.3       2 RES2    0.0000
     52 H20        9.9803   -5.4133    9.6000 H         2 RES2    0.0000
     53 C26       11.0324   -6.6141    7.8319 C.ar      2 RES2    0.0000
     54 C27        8.1377   -5.7108    5.7752 C.2       2 RES2    0.0000
     55 O5         7.6477   -5.9700    4.6716 O.2       2 RES2    0.0000
     56 N4         7.5889   -4.8889    6.6628 N.am      2 RES2    0.0000
     57 H21        8.0050   -4.6709    7.3830 H         2 RES2    0.0000
     58 O6         6.3135   -4.3882    6.3900 O.3       2 RES2    0.0000
     59 C28        6.4018   -3.0989    5.7482 C.3       2 RES2    0.0000
     60 H22        6.8940   -3.1647    4.9163 H         2 RES2    0.0000
     61 H23        6.8477   -2.4597    6.3263 H         2 RES2    0.0000
     62 C29        4.9807   -2.6806    5.4926 C.ar      2 RES2    0.0000
     63 C30        4.1890   -2.2800    6.5330 C.ar      2 RES2    0.0000
     64 H24        4.5515   -2.2250    7.3888 H         2 RES2    0.0000
     65 C31        2.8725   -1.9579    6.3395 C.ar      2 RES2    0.0000
     66 H25        2.3496   -1.6908    7.0614 H         2 RES2    0.0000
     67 C32        2.3291   -2.0286    5.0960 C.ar      2 RES2    0.0000
     68 H26        1.4298   -1.8244    4.9680 H         2 RES2    0.0000
     69 C33        3.1068   -2.3998    4.0264 C.ar      2 RES2    0.0000
     70 H27        2.7430   -2.4273    3.1703 H         2 RES2    0.0000
     71 C34        4.4373   -2.7336    4.2294 C.ar      2 RES2    0.0000
     72 H28        4.9641   -2.9938    3.5092 H         2 RES2    0.0000
     73 N5         6.3850   -4.8457    2.0745 N.ar      3 RES3    0.0000
     74 C35        5.1175   -5.0509    1.7431 C.ar      3 RES3    0.0000
     75 C36        4.5096   -4.4412    0.6387 C.ar      3 RES3    0.0000
     76 H29        3.6165   -4.6052    0.4422 H         3 RES3    0.0000
     77 C37        5.2458   -3.6046   -0.1393 C.ar      3 RES3    0.0000
     78 H30        4.8524   -3.1981   -0.8759 H         3 RES3    0.0000
     79 C38        6.5987   -3.3483    0.1602 C.ar      3 RES3    0.0000
     80 C39        7.4493   -2.5137   -0.6039 C.ar      3 RES3    0.0000
     81 H31        7.1247   -2.0718   -1.3554 H         3 RES3    0.0000
     82 C40        8.7542   -2.3664   -0.2237 C.ar      3 RES3    0.0000
     83 H32        9.3146   -1.8283   -0.7351 H         3 RES3    0.0000
     84 C41        9.2667   -2.9938    0.8994 C.ar      3 RES3    0.0000
     85 H33       10.1552   -2.8574    1.1372 H         3 RES3    0.0000
     86 C42        8.4820   -3.8108    1.6610 C.ar      3 RES3    0.0000
     87 O7         8.9914   -4.4314    2.7462 O.3       3 RES3    0.0000
     88 H34        8.4086   -4.8870    3.0985 H         3 RES3    0.0000
     89 C43        7.1205   -4.0082    1.2945 C.ar      3 RES3    0.0000
     90 C44        4.3257   -5.9641    2.6325 C.2       3 RES3    0.0000
     91 O8         3.1401   -6.2469    2.3875 O.2       3 RES3    0.0000
     92 N6         4.9906   -6.4482    3.6671 N.am      3 RES3    0.0000
     93 H35        5.8364   -6.3068    3.7418 H         3 RES3    0.0000
     94 O9         4.3223   -7.1817    4.6320 O.3       3 RES3    0.0000
     95 C45        4.3249   -8.5986    4.3308 C.3       3 RES3    0.0000
     96 H36        3.8019   -8.7498    3.5293 H         3 RES3    0.0000
     97 H37        3.8940   -9.0748    5.0570 H         3 RES3    0.0000
     98 C46        5.6775   -9.1583    4.1312 C.ar      3 RES3    0.0000
     99 C47        6.5900   -9.1799    5.1403 C.ar      3 RES3    0.0000
    100 H38        6.3616   -8.8382    5.9759 H         3 RES3    0.0000
    101 C48        7.8786   -9.7131    4.9335 C.ar      3 RES3    0.0000
    102 H39        8.5164   -9.7239    5.6112 H         3 RES3    0.0000
    103 C49        8.1468  -10.2266    3.6556 C.ar      3 RES3    0.0000
    104 H40        8.9892  -10.5801    3.4833 H         3 RES3    0.0000
    105 C50        7.2315  -10.2256    2.6706 C.ar      3 RES3    0.0000
    106 H41        7.4358  -10.5899    1.8407 H         3 RES3    0.0000
    107 C51        6.0119   -9.6915    2.8969 C.ar      3 RES3    0.0000
    108 H42        5.3838   -9.6816    2.2112 H         3 RES3    0.0000
@<TRIPOS>BOND
     1    1    2 ar
     2    2    3 ar
     3    3    4 1
     4    5    3 ar
     5    6    5 1
     6    7    5 ar
     7    8    9 1
     8   10    8 ar
     9   11   10 1
    10   12   10 ar
    11   13   12 1
    12   14   13 1
    13   15    1 ar
    14   16    2 1
    15   17   16 2
    16   18   16 1
    17   19   18 1
    18   20   18 1
    19   21   20 1
    20   22   21 1
    21   23   21 1
    22   24   21 1
    23   25   24 ar
    24   26   25 1
    25   27   25 ar
    26   28   27 1
    27   29   27 ar
    28   30   29 1
    29   31   29 ar
    30   32   31 1
    31   33   24 ar
    32   34   33 1
    33   35    7 ar
    34   36   35 1
    35   37   38 1
    36   39   40 ar
    37   40   41 ar
    38   41   42 1
    39   43   41 ar
    40   44   43 1
    41   45   37 ar
    42   46   37 ar
    43   47   46 1
    44   48   46 ar
    45   49   48 1
    46   50   48 ar
    47   51   50 1
    48   52   51 1
    49   53   39 ar
    50   54   40 1
    51   55   54 2
    52   56   54 1
    53   57   56 1
    54   58   56 1
    55   59   58 1
    56   60   59 1
    57   61   59 1
    58   62   59 1
    59   63   62 ar
    60   64   63 1
    61   65   63 ar
    62   66   65 1
    63   67   65 ar
    64   68   67 1
    65   69   67 ar
    66   70   69 1
    67   71   62 ar
    68   72   71 1
    69   73   74 ar
    70   74   75 ar
    71   75   76 1
    72   77   75 ar
    73   78   77 1
    74   79   77 ar
    75   80   79 ar
    76   81   80 1
    77   82   80 ar
    78   83   82 1
    79   84   82 ar
    80   85   84 1
    81   86   84 ar
    82   87   86 1
    83   88   87 1
    84   89   73 ar
    85   90   74 1
    86   91   90 2
    87   92   90 1
    88   93   92 1
    89   94   92 1
    90   95   94 1
    91   96   95 1
    92   97   95 1
    93   98   95 1
    94   99   98 ar
    95  100   99 1
    96  101   99 ar
    97  102  101 1
    98  103  101 ar
    99  104  103 1
   100  105  103 ar
   101  106  105 1
   102  107   98 ar
   103  108  107 1
   104    7   15 ar
   105    8   35 ar
   106   12   15 ar
   107   31   33 ar
   108   43   45 ar
   109   45   53 ar
   110   50   53 ar
   111   69   71 ar
   112   79   89 ar
   113   86   89 ar
   114  105  107 ar
@<TRIPOS>SUBSTRUCTURE
     1 RES1 1
     2 RES2 37
     3 RES3 73

@<TRIPOS>CRYSIN
  16.0926    9.8191   28.7192  90.0000  90.7700  90.0000 231 1

