# MOL2 file generated by ConQuest
# Please check atom types

@<TRIPOS>MOLECULE
SERROY
    56    57     1
SMALL
NO_CHARGES
****
Generated from CSD

@<TRIPOS>ATOM
      1 O1         6.2471    6.1769   22.5581 O.2       1 RES1    0.0000
      2 O2         8.5311    0.6937   24.1169 O.2       1 RES1    0.0000
      3 O3         6.1949    4.7783   24.2966 O.3       1 RES1    0.0000
      4 O4         6.5971    0.7960   23.0891 O.3       1 RES1    0.0000
      5 O5         4.6054    0.0225   20.0268 O.3       1 RES1    0.0000
      6 O6         5.7428   -3.1660   20.4639 O.3       1 RES1    0.0000
      7 H1         5.8963   -3.7911   21.0030 H         1 RES1    0.0000
      8 N1         6.0970   10.2547   27.5550 N.pl3     1 RES1    0.0000
      9 O7         6.0625    9.9714   28.7391 O.2       1 RES1    0.0000
     10 O8         6.1139   11.3993   27.1287 O.2       1 RES1    0.0000
     11 C1         6.1266    9.1226   26.5814 C.ar      1 RES1    0.0000
     12 C2         6.2210    9.4475   25.2526 C.ar      1 RES1    0.0000
     13 H2         6.2661   10.3526   24.9658 H         1 RES1    0.0000
     14 C3         6.0266    7.8319   27.0419 C.ar      1 RES1    0.0000
     15 H3         5.9322    7.6554   27.9707 H         1 RES1    0.0000
     16 C4         6.2499    8.3974   24.3343 C.ar      1 RES1    0.0000
     17 H4         6.3252    8.5795   23.4054 H         1 RES1    0.0000
     18 C5         6.0646    6.7975   26.1314 C.ar      1 RES1    0.0000
     19 H5         6.0203    5.8970   26.4314 H         1 RES1    0.0000
     20 C6         6.1675    7.0797   24.7816 C.ar      1 RES1    0.0000
     21 C7         6.2006    5.9925   23.7475 C.2       1 RES1    0.0000
     22 C8         7.6021    1.3716   23.7554 C.2       1 RES1    0.0000
     23 C9         7.4936    2.8366   24.1369 C.3       1 RES1    0.0000
     24 H6         7.3605    2.8939   25.1158 H         1 RES1    0.0000
     25 H7         8.3543    3.2785   23.9290 H         1 RES1    0.0000
     26 C10        6.3858    3.6079   23.4607 C.3       1 RES1    0.0000
     27 H8         6.6788    3.8890   22.5476 H         1 RES1    0.0000
     28 C11        5.0984    2.7928   23.3633 C.3       1 RES1    0.0000
     29 C12        5.4625    1.5470   22.5108 C.3       1 RES1    0.0000
     30 H9         5.7287    1.8596   21.5977 H         1 RES1    0.0000
     31 C13        4.3835    0.4981   22.3529 C.3       1 RES1    0.0000
     32 H10        3.5412    0.9410   22.0792 H         1 RES1    0.0000
     33 H11        4.2264    0.0630   23.2265 H         1 RES1    0.0000
     34 C14        4.7385   -0.5700   21.3214 C.3       1 RES1    0.0000
     35 H12        5.6956   -0.8275   21.4530 H         1 RES1    0.0000
     36 C15        3.8997   -1.8034   21.4372 C.3       1 RES1    0.0000
     37 H13        4.0208   -2.1699   22.3608 H         1 RES1    0.0000
     38 C16        4.3405   -2.8906   20.4399 C.3       1 RES1    0.0000
     39 H14        3.8482   -3.7259   20.6399 H         1 RES1    0.0000
     40 H15        4.0877   -2.6050   19.5269 H         1 RES1    0.0000
     41 C17        4.5610    2.3993   24.7342 C.3       1 RES1    0.0000
     42 H16        4.4420    3.2043   25.2815 H         1 RES1    0.0000
     43 H17        5.1963    1.7966   25.1736 H         1 RES1    0.0000
     44 H18        3.6982    1.9462   24.6316 H         1 RES1    0.0000
     45 C18        4.0518    3.6124   22.6029 C.3       1 RES1    0.0000
     46 H19        3.8144    4.4050   23.1265 H         1 RES1    0.0000
     47 H20        3.2517    3.0648   22.4555 H         1 RES1    0.0000
     48 H21        4.4194    3.8901   21.7372 H         1 RES1    0.0000
     49 C19        5.7202   -0.0922   19.1848 C.3       1 RES1    0.0000
     50 H22        5.5153    0.3103   18.3138 H         1 RES1    0.0000
     51 H23        5.9414   -1.0389   19.0611 H         1 RES1    0.0000
     52 H24        6.4837    0.3721   19.5874 H         1 RES1    0.0000
     53 C20        2.4192   -1.5358   21.2372 C.3       1 RES1    0.0000
     54 H25        2.0903   -0.9624   21.9608 H         1 RES1    0.0000
     55 H26        1.9298   -2.3846   21.2425 H         1 RES1    0.0000
     56 H27        2.2819   -1.0861   20.3768 H         1 RES1    0.0000
@<TRIPOS>BOND
     1    1   21 2
     2    2   22 2
     3    3   21 1
     4    4   22 1
     5    5   34 1
     6    6    7 1
     7    8    9 2
     8   10    8 2
     9   11    8 1
    10   12   11 ar
    11   13   12 1
    12   14   11 ar
    13   15   14 1
    14   16   12 ar
    15   17   16 1
    16   18   14 ar
    17   19   18 1
    18   20   16 ar
    19   21   20 1
    20   22   23 1
    21   23   24 1
    22   25   23 1
    23   26    3 1
    24   27   26 1
    25   28   26 1
    26   29    4 1
    27   30   29 1
    28   31   29 1
    29   32   31 1
    30   33   31 1
    31   34   31 1
    32   35   34 1
    33   36   34 1
    34   37   36 1
    35   38    6 1
    36   39   38 1
    37   40   38 1
    38   41   28 1
    39   42   41 1
    40   43   41 1
    41   44   41 1
    42   45   28 1
    43   46   45 1
    44   47   45 1
    45   48   45 1
    46   49    5 1
    47   50   49 1
    48   51   49 1
    49   52   49 1
    50   53   36 1
    51   54   53 1
    52   55   53 1
    53   56   53 1
    54   18   20 ar
    55   23   26 1
    56   28   29 1
    57   36   38 1
@<TRIPOS>SUBSTRUCTURE
     1 RES1 1

@<TRIPOS>CRYSIN
   7.0429   11.2430   26.3130  90.0000  90.0000  90.0000  19 1

