# MOL2 file generated by ConQuest
# Please check atom types

@<TRIPOS>MOLECULE
SERYUL
    40    45     1
SMALL
NO_CHARGES
****
Generated from CSD

@<TRIPOS>ATOM
      1 C1        10.5441    6.4261    2.4722 C.3       1 RES1    0.0000
      2 C2        11.3012    7.0489    1.2420 C.3       1 RES1    0.0000
      3 H1        10.9492    7.7799    0.6575 H         1 RES1    0.0000
      4 C3        12.6144    7.1235    2.0932 C.3       1 RES1    0.0000
      5 H2        13.2340    7.9080    2.1329 H         1 RES1    0.0000
      6 C4        13.0117    5.6772    1.6340 C.3       1 RES1    0.0000
      7 C5        11.6901    5.6142    0.7591 C.3       1 RES1    0.0000
      8 H3        11.6361    5.2867   -0.1847 H         1 RES1    0.0000
      9 C6        10.9316    4.9898    1.9817 C.3       1 RES1    0.0000
     10 H4        10.3114    4.2061    1.9385 H         1 RES1    0.0000
     11 C7        12.2442    5.0643    2.8446 C.3       1 RES1    0.0000
     12 H5        12.5874    4.3354    3.4370 H         1 RES1    0.0000
     13 C8        11.8591    6.5029    3.3171 C.3       1 RES1    0.0000
     14 H6        11.9192    6.8342    4.2586 H         1 RES1    0.0000
     15 C9         9.1949    6.8605    2.9279 C.3       1 RES1    0.0000
     16 H7         9.1956    7.8284    3.1344 H         1 RES1    0.0000
     17 H8         8.5207    6.6880    2.2229 H         1 RES1    0.0000
     18 C10       14.3461    5.2302    1.1581 C.2       1 RES1    0.0000
     19 C11       16.0687    5.7241   -0.4051 C.3       1 RES1    0.0000
     20 H9        16.3546    6.4486   -1.0002 H         1 RES1    0.0000
     21 H10       15.8868    4.9190   -0.9346 H         1 RES1    0.0000
     22 H11       16.7779    5.5348    0.2443 H         1 RES1    0.0000
     23 C12        7.6042    6.1128    4.5008 C.2       1 RES1    0.0000
     24 C13        7.3547    5.3565    5.7703 C.ar      1 RES1    0.0000
     25 C14        8.3757    4.8264    6.5508 C.ar      1 RES1    0.0000
     26 H12        9.2794    4.9074    6.2687 H         1 RES1    0.0000
     27 C15        8.0750    4.1792    7.7432 C.ar      1 RES1    0.0000
     28 H13        8.7757    3.8148    8.2716 H         1 RES1    0.0000
     29 C16        6.7561    4.0609    8.1690 C.ar      1 RES1    0.0000
     30 H14        6.5440    3.6313    8.9899 H         1 RES1    0.0000
     31 C17        5.7623    4.5866    7.3619 C.ar      1 RES1    0.0000
     32 C18        6.0262    5.2304    6.1692 C.ar      1 RES1    0.0000
     33 H15        5.3215    5.5774    5.6355 H         1 RES1    0.0000
     34 N1         4.3557    4.4904    7.7880 N.pl3     1 RES1    0.0000
     35 O1         8.8856    6.0847    4.1266 O.3       1 RES1    0.0000
     36 O2         6.7368    6.6853    3.8971 O.2       1 RES1    0.0000
     37 O3         4.1344    4.2720    8.9747 O.2       1 RES1    0.0000
     38 O4         3.4901    4.6433    6.9465 O.2       1 RES1    0.0000
     39 O5        14.8987    4.2071    1.4762 O.2       1 RES1    0.0000
     40 O6        14.8672    6.1217    0.2958 O.3       1 RES1    0.0000
@<TRIPOS>BOND
     1    1    2 1
     2    2    3 1
     3    4    2 1
     4    5    4 1
     5    6    4 1
     6    7    2 1
     7    8    7 1
     8    9    1 1
     9   10    9 1
    10   11    6 1
    11   12   11 1
    12   13    1 1
    13   14   13 1
    14   15    1 1
    15   16   15 1
    16   17   15 1
    17   18    6 1
    18   19   20 1
    19   21   19 1
    20   22   19 1
    21   23   24 1
    22   24   25 ar
    23   25   26 1
    24   27   25 ar
    25   28   27 1
    26   29   27 ar
    27   30   29 1
    28   31   29 ar
    29   32   24 ar
    30   33   32 1
    31   34   31 1
    32   35   15 1
    33   36   23 2
    34   37   34 2
    35   38   34 2
    36   39   18 2
    37   40   18 1
    38    4   13 1
    39    6    7 1
    40    7    9 1
    41    9   11 1
    42   11   13 1
    43   19   40 1
    44   23   35 1
    45   31   32 ar
@<TRIPOS>SUBSTRUCTURE
     1 RES1 1

@<TRIPOS>CRYSIN
   8.1260    8.7446   12.5714  89.8670  76.8010  62.7190   2 1

