# MOL2 file generated by ConQuest
# Please check atom types

@<TRIPOS>MOLECULE
SESHIH
    39    40     1
SMALL
NO_CHARGES
****
Generated from CSD

@<TRIPOS>ATOM
      1 C1         0.2586   -2.9010    3.0003 C.ar      1 RES1    0.0000
      2 C2         1.2995   -3.3370    2.1681 C.ar      1 RES1    0.0000
      3 C3         2.3441   -4.1034    2.6277 C.ar      1 RES1    0.0000
      4 C4         2.3675   -4.4809    3.9578 C.ar      1 RES1    0.0000
      5 C5         1.3514   -4.0705    4.7959 C.ar      1 RES1    0.0000
      6 C6         0.3080   -3.2883    4.3304 C.ar      1 RES1    0.0000
      7 C7        -2.9033   -1.3533    2.6238 C.ar      1 RES1    0.0000
      8 C8        -4.1835   -1.6223    3.1275 C.ar      1 RES1    0.0000
      9 C9        -5.2538   -0.8228    2.8468 C.ar      1 RES1    0.0000
     10 C10       -5.1160    0.3043    2.0204 C.ar      1 RES1    0.0000
     11 C11       -3.8249    0.5791    1.5188 C.ar      1 RES1    0.0000
     12 C12       -2.7461   -0.2277    1.8141 C.ar      1 RES1    0.0000
     13 C13       -6.0202    2.3584    0.9750 C.3       1 RES1    0.0000
     14 C14       -5.4326    3.4736    1.8053 C.3       1 RES1    0.0000
     15 C15       -7.5761    0.6525    1.9119 C.3       1 RES1    0.0000
     16 C16       -8.3972    1.4416    2.8664 C.3       1 RES1    0.0000
     17 N1         1.2829   -3.0100    0.7432 N.pl3     1 RES1    0.0000
     18 N2        -1.8861   -2.2567    2.9739 N.2       1 RES1    0.0000
     19 N3        -0.7341   -1.9903    2.5309 N.2       1 RES1    0.0000
     20 N4        -6.1979    1.1044    1.7016 N.3       1 RES1    0.0000
     21 O1        -6.2771    3.7218    2.9045 O.3       1 RES1    0.0000
     22 O2        -7.7684    1.6495    4.1201 O.3       1 RES1    0.0000
     23 O3         2.3540   -2.9731    0.1545 O.2       1 RES1    0.0000
     24 O4         0.2014   -2.8352    0.2024 O.2       1 RES1    0.0000
     25 H1         3.0549   -4.4202    2.0654 H         1 RES1    0.0000
     26 H2         3.1069   -4.9910    4.3049 H         1 RES1    0.0000
     27 H3         1.4992   -4.3786    5.6897 H         1 RES1    0.0000
     28 H4        -0.3004   -3.0092    4.9220 H         1 RES1    0.0000
     29 H5        -1.9333   -0.0481    1.4474 H         1 RES1    0.0000
     30 H6        -3.7419    1.3366    0.9408 H         1 RES1    0.0000
     31 H7        -4.2946   -2.3415    3.7054 H         1 RES1    0.0000
     32 H8        -6.8363    2.5851    0.6484 H         1 RES1    0.0000
     33 H9        -5.4237    2.1787    0.2132 H         1 RES1    0.0000
     34 H10       -4.3724    3.2601    2.1505 H         1 RES1    0.0000
     35 H11       -5.4418    4.2589    1.2880 H         1 RES1    0.0000
     36 H12       -8.1124    0.7254    1.1100 H         1 RES1    0.0000
     37 H13       -7.5131   -0.3899    2.0967 H         1 RES1    0.0000
     38 H14       -9.2042    0.8939    2.9955 H         1 RES1    0.0000
     39 H15       -8.6496    2.4951    2.5436 H         1 RES1    0.0000
@<TRIPOS>BOND
     1    1    2 ar
     2    2    3 ar
     3    3    4 ar
     4    4    5 ar
     5    5    6 ar
     6    6    1 ar
     7    7    8 ar
     8    8    9 ar
     9    9   10 ar
    10   10   11 ar
    11   11   12 ar
    12   12    7 ar
    13   13   14 1
    14   14   21 1
    15   15   16 1
    16   16   22 1
    17   17    2 1
    18   18    7 1
    19   19    1 1
    20   20   10 1
    21   23   17 2
    22   24   17 2
    23   25    3 1
    24   26    4 1
    25   27    5 1
    26   28    6 1
    27   29   12 1
    28   30   11 1
    29   31    8 1
    30   32   13 1
    31   33   13 1
    32   34   14 1
    33   35   14 1
    34   36   15 1
    35   37   15 1
    36   38   16 1
    37   39   16 1
    38   13   20 1
    39   15   20 1
    40   18   19 2
@<TRIPOS>SUBSTRUCTURE
     1 RES1 1

@<TRIPOS>CRYSIN
   9.2100    9.5910   10.2840  98.4500 101.4900 111.5600   2 1

