# MOL2 file generated by ConQuest
# Please check atom types

@<TRIPOS>MOLECULE
SESKAD
    73    78     1
SMALL
NO_CHARGES
****
Generated from CSD

@<TRIPOS>ATOM
      1 O1         2.9909   11.6522    3.7295 O.2       1 RES1    0.0000
      2 O2        -0.3322   12.3442    5.9457 O.3       1 RES1    0.0000
      3 N1        -0.8370   11.3942    4.9635 N.3       1 RES1    0.0000
      4 C1         2.1952   12.4574    3.2696 C.2       1 RES1    0.0000
      5 C2         0.8922   12.7729    4.0122 C.3       1 RES1    0.0000
      6 N2         0.3237   14.3330    2.2336 N.3       1 RES1    0.0000
      7 C3        -2.2453   11.3193    5.0815 C.ar      1 RES1    0.0000
      8 C4         1.0275   12.5021    5.5310 C.3       1 RES1    0.0000
      9 H1         1.5045   11.6574    5.6659 H         1 RES1    0.0000
     10 C5         1.6690   14.4177    1.6685 C.3       1 RES1    0.0000
     11 H2         2.1341   15.1805    2.0463 H         1 RES1    0.0000
     12 H3         1.6125   14.5427    0.7076 H         1 RES1    0.0000
     13 C6         1.6882   13.5797    6.3513 C.ar      1 RES1    0.0000
     14 C7         2.4374   13.1533    1.9714 C.2       1 RES1    0.0000
     15 C8         3.9347   11.9661   -1.1943 C.ar      1 RES1    0.0000
     16 H4         3.7482   11.0764   -0.9991 H         1 RES1    0.0000
     17 C9         0.1819   10.5519    2.8548 C.ar      1 RES1    0.0000
     18 C10        0.4221   14.1952    3.6874 C.3       1 RES1    0.0000
     19 H5        -0.4429   14.3594    4.0961 H         1 RES1    0.0000
     20 H6         1.0535   14.8410    4.0392 H         1 RES1    0.0000
     21 C11        1.6373   15.5979    7.6734 C.ar      1 RES1    0.0000
     22 H7         1.1454   16.2630    8.0980 H         1 RES1    0.0000
     23 C12       -0.2663   11.7736    3.6342 C.3       1 RES1    0.0000
     24 H8        -0.9467   12.2527    3.1165 H         1 RES1    0.0000
     25 C13        3.0281   15.6296    7.7369 C.ar      1 RES1    0.0000
     26 C14        3.2685   12.5297    1.1156 C.2       1 RES1    0.0000
     27 H9         3.6127   11.7185    1.4134 H         1 RES1    0.0000
     28 C15       -2.9045   11.7664    6.2265 C.ar      1 RES1    0.0000
     29 H10       -2.4283   12.1930    6.9015 H         1 RES1    0.0000
     30 C16        3.7078   12.9498   -0.2199 C.ar      1 RES1    0.0000
     31 C17       -0.4864   15.4837    1.8457 C.3       1 RES1    0.0000
     32 H11       -0.0819   16.2872    2.1814 H         1 RES1    0.0000
     33 H12       -1.3692   15.3922    2.2116 H         1 RES1    0.0000
     34 H13       -0.5399   15.5286    0.8889 H         1 RES1    0.0000
     35 C18        0.6600    9.4052    3.4797 C.ar      1 RES1    0.0000
     36 H14        0.6425    9.3447    4.4072 H         1 RES1    0.0000
     37 C19       -4.3406   10.4926    4.2266 C.ar      1 RES1    0.0000
     38 H15       -4.8214   10.0621    3.5574 H         1 RES1    0.0000
     39 C20        0.9703   14.5876    6.9843 C.ar      1 RES1    0.0000
     40 H16        0.0408   14.5881    6.9477 H         1 RES1    0.0000
     41 C21        3.7350   14.6035    7.1285 C.ar      1 RES1    0.0000
     42 H17        4.6634   14.5967    7.1788 H         1 RES1    0.0000
     43 C22        0.2042   10.6170    1.4601 C.ar      1 RES1    0.0000
     44 H18       -0.1338   11.3676    1.0258 H         1 RES1    0.0000
     45 C23       -4.9975   10.9349    5.3635 C.ar      1 RES1    0.0000
     46 H19       -5.9139   10.8051    5.4597 H         1 RES1    0.0000
     47 C24       -2.9745   10.6848    4.0742 C.ar      1 RES1    0.0000
     48 H20       -2.5457   10.3917    3.3032 H         1 RES1    0.0000
     49 C25        3.0812   13.5855    6.4446 C.ar      1 RES1    0.0000
     50 H21        3.5748   12.9047    6.0464 H         1 RES1    0.0000
     51 C26        0.7322    9.5599    0.7127 C.ar      1 RES1    0.0000
     52 H22        0.7588    9.6146   -0.2151 H         1 RES1    0.0000
     53 C27        3.9803   14.2794   -0.5547 C.ar      1 RES1    0.0000
     54 H23        3.8163   14.9547    0.0640 H         1 RES1    0.0000
     55 C28       -4.2735   11.5731    6.3539 C.ar      1 RES1    0.0000
     56 H24       -4.7098   11.8776    7.1166 H         1 RES1    0.0000
     57 C29        4.4324   12.3008   -2.4434 C.ar      1 RES1    0.0000
     58 H25        4.5520   11.6361   -3.0827 H         1 RES1    0.0000
     59 C30        4.7552   13.6143   -2.7514 C.ar      1 RES1    0.0000
     60 C31        1.1648    8.3487    2.7295 C.ar      1 RES1    0.0000
     61 H26        1.4698    7.5817    3.1574 H         1 RES1    0.0000
     62 C32        3.7625   16.7601    8.4189 C.3       1 RES1    0.0000
     63 H27        4.0874   16.4619    9.2713 H         1 RES1    0.0000
     64 H28        3.1648   17.5004    8.5442 H         1 RES1    0.0000
     65 H29        4.5026   17.0358    7.8740 H         1 RES1    0.0000
     66 C33        1.2154    8.4323    1.3510 C.ar      1 RES1    0.0000
     67 H30        1.5730    7.7323    0.8534 H         1 RES1    0.0000
     68 C34        4.4951   14.5992   -1.8061 C.ar      1 RES1    0.0000
     69 H31        4.6683   15.4888   -2.0143 H         1 RES1    0.0000
     70 C35        5.4398   13.9519   -4.0625 C.3       1 RES1    0.0000
     71 H32        6.3841   14.0426   -3.9165 H         1 RES1    0.0000
     72 H33        5.0883   14.7771   -4.4037 H         1 RES1    0.0000
     73 H34        5.2800   13.2499   -4.6970 H         1 RES1    0.0000
@<TRIPOS>BOND
     1    1    4 2
     2    2    3 1
     3    3    7 1
     4    4    5 1
     5    5    8 1
     6    6   10 1
     7    7   28 ar
     8    8    2 1
     9    9    8 1
    10   10   11 1
    11   12   10 1
    12   13    8 1
    13   14    4 1
    14   15   16 1
    15   17   23 1
    16   18    5 1
    17   19   18 1
    18   20   18 1
    19   21   22 1
    20   23    3 1
    21   24   23 1
    22   25   21 ar
    23   26   14 2
    24   27   26 1
    25   28   29 1
    26   30   15 ar
    27   31    6 1
    28   32   31 1
    29   33   31 1
    30   34   31 1
    31   35   17 ar
    32   36   35 1
    33   37   38 1
    34   39   13 ar
    35   40   39 1
    36   41   25 ar
    37   42   41 1
    38   43   17 ar
    39   44   43 1
    40   45   37 ar
    41   46   45 1
    42   47    7 ar
    43   48   47 1
    44   49   13 ar
    45   50   49 1
    46   51   43 ar
    47   52   51 1
    48   53   30 ar
    49   54   53 1
    50   55   28 ar
    51   56   55 1
    52   57   15 ar
    53   58   57 1
    54   59   57 ar
    55   60   35 ar
    56   61   60 1
    57   62   25 1
    58   63   62 1
    59   64   62 1
    60   65   62 1
    61   66   51 ar
    62   67   66 1
    63   68   53 ar
    64   69   68 1
    65   70   59 1
    66   71   70 1
    67   72   70 1
    68   73   70 1
    69    5   23 1
    70    6   18 1
    71   10   14 1
    72   21   39 ar
    73   26   30 1
    74   37   47 ar
    75   41   49 ar
    76   45   55 ar
    77   59   68 ar
    78   60   66 ar
@<TRIPOS>SUBSTRUCTURE
     1 RES1 1

@<TRIPOS>CRYSIN
  11.1310   14.2060   18.0160  90.0000  99.3200  90.0000  14 1

