# MOL2 file generated by ConQuest
# Please check atom types

@<TRIPOS>MOLECULE
SESTUG
    44    45     1
SMALL
NO_CHARGES
****
Generated from CSD

@<TRIPOS>ATOM
      1 O1         2.8948    8.1620   29.1778 O.2       1 RES1    0.0000
      2 N1         5.1628    7.3683   30.1013 N.am      1 RES1    0.0000
      3 C1         1.7420    6.8407   27.0016 C.3       1 RES1    0.0000
      4 H1         1.2774    7.5473   27.4958 H         1 RES1    0.0000
      5 O2         2.9897    6.4820   27.6963 O.3       1 RES1    0.0000
      6 C2         2.1237    7.3395   25.6342 C.3       1 RES1    0.0000
      7 H2         2.6516    6.6314   25.2113 H         1 RES1    0.0000
      8 O3         4.5577    6.6462   29.0972 O.3       1 RES1    0.0000
      9 C3         0.8397    7.4819   24.8185 C.3       1 RES1    0.0000
     10 H3         0.2953    8.1869   25.2019 H         1 RES1    0.0000
     11 H4         1.0658    7.7410   23.9102 H         1 RES1    0.0000
     12 O4         4.4793    6.0011   31.7631 O.2       1 RES1    0.0000
     13 C4         0.0422    6.2081   24.7823 C.3       1 RES1    0.0000
     14 H5        -0.7606    6.3474   24.2557 H         1 RES1    0.0000
     15 H6         0.5655    5.5147   24.3522 H         1 RES1    0.0000
     16 O5         6.1455    8.8802   28.7402 O.2       1 RES1    0.0000
     17 C5        -0.3408    5.7568   26.1550 C.3       1 RES1    0.0000
     18 H7        -0.8885    6.4602   26.5621 H         1 RES1    0.0000
     19 C6         0.9069    5.6042   26.9829 C.3       1 RES1    0.0000
     20 H8         0.6571    5.3770   27.8911 H         1 RES1    0.0000
     21 H9         1.4342    4.8712   26.6274 H         1 RES1    0.0000
     22 C7         3.3720    7.2220   28.6842 C.2       1 RES1    0.0000
     23 C8         5.1022    6.9318   31.3961 C.2       1 RES1    0.0000
     24 C9         5.9577    7.8881   32.1506 C.3       1 RES1    0.0000
     25 H10        6.6089    7.4111   32.6875 H         1 RES1    0.0000
     26 H11        5.4159    8.4414   32.7342 H         1 RES1    0.0000
     27 C10        6.6484    8.7355   31.1104 C.3       1 RES1    0.0000
     28 H12        6.5417    9.6779   31.3149 H         1 RES1    0.0000
     29 H13        7.5956    8.5301   31.0814 H         1 RES1    0.0000
     30 C11        6.0065    8.4126   29.8081 C.2       1 RES1    0.0000
     31 C12        2.9950    8.5884   25.6514 C.3       1 RES1    0.0000
     32 H14        3.7306    8.4180   26.2757 H         1 RES1    0.0000
     33 C13        3.6126    8.8476   24.2937 C.3       1 RES1    0.0000
     34 H15        2.9264    9.1044   23.6737 H         1 RES1    0.0000
     35 H16        4.0436    8.0492   23.9818 H         1 RES1    0.0000
     36 H17        4.2592    9.5533   24.3647 H         1 RES1    0.0000
     37 C14        2.2700    9.8187   26.1416 C.3       1 RES1    0.0000
     38 H18        2.9060   10.5159   26.3162 H         1 RES1    0.0000
     39 H19        1.7954    9.6094   26.9480 H         1 RES1    0.0000
     40 H20        1.6484   10.1121   25.4727 H         1 RES1    0.0000
     41 C15       -1.1501    4.4860   26.1434 C.3       1 RES1    0.0000
     42 H21       -1.9681    4.6323   25.6626 H         1 RES1    0.0000
     43 H22       -1.3525    4.2269   27.0445 H         1 RES1    0.0000
     44 H23       -0.6472    3.7896   25.7155 H         1 RES1    0.0000
@<TRIPOS>BOND
     1    1   22 2
     2    2    8 1
     3    3    4 1
     4    5    3 1
     5    6    3 1
     6    7    6 1
     7    8   22 1
     8    9    6 1
     9   10    9 1
    10   11    9 1
    11   12   23 2
    12   13    9 1
    13   14   13 1
    14   15   13 1
    15   16   30 2
    16   17   13 1
    17   18   17 1
    18   19    3 1
    19   20   19 1
    20   21   19 1
    21   22    5 1
    22   23    2 1
    23   24   23 1
    24   25   24 1
    25   26   24 1
    26   27   24 1
    27   28   27 1
    28   29   27 1
    29   30    2 1
    30   31    6 1
    31   32   31 1
    32   33   31 1
    33   34   33 1
    34   35   33 1
    35   36   33 1
    36   37   31 1
    37   38   37 1
    38   39   37 1
    39   40   37 1
    40   41   17 1
    41   42   41 1
    42   43   41 1
    43   44   41 1
    44   17   19 1
    45   27   30 1
@<TRIPOS>SUBSTRUCTURE
     1 RES1 1

@<TRIPOS>CRYSIN
   6.5911    7.7815   31.1250  90.0000  90.0000  90.0000  19 1

