# MOL2 file generated by ConQuest
# Please check atom types

@<TRIPOS>MOLECULE
SESWUJ
    31    32     1
SMALL
NO_CHARGES
****
Generated from CSD

@<TRIPOS>ATOM
      1 C1         1.6554    5.4926    4.6544 C.ar      1 RES1    0.0000
      2 C2         0.9567    6.6928    4.9107 C.ar      1 RES1    0.0000
      3 C3         0.0804    6.7427    5.9941 C.ar      1 RES1    0.0000
      4 H1        -0.3942    7.5458    6.1739 H         1 RES1    0.0000
      5 C4        -0.1099    5.6342    6.8163 C.ar      1 RES1    0.0000
      6 H2        -0.7029    5.6868    7.5574 H         1 RES1    0.0000
      7 C5         0.5633    4.4603    6.5532 C.ar      1 RES1    0.0000
      8 H3         0.4276    3.7004    7.1061 H         1 RES1    0.0000
      9 C6         1.4439    4.3881    5.4735 C.ar      1 RES1    0.0000
     10 H4         1.9038    3.5763    5.2959 H         1 RES1    0.0000
     11 C7         3.3406    4.2944    3.3198 C.3       1 RES1    0.0000
     12 H5         2.7784    3.4995    3.1395 H         1 RES1    0.0000
     13 H6         3.8840    4.1151    4.1274 H         1 RES1    0.0000
     14 C8         4.2455    4.5594    2.1423 C.ar      1 RES1    0.0000
     15 C9         5.6219    4.6599    2.3132 C.ar      1 RES1    0.0000
     16 H7         5.9991    4.5432    3.1772 H         1 RES1    0.0000
     17 C10        6.4499    4.9296    1.2338 C.ar      1 RES1    0.0000
     18 H8         7.3918    4.9909    1.3441 H         1 RES1    0.0000
     19 C11        5.8645    5.1069   -0.0097 C.ar      1 RES1    0.0000
     20 C12        4.5029    5.0139   -0.2179 C.ar      1 RES1    0.0000
     21 H9         4.1317    5.1352   -1.0848 H         1 RES1    0.0000
     22 C13        3.6927    4.7381    0.8703 C.ar      1 RES1    0.0000
     23 H10        2.7524    4.6693    0.7516 H         1 RES1    0.0000
     24 N1         2.4948    5.4602    3.5394 N.3       1 RES1    0.0000
     25 H11        2.9205    6.2640    3.3873 H         1 RES1    0.0000
     26 N2         1.2161    7.8195    4.1214 N.3       1 RES1    0.0000
     27 H12        1.3154    7.5990    3.2429 H         1 RES1    0.0000
     28 H13        0.6235    8.5093    4.2079 H         1 RES1    0.0000
     29 N3         6.7295    5.4097   -1.1562 N.pl3     1 RES1    0.0000
     30 O1         6.2028    5.5811   -2.2508 O.2       1 RES1    0.0000
     31 O2         7.9379    5.4852   -0.9755 O.2       1 RES1    0.0000
@<TRIPOS>BOND
     1    1    2 ar
     2    2    3 ar
     3    3    4 1
     4    5    3 ar
     5    6    5 1
     6    7    5 ar
     7    8    7 1
     8    9    1 ar
     9   10    9 1
    10   11   12 1
    11   13   11 1
    12   14   11 1
    13   15   14 ar
    14   16   15 1
    15   17   15 ar
    16   18   17 1
    17   19   17 ar
    18   20   19 ar
    19   21   20 1
    20   22   14 ar
    21   23   22 1
    22   24    1 1
    23   25   24 1
    24   26    2 1
    25   27   26 1
    26   28   26 1
    27   29   19 1
    28   30   29 2
    29   31   29 2
    30    7    9 ar
    31   11   24 1
    32   20   22 ar
@<TRIPOS>SUBSTRUCTURE
     1 RES1 1

@<TRIPOS>CRYSIN
  10.5030    6.7427   16.4520  90.0000  94.0320  90.0000  14 1

