# MOL2 file generated by ConQuest
# Please check atom types

@<TRIPOS>MOLECULE
SESYOF
    54    55     2
SMALL
NO_CHARGES
****
Generated from CSD

@<TRIPOS>ATOM
      1 O1         3.7813    8.7641   -2.1793 O.3       1 RES1    0.0000
      2 O2         2.7314    7.0146   -1.3907 O.2       1 RES1    0.0000
      3 O3         0.8314    8.4363    5.4678 Du        2 SUP2    0.0000
      4 O4         0.2824    6.3445    5.3286 Du        2 SUP2    0.0000
      5 O5         1.1004    8.2329    5.7007 O.2       1 RES1    0.0000
      6 O6        -0.2445    6.7512    4.8699 O.2       1 RES1    0.0000
      7 O7         6.9903    4.0190    2.0522 O.2       1 RES1    0.0000
      8 O8         4.7964    3.9288    1.4533 O.3       1 RES1    0.0000
      9 N1         6.7571    8.1206    0.7525 N.pl3     1 RES1    0.0000
     10 H1         7.4397    8.6297    0.8762 H         1 RES1    0.0000
     11 N2         0.8316    7.3749    4.8709 N.pl3     1 RES1    0.0000
     12 N3         4.8342    2.6294    1.8937 N.pl3     1 RES1    0.0000
     13 N4         4.7462    1.6452    0.9938 N.2       1 RES1    0.0000
     14 N5         4.6608    0.5254    1.6741 N.2       1 RES1    0.0000
     15 C1         5.7714    8.4576   -0.1515 C.2       1 RES1    0.0000
     16 C2         4.7214    7.6313   -0.3103 C.2       1 RES1    0.0000
     17 C3         4.5392    6.4131    0.5928 C.3       1 RES1    0.0000
     18 H2         4.1806    5.6838    0.0454 H         1 RES1    0.0000
     19 C4         5.8830    5.9639    1.1453 C.2       1 RES1    0.0000
     20 C5         6.9113    6.8564    1.2752 C.2       1 RES1    0.0000
     21 C6         8.2245    6.6128    1.9422 C.3       1 RES1    0.0000
     22 H3         8.8097    7.3550    1.7762 H         1 RES1    0.0000
     23 H4         8.6181    5.8106    1.5917 H         1 RES1    0.0000
     24 H5         8.0908    6.5168    2.8885 H         1 RES1    0.0000
     25 C7         6.0530    9.7559   -0.8608 C.3       1 RES1    0.0000
     26 H6         6.4939    9.5757   -1.6948 H         1 RES1    0.0000
     27 H7         6.6173   10.3046   -0.3113 H         1 RES1    0.0000
     28 H8         5.2268   10.2146   -1.0288 H         1 RES1    0.0000
     29 C8         3.6634    7.7598   -1.3164 C.2       1 RES1    0.0000
     30 C9         2.7511    8.8259   -3.2040 C.3       1 RES1    0.0000
     31 H9         2.6254    7.9542   -3.5844 H         1 RES1    0.0000
     32 H10        3.0209    9.4397   -3.8916 H         1 RES1    0.0000
     33 H11        1.9279    9.1270   -2.8122 H         1 RES1    0.0000
     34 C10        3.5432    6.6911    1.7071 C.ar      1 RES1    0.0000
     35 C11        3.7235    7.7376    2.5978 C.ar      1 RES1    0.0000
     36 H12        4.4636    8.2921    2.4968 H         1 RES1    0.0000
     37 C12        2.8456    7.9800    3.6235 C.ar      1 RES1    0.0000
     38 H13        2.9780    8.6905    4.2080 H         1 RES1    0.0000
     39 C13        1.7624    7.1426    3.7627 C.ar      1 RES1    0.0000
     40 C14        1.5463    6.0954    2.9164 C.ar      1 RES1    0.0000
     41 H14        0.8133    5.5362    3.0328 H         1 RES1    0.0000
     42 C15        2.4393    5.8814    1.8793 C.ar      1 RES1    0.0000
     43 H15        2.2915    5.1783    1.2886 H         1 RES1    0.0000
     44 C16        6.0515    4.6069    1.6082 C.2       1 RES1    0.0000
     45 C17        4.7852    2.1887    3.1751 C.ar      1 RES1    0.0000
     46 C18        4.8164    2.8036    4.4111 C.ar      1 RES1    0.0000
     47 H16        4.8810    3.7258    4.5111 H         1 RES1    0.0000
     48 C19        4.7445    1.9456    5.4801 C.ar      1 RES1    0.0000
     49 H17        4.7683    2.2972    6.3409 H         1 RES1    0.0000
     50 C20        4.6369    0.5788    5.3204 C.ar      1 RES1    0.0000
     51 H18        4.5800    0.0469    6.0801 H         1 RES1    0.0000
     52 C21        4.6100   -0.0168    4.1214 C.ar      1 RES1    0.0000
     53 H19        4.5422   -0.9399    4.0338 H         1 RES1    0.0000
     54 C22        4.6897    0.8254    3.0091 C.ar      1 RES1    0.0000
@<TRIPOS>BOND
     1    1   29 1
     2    2   29 2
     3    5   11 2
     4    6   11 2
     5    7   44 2
     6    8   12 1
     7    9   10 1
     8   11   39 1
     9   12   13 1
    10   13   14 2
    11   14   54 1
    12   15    9 1
    13   16   15 2
    14   17   16 1
    15   18   17 1
    16   19   17 1
    17   20    9 1
    18   21   20 1
    19   22   21 1
    20   23   21 1
    21   24   21 1
    22   25   15 1
    23   26   25 1
    24   27   25 1
    25   28   25 1
    26   29   16 1
    27   30    1 1
    28   31   30 1
    29   32   30 1
    30   33   30 1
    31   34   17 1
    32   35   34 ar
    33   36   35 1
    34   37   35 ar
    35   38   37 1
    36   39   37 ar
    37   40   39 ar
    38   41   40 1
    39   42   34 ar
    40   43   42 1
    41   44    8 1
    42   45   12 1
    43   46   45 ar
    44   47   46 1
    45   48   46 ar
    46   49   48 1
    47   50   48 ar
    48   51   50 1
    49   52   50 ar
    50   53   52 1
    51   54   45 ar
    52   19   20 2
    53   19   44 1
    54   40   42 ar
    55   52   54 ar
@<TRIPOS>SUBSTRUCTURE
     1 RES1 1
     2 SUP2 3

@<TRIPOS>CRYSIN
  10.3180   10.7510   11.4910  64.3700  76.0900  68.7700   2 1

