# MOL2 file generated by ConQuest
# Please check atom types

@<TRIPOS>MOLECULE
SETLOU
    45    48     1
SMALL
NO_CHARGES
****
Generated from CSD

@<TRIPOS>ATOM
      1 O1         3.7050   12.5263    5.6561 O.3       1 RES1    0.0000
      2 O2         7.5809   10.1811    8.8801 O.2       1 RES1    0.0000
      3 O3         6.6933   15.4761    6.3094 O.3       1 RES1    0.0000
      4 O4         4.9789    8.8848   10.5586 O.2       1 RES1    0.0000
      5 O5         5.6402    7.4554    8.9479 O.3       1 RES1    0.0000
      6 O6         4.8800   11.5360    9.7484 O.3       1 RES1    0.0000
      7 H1         4.9369   10.9547   10.3524 H         1 RES1    0.0000
      8 N1         4.8161   13.4335    5.8110 N.2       1 RES1    0.0000
      9 C1         7.4044   14.6314    7.1029 C.ar      1 RES1    0.0000
     10 C2         6.7877   13.3942    7.3854 C.ar      1 RES1    0.0000
     11 C3         5.4811   12.9704    6.8522 C.2       1 RES1    0.0000
     12 C4         4.8519   11.8297    7.4037 C.2       1 RES1    0.0000
     13 C5         3.7897   11.5808    6.6233 C.2       1 RES1    0.0000
     14 C6         2.9117   10.3875    6.7238 C.3       1 RES1    0.0000
     15 H2         3.0313    9.8138    5.9253 H         1 RES1    0.0000
     16 H3         1.9635   10.6704    6.7644 H         1 RES1    0.0000
     17 C7         3.2805    9.5910    8.0065 C.3       1 RES1    0.0000
     18 H4         2.8659   10.0591    8.7873 H         1 RES1    0.0000
     19 C8         4.8255    9.5500    8.2389 C.3       1 RES1    0.0000
     20 H5         5.2636    9.2041    7.4096 H         1 RES1    0.0000
     21 C9         5.3439   10.9831    8.5081 C.3       1 RES1    0.0000
     22 C10        6.8764   11.1102    8.5398 C.2       1 RES1    0.0000
     23 C11        7.4656   12.4624    8.2039 C.ar      1 RES1    0.0000
     24 C12        8.7326   12.7588    8.7081 C.ar      1 RES1    0.0000
     25 H6         9.1899   12.1273    9.2504 H         1 RES1    0.0000
     26 C13        9.3195   13.9776    8.4135 C.ar      1 RES1    0.0000
     27 H7        10.1834   14.1756    8.7550 H         1 RES1    0.0000
     28 C14        8.6655   14.9128    7.6280 C.ar      1 RES1    0.0000
     29 H8         9.0779   15.7493    7.4462 H         1 RES1    0.0000
     30 C15        7.2130   16.8002    6.1026 C.3       1 RES1    0.0000
     31 H9         7.3294   17.2444    6.9680 H         1 RES1    0.0000
     32 H10        6.5849   17.3154    5.5526 H         1 RES1    0.0000
     33 H11        8.0775   16.7439    5.6453 H         1 RES1    0.0000
     34 C16        2.6667    8.1903    7.9191 C.3       1 RES1    0.0000
     35 H12        1.7140    8.2645    7.7048 H         1 RES1    0.0000
     36 H13        2.7738    7.7325    8.7797 H         1 RES1    0.0000
     37 H14        3.1209    7.6773    7.2179 H         1 RES1    0.0000
     38 C17        5.1603    8.6146    9.3898 C.2       1 RES1    0.0000
     39 C18        5.9228    6.3913    9.9140 C.3       1 RES1    0.0000
     40 H15        5.8473    6.7414   10.8371 H         1 RES1    0.0000
     41 H16        6.8437    6.0509    9.7836 H         1 RES1    0.0000
     42 C19        4.9322    5.2881    9.7006 C.3       1 RES1    0.0000
     43 H17        4.0454    5.5839    9.9947 H         1 RES1    0.0000
     44 H18        5.2024    4.5010   10.2188 H         1 RES1    0.0000
     45 H19        4.9007    5.0572    8.7485 H         1 RES1    0.0000
@<TRIPOS>BOND
     1    1    8 1
     2    2   22 2
     3    3    9 1
     4    4   38 2
     5    5   38 1
     6    6    7 1
     7    8   11 2
     8    9   10 ar
     9   10   11 1
    10   11   12 1
    11   12   13 2
    12   13    1 1
    13   14   13 1
    14   15   14 1
    15   16   14 1
    16   17   14 1
    17   18   17 1
    18   19   17 1
    19   20   19 1
    20   21    6 1
    21   22   21 1
    22   23   10 ar
    23   24   23 ar
    24   25   24 1
    25   26   24 ar
    26   27   26 1
    27   28    9 ar
    28   29   28 1
    29   30    3 1
    30   31   30 1
    31   32   30 1
    32   33   30 1
    33   34   17 1
    34   35   34 1
    35   36   34 1
    36   37   34 1
    37   38   19 1
    38   39    5 1
    39   40   39 1
    40   41   39 1
    41   42   39 1
    42   43   42 1
    43   44   42 1
    44   45   42 1
    45   12   21 1
    46   19   21 1
    47   22   23 1
    48   26   28 ar
@<TRIPOS>SUBSTRUCTURE
     1 RES1 1

@<TRIPOS>CRYSIN
   7.5464   10.2786   11.5220  77.9070  73.2660  89.6460   2 1

