# MOL2 file generated by ConQuest
# Please check atom types

@<TRIPOS>MOLECULE
SETPUC
    48    50     1
SMALL
NO_CHARGES
****
Generated from CSD

@<TRIPOS>ATOM
      1 O1         0.8430    6.5954    9.8972 O.3       1 RES1    0.0000
      2 O2         1.7261    2.7234   15.2341 O.2       1 RES1    0.0000
      3 O3         1.8331    2.7201   17.3632 O.2       1 RES1    0.0000
      4 O4        -1.9508    2.8893   20.1602 O.2       1 RES1    0.0000
      5 O5        -3.9090    2.8933   19.3420 O.2       1 RES1    0.0000
      6 N1        -1.4639    2.8707   12.9514 N.2       1 RES1    0.0000
      7 N2        -0.5979    2.7994   14.0335 N.3       1 RES1    0.0000
      8 N3         1.1824    2.7334   16.3412 N.pl3     1 RES1    0.0000
      9 N4        -2.7075    2.8660   19.2184 N.pl3     1 RES1    0.0000
     10 C1        -1.4107    4.2257    9.6868 C.3       1 RES1    0.0000
     11 C2        -1.8761    3.0778   10.6053 C.3       1 RES1    0.0000
     12 C3        -0.9323    3.0119   11.7942 C.2       1 RES1    0.0000
     13 C4         0.5442    3.1231   11.4686 C.3       1 RES1    0.0000
     14 C5         0.8327    4.1944   10.3999 C.3       1 RES1    0.0000
     15 C6         0.3259    5.5934   10.8173 C.3       1 RES1    0.0000
     16 C7        -1.1969    5.5315   10.4800 C.3       1 RES1    0.0000
     17 C8        -0.0052    3.9093    9.1542 C.3       1 RES1    0.0000
     18 C9        -3.3499    3.1811   10.9927 C.3       1 RES1    0.0000
     19 C10        0.6068    5.9991   12.2534 C.3       1 RES1    0.0000
     20 C11        2.2468    6.7613    9.8555 C.3       1 RES1    0.0000
     21 C12       -1.0950    2.7980   15.2842 C.ar      1 RES1    0.0000
     22 C13       -0.2643    2.7667   16.4347 C.ar      1 RES1    0.0000
     23 C14       -0.7952    2.7914   17.7189 C.ar      1 RES1    0.0000
     24 C15       -2.1550    2.8347   17.8691 C.ar      1 RES1    0.0000
     25 C16       -3.0107    2.8553   16.7754 C.ar      1 RES1    0.0000
     26 C17       -2.4963    2.8400   15.5146 C.ar      1 RES1    0.0000
     27 H1         0.2339    2.7314   13.9266 H         1 RES1    0.0000
     28 H2        -2.0673    4.3703    8.9671 H         1 RES1    0.0000
     29 H3        -1.6832    2.1918   10.1360 H         1 RES1    0.0000
     30 H4         0.7712    2.2784   11.0545 H         1 RES1    0.0000
     31 H5         1.0920    3.3443   12.2568 H         1 RES1    0.0000
     32 H6         1.7953    4.2437   10.2696 H         1 RES1    0.0000
     33 H7        -1.6984    5.5494   11.2548 H         1 RES1    0.0000
     34 H8        -1.4295    6.2889    9.9523 H         1 RES1    0.0000
     35 H9         0.2015    4.5635    8.4328 H         1 RES1    0.0000
     36 H10        0.1013    3.0312    8.8502 H         1 RES1    0.0000
     37 H11       -3.8927    3.2177   10.2529 H         1 RES1    0.0000
     38 H12       -3.5809    2.4983   11.5053 H         1 RES1    0.0000
     39 H13       -3.5585    3.9706   11.4719 H         1 RES1    0.0000
     40 H14        1.6232    5.8892   12.5239 H         1 RES1    0.0000
     41 H15        0.1890    6.8619   12.3736 H         1 RES1    0.0000
     42 H16        0.1888    5.3762   12.8245 H         1 RES1    0.0000
     43 H17        2.4569    7.6080    9.3679 H         1 RES1    0.0000
     44 H18        2.5310    6.8885   10.6704 H         1 RES1    0.0000
     45 H19        2.7000    6.0358    9.4681 H         1 RES1    0.0000
     46 H20       -0.3144    2.7314   18.4352 H         1 RES1    0.0000
     47 H21       -3.8682    2.8780   16.9157 H         1 RES1    0.0000
     48 H22       -3.0272    2.8114   14.8450 H         1 RES1    0.0000
@<TRIPOS>BOND
     1    1   15 1
     2    2    8 2
     3    3    8 2
     4    4    9 2
     5    5    9 2
     6    6    7 1
     7    7   21 1
     8    8   22 1
     9    9   24 1
    10   10   11 1
    11   11   12 1
    12   12    6 2
    13   13   12 1
    14   14   13 1
    15   15   14 1
    16   16   10 1
    17   17   10 1
    18   18   11 1
    19   19   15 1
    20   20    1 1
    21   21   22 ar
    22   22   23 ar
    23   23   24 ar
    24   24   25 ar
    25   25   26 ar
    26   26   21 ar
    27   27    7 1
    28   28   10 1
    29   29   11 1
    30   30   13 1
    31   31   13 1
    32   32   14 1
    33   33   16 1
    34   34   16 1
    35   35   17 1
    36   36   17 1
    37   37   18 1
    38   38   18 1
    39   39   18 1
    40   40   19 1
    41   41   19 1
    42   42   19 1
    43   43   20 1
    44   44   20 1
    45   45   20 1
    46   46   23 1
    47   47   25 1
    48   48   26 1
    49   14   17 1
    50   15   16 1
@<TRIPOS>SUBSTRUCTURE
     1 RES1 1

@<TRIPOS>CRYSIN
   8.1650    6.6620   16.9710  90.0000 100.2800  90.0000   4 1

