# MOL2 file generated by ConQuest
# Please check atom types

@<TRIPOS>MOLECULE
SETRAL
    25    27     1
SMALL
NO_CHARGES
****
Generated from CSD

@<TRIPOS>ATOM
      1 C1         2.3448    0.4829    4.4139 C.ar      1 RES1    0.0000
      2 H1         2.4977   -0.1029    3.7076 H         1 RES1    0.0000
      3 C2         2.9238    1.7232    4.3547 C.ar      1 RES1    0.0000
      4 H2         3.4623    1.9636    3.6351 H         1 RES1    0.0000
      5 C3         2.6925    2.5962    5.3720 C.ar      1 RES1    0.0000
      6 H3         3.0650    3.4478    5.3541 H         1 RES1    0.0000
      7 C4         1.9069    2.2050    6.4244 C.ar      1 RES1    0.0000
      8 H4         1.7370    2.7823    7.1331 H         1 RES1    0.0000
      9 C5         1.3760    0.9404    6.4042 C.ar      1 RES1    0.0000
     10 C6         0.5751    0.4288    7.5190 C.2       1 RES1    0.0000
     11 N1         1.5804    0.0622    5.4141 N.ar      1 RES1    0.0000
     12 N2         0.9045    0.6979    8.7530 N.2       1 RES1    0.0000
     13 O1         0.0000    0.0000    9.5412 O.3       1 RES1    0.0000
     14 C1A       -2.3448   -0.4829    4.4139 C.ar      1 RES1    0.0000
     15 H1A       -2.4977    0.1029    3.7076 H         1 RES1    0.0000
     16 C2A       -2.9238   -1.7232    4.3547 C.ar      1 RES1    0.0000
     17 H2A       -3.4623   -1.9636    3.6351 H         1 RES1    0.0000
     18 C3A       -2.6925   -2.5962    5.3720 C.ar      1 RES1    0.0000
     19 H3A       -3.0650   -3.4478    5.3541 H         1 RES1    0.0000
     20 C4A       -1.9069   -2.2050    6.4244 C.ar      1 RES1    0.0000
     21 H4A       -1.7370   -2.7823    7.1331 H         1 RES1    0.0000
     22 C5A       -1.3760   -0.9404    6.4042 C.ar      1 RES1    0.0000
     23 C6A       -0.5751   -0.4288    7.5190 C.2       1 RES1    0.0000
     24 N1A       -1.5804   -0.0622    5.4141 N.ar      1 RES1    0.0000
     25 N2A       -0.9045   -0.6979    8.7530 N.2       1 RES1    0.0000
@<TRIPOS>BOND
     1    1    2 1
     2    3    1 ar
     3    4    3 1
     4    5    3 ar
     5    6    5 1
     6    7    5 ar
     7    8    7 1
     8    9    7 ar
     9   10    9 1
    10   11    1 ar
    11   12   10 2
    12   13   12 1
    13   14   15 1
    14   16   14 ar
    15   17   16 1
    16   18   16 ar
    17   19   18 1
    18   20   18 ar
    19   21   20 1
    20   22   20 ar
    21   23   10 1
    22   24   14 ar
    23   25   13 1
    24    9   11 ar
    25   22   23 1
    26   22   24 ar
    27   23   25 2
@<TRIPOS>SUBSTRUCTURE
     1 RES1 1

@<TRIPOS>CRYSIN
  13.0702   21.8905    7.7957  90.0000  90.0000  90.0000  43 1

