# MOL2 file generated by ConQuest
# Please check atom types

@<TRIPOS>MOLECULE
SETVOD
    28    25     2
SMALL
NO_CHARGES
****
Generated from CSD

@<TRIPOS>ATOM
      1 C1         5.1694    1.6107    7.0736 C.ar      1 RES1    0.0000
      2 C2         5.4899    0.6543    8.0350 C.ar      1 RES1    0.0000
      3 C3         5.3184    1.0110    9.3642 C.ar      1 RES1    0.0000
      4 H1         5.5257    0.3694   10.0133 H         1 RES1    0.0000
      5 C4         4.8344    2.2546    9.7350 C.ar      1 RES1    0.0000
      6 C5         4.5166    3.1662    8.7468 C.ar      1 RES1    0.0000
      7 H2         4.2148    4.0300    8.9673 H         1 RES1    0.0000
      8 C6         4.6791    2.8743    7.4009 C.ar      1 RES1    0.0000
      9 N1         5.3302    1.2715    5.6927 N.pl3     1 RES1    0.0000
     10 H3         4.6569    1.1859    5.1450 H         1 RES1    0.0000
     11 N2         6.5246    1.3955    5.0968 N.pl3     1 RES1    0.0000
     12 O1         6.5695    1.1439    3.8948 O.2       1 RES1    0.0000
     13 O2         7.4897    1.7040    5.7714 O.2       1 RES1    0.0000
     14 C7         5.9945   -0.7087    7.6551 C.3       1 RES1    0.0000
     15 H4         6.0753   -1.2635    8.4598 H         1 RES1    0.0000
     16 H5         6.8717   -0.6246    7.2272 H         1 RES1    0.0000
     17 H6         5.3657   -1.1272    7.0307 H         1 RES1    0.0000
     18 C8         4.6508    2.5964   11.1934 C.3       1 RES1    0.0000
     19 H7         4.8436    1.8073   11.7403 H         1 RES1    0.0000
     20 H8         3.7262    2.8838   11.3474 H         1 RES1    0.0000
     21 H9         5.2628    3.3214   11.4391 H         1 RES1    0.0000
     22 H10        4.3787    3.5338   11.2770 Du        2 SUP2    0.0000
     23 H11        5.4960    2.4573   11.6699 Du        2 SUP2    0.0000
     24 H12        3.9595    2.0198   11.5799 Du        2 SUP2    0.0000
     25 C9         4.3474    3.8893    6.3489 C.3       1 RES1    0.0000
     26 H13        3.9587    4.6832    6.7721 H         1 RES1    0.0000
     27 H14        3.7019    3.5069    5.7179 H         1 RES1    0.0000
     28 H15        5.1637    4.1410    5.8685 H         1 RES1    0.0000
@<TRIPOS>BOND
     1    1    2 ar
     2    2    3 ar
     3    3    4 1
     4    5    3 ar
     5    6    5 ar
     6    7    6 1
     7    8    1 ar
     8    9    1 1
     9   10    9 1
    10   11    9 1
    11   12   11 2
    12   13   11 2
    13   14    2 1
    14   15   14 1
    15   16   14 1
    16   17   14 1
    17   18    5 1
    18   19   18 1
    19   20   18 1
    20   21   18 1
    21   25    8 1
    22   26   25 1
    23   27   25 1
    24   28   25 1
    25    6    8 ar
@<TRIPOS>SUBSTRUCTURE
     1 RES1 1
     2 SUP2 22

@<TRIPOS>CRYSIN
   7.6217   15.8538   16.3696  90.0000  90.0000  90.0000  61 1

