# MOL2 file generated by ConQuest
# Please check atom types

@<TRIPOS>MOLECULE
SEVSES
   104   110     2
SMALL
NO_CHARGES
****
Generated from CSD

@<TRIPOS>ATOM
      1 O1         7.3125    8.8117   11.9004 O.3       1 RES1    0.0000
      2 O2         3.5236    7.0741   12.4969 O.2       1 RES1    0.0000
      3 N1         7.4027    8.5699   10.4505 N.3       1 RES1    0.0000
      4 N2         4.9656    8.8668   12.2650 N.am      1 RES1    0.0000
      5 C1         6.1937    8.0324   12.3153 C.3       1 RES1    0.0000
      6 C2         6.1242    6.8801   11.3074 C.3       1 RES1    0.0000
      7 H1         6.1600    6.0064   11.7704 H         1 RES1    0.0000
      8 H2         5.2900    6.9273   10.7774 H         1 RES1    0.0000
      9 C3         7.3483    7.0702   10.4117 C.3       1 RES1    0.0000
     10 C4         6.4438    7.6375   13.7530 C.3       1 RES1    0.0000
     11 H3         5.6412    7.2122   14.1197 H         1 RES1    0.0000
     12 H4         6.6597    8.4348   14.2786 H         1 RES1    0.0000
     13 H5         7.1940    7.0073   13.7934 H         1 RES1    0.0000
     14 C5         7.0874    6.6040    8.9832 C.3       1 RES1    0.0000
     15 H6         6.9096    5.6401    8.9814 H         1 RES1    0.0000
     16 H7         7.8737    6.7925    8.4295 H         1 RES1    0.0000
     17 H8         6.3099    7.0803    8.6211 H         1 RES1    0.0000
     18 C6         8.5925    6.3993   10.9764 C.3       1 RES1    0.0000
     19 H9         8.4474    5.4309   11.0271 H         1 RES1    0.0000
     20 H10        8.7744    6.7504   11.8740 H         1 RES1    0.0000
     21 H11        9.3581    6.5848   10.3929 H         1 RES1    0.0000
     22 C7         8.6064    9.1851    9.9668 C.ar      1 RES1    0.0000
     23 C8         8.6345    9.4775    8.6076 C.ar      1 RES1    0.0000
     24 H12        7.8669    9.3093    8.0735 H         1 RES1    0.0000
     25 C9         9.7658   10.0085    8.0309 C.ar      1 RES1    0.0000
     26 H13        9.7698   10.1852    7.0974 H         1 RES1    0.0000
     27 C10       10.8824   10.2887    8.7658 C.ar      1 RES1    0.0000
     28 C11       10.8297   10.0478   10.1418 C.ar      1 RES1    0.0000
     29 H14       11.5808   10.2709   10.6795 H         1 RES1    0.0000
     30 C12        9.7053    9.4887   10.7460 C.ar      1 RES1    0.0000
     31 H15        9.6945    9.3192   11.6810 H         1 RES1    0.0000
     32 C13        3.7207    8.2790   12.4231 C.2       1 RES1    0.0000
     33 C14        2.6934    9.3808   12.5071 C.3       1 RES1    0.0000
     34 H16        2.0617    9.3360   11.7449 H         1 RES1    0.0000
     35 H17        2.1820    9.3248   13.3522 H         1 RES1    0.0000
     36 C15        3.5023   10.6270   12.4562 C.ar      1 RES1    0.0000
     37 C16        3.1142   11.9458   12.4865 C.ar      1 RES1    0.0000
     38 H18        2.1900   12.1645   12.5095 H         1 RES1    0.0000
     39 C17        4.0649   12.9627   12.4831 C.ar      1 RES1    0.0000
     40 C18        5.3940   12.5972   12.4375 C.ar      1 RES1    0.0000
     41 H19        6.0519   13.2832   12.4599 H         1 RES1    0.0000
     42 C19        5.8223   11.2733   12.3593 C.ar      1 RES1    0.0000
     43 H20        6.7453   11.0569   12.3024 H         1 RES1    0.0000
     44 C20        4.8511   10.2838   12.3665 C.ar      1 RES1    0.0000
     45 C21       12.1407   10.8422    8.1146 C.3       1 RES1    0.0000
     46 H21       12.7604   11.1482    8.8097 H         1 RES1    0.0000
     47 H22       11.9029   11.5946    7.5344 H         1 RES1    0.0000
     48 H23       12.5688   10.1403    7.5812 H         1 RES1    0.0000
     49 C22        3.6473   14.4045   12.5480 C.3       1 RES1    0.0000
     50 H24        4.3423   14.9648   12.1435 H         1 RES1    0.0000
     51 H25        3.5214   14.6659   13.4841 H         1 RES1    0.0000
     52 H26        2.8058   14.5227   12.0598 H         1 RES1    0.0000
     53 O3        -0.0789    9.3371    9.4744 O.3       2 RES2    0.0000
     54 O4         3.6006    7.4056    8.7138 O.2       2 RES2    0.0000
     55 N3        -0.2210    8.8498   10.8581 N.3       2 RES2    0.0000
     56 N4         2.2642    9.2596    9.0611 N.am      2 RES2    0.0000
     57 C23        0.9685    8.5456    8.9141 C.3       2 RES2    0.0000
     58 C24        0.9477    7.2386    9.7255 C.3       2 RES2    0.0000
     59 H27        0.8522    6.4556    9.1275 H         2 RES2    0.0000
     60 H28        1.7799    7.1392   10.2525 H         2 RES2    0.0000
     61 C25       -0.2623    7.3676   10.6440 C.3       2 RES2    0.0000
     62 C26        0.6664    8.4056    7.4375 C.3       2 RES2    0.0000
     63 H29        1.3377    7.8270    7.0194 H         2 RES2    0.0000
     64 H30        0.6887    9.2897    7.0137 H         2 RES2    0.0000
     65 H31       -0.2223    8.0095    7.3216 H         2 RES2    0.0000
     66 C27       -1.5457    6.8788    9.9805 C.3       2 RES2    0.0000
     67 H32       -1.4661    5.9236    9.7787 H         2 RES2    0.0000
     68 H33       -1.6942    7.3764    9.1502 H         2 RES2    0.0000
     69 H34       -2.3023    7.0227   10.5873 H         2 RES2    0.0000
     70 C28       -0.0541    6.6516   11.9750 C.3       2 RES2    0.0000
     71 H35        0.0473    5.6906   11.8158 H         2 RES2    0.0000
     72 H36       -0.8299    6.8065   12.5535 H         2 RES2    0.0000
     73 H37        0.7521    6.9988   12.4102 H         2 RES2    0.0000
     74 C29       -1.3967    9.4491   11.4101 C.ar      2 RES2    0.0000
     75 C30       -1.4747    9.4995   12.7978 C.ar      2 RES2    0.0000
     76 H38       -0.7584    9.1634   13.3238 H         2 RES2    0.0000
     77 C31       -2.5834   10.0342   13.4136 C.ar      2 RES2    0.0000
     78 H39       -2.6389   10.0210   14.3623 H         2 RES2    0.0000
     79 C32       -3.6057   10.5828   12.6976 C.ar      2 RES2    0.0000
     80 C33       -3.5250   10.5614   11.3064 C.ar      2 RES2    0.0000
     81 H40       -4.2260   10.9404   10.7901 H         2 RES2    0.0000
     82 C34       -2.4240    9.9884   10.6632 C.ar      2 RES2    0.0000
     83 H41       -2.3823    9.9705    9.7148 H         2 RES2    0.0000
     84 C35        3.4713    8.6141    8.8631 C.2       2 RES2    0.0000
     85 C36        4.5726    9.6476    8.8496 C.3       2 RES2    0.0000
     86 H42        5.1669    9.5466    9.6354 H         2 RES2    0.0000
     87 H43        5.1149    9.5803    8.0238 H         2 RES2    0.0000
     88 C37        3.8282   10.9393    8.9004 C.ar      2 RES2    0.0000
     89 C38        4.2906   12.2373    8.8614 C.ar      2 RES2    0.0000
     90 H44        5.2245   12.4087    8.8551 H         2 RES2    0.0000
     91 C39        3.3852   13.3024    8.8310 C.ar      2 RES2    0.0000
     92 C40        2.0320   13.0056    8.8490 C.ar      2 RES2    0.0000
     93 H45        1.4107   13.7226    8.7984 H         2 RES2    0.0000
     94 C41        1.5380   11.7070    8.9378 C.ar      2 RES2    0.0000
     95 H46        0.6045   11.5370    8.9771 H         2 RES2    0.0000
     96 C42        2.4571   10.6743    8.9669 C.ar      2 RES2    0.0000
     97 C43       -4.8219   11.1921   13.3777 C.3       2 RES2    0.0000
     98 H47       -5.2135   10.5376   13.9934 H         2 RES2    0.0000
     99 H48       -5.4854   11.4416   12.6996 H         2 RES2    0.0000
    100 H49       -4.5518   11.9904   13.8785 H         2 RES2    0.0000
    101 C44        3.8742   14.7226    8.7482 C.3       2 RES2    0.0000
    102 H50        3.2389   15.3144    9.2027 H         2 RES2    0.0000
    103 H51        3.9511   14.9873    7.8082 H         2 RES2    0.0000
    104 H52        4.7518   14.7922    9.1800 H         2 RES2    0.0000
@<TRIPOS>BOND
     1    1    3 1
     2    2   32 2
     3    3    9 1
     4    4    5 1
     5    5    1 1
     6    6    5 1
     7    7    6 1
     8    8    6 1
     9    9    6 1
    10   10    5 1
    11   11   10 1
    12   12   10 1
    13   13   10 1
    14   14    9 1
    15   15   14 1
    16   16   14 1
    17   17   14 1
    18   18    9 1
    19   19   18 1
    20   20   18 1
    21   21   18 1
    22   22    3 1
    23   23   22 ar
    24   24   23 1
    25   25   23 ar
    26   26   25 1
    27   27   25 ar
    28   28   27 ar
    29   29   28 1
    30   30   22 ar
    31   31   30 1
    32   32    4 1
    33   33   32 1
    34   34   33 1
    35   35   33 1
    36   36   33 1
    37   37   36 ar
    38   38   37 1
    39   39   37 ar
    40   40   39 ar
    41   41   40 1
    42   42   40 ar
    43   43   42 1
    44   44    4 1
    45   45   27 1
    46   46   45 1
    47   47   45 1
    48   48   45 1
    49   49   39 1
    50   50   49 1
    51   51   49 1
    52   52   49 1
    53   53   55 1
    54   54   84 2
    55   55   61 1
    56   56   57 1
    57   57   53 1
    58   58   57 1
    59   59   58 1
    60   60   58 1
    61   61   58 1
    62   62   57 1
    63   63   62 1
    64   64   62 1
    65   65   62 1
    66   66   61 1
    67   67   66 1
    68   68   66 1
    69   69   66 1
    70   70   61 1
    71   71   70 1
    72   72   70 1
    73   73   70 1
    74   74   55 1
    75   75   74 ar
    76   76   75 1
    77   77   75 ar
    78   78   77 1
    79   79   77 ar
    80   80   79 ar
    81   81   80 1
    82   82   74 ar
    83   83   82 1
    84   84   56 1
    85   85   84 1
    86   86   85 1
    87   87   85 1
    88   88   85 1
    89   89   88 ar
    90   90   89 1
    91   91   89 ar
    92   92   91 ar
    93   93   92 1
    94   94   92 ar
    95   95   94 1
    96   96   56 1
    97   97   79 1
    98   98   97 1
    99   99   97 1
   100  100   97 1
   101  101   91 1
   102  102  101 1
   103  103  101 1
   104  104  101 1
   105   28   30 ar
   106   36   44 ar
   107   42   44 ar
   108   80   82 ar
   109   88   96 ar
   110   94   96 ar
@<TRIPOS>SUBSTRUCTURE
     1 RES1 1
     2 RES2 53

@<TRIPOS>CRYSIN
  19.3900   14.0370   14.2660  90.0000  96.0570  90.0000  14 1

