# MOL2 file generated by ConQuest
# Please check atom types

@<TRIPOS>MOLECULE
SEWQES
    62    64     1
SMALL
NO_CHARGES
****
Generated from CSD

@<TRIPOS>ATOM
      1 C1         0.6344   17.3662   -4.7155 C.3       1 RES1    0.0000
      2 H1        -0.0745   17.9009   -4.3508 H         1 RES1    0.0000
      3 H2         0.3464   16.4540   -4.7818 H         1 RES1    0.0000
      4 H3         0.8645   17.6944   -5.5891 H         1 RES1    0.0000
      5 C2         1.6324   16.9226   -2.6528 C.ar      1 RES1    0.0000
      6 C3         0.4900   16.5231   -2.0147 C.ar      1 RES1    0.0000
      7 H4        -0.3291   16.5898   -2.4492 H         1 RES1    0.0000
      8 C4         0.5464   16.0208   -0.7238 C.ar      1 RES1    0.0000
      9 H5        -0.2369   15.7640   -0.2950 H         1 RES1    0.0000
     10 C5         1.7575   15.8971   -0.0688 C.ar      1 RES1    0.0000
     11 C6         2.8996   16.3144   -0.7367 C.ar      1 RES1    0.0000
     12 H6         3.7251   16.2458   -0.3144 H         1 RES1    0.0000
     13 C7         2.8352   16.8266   -2.0090 C.ar      1 RES1    0.0000
     14 H7         3.6125   17.1086   -2.4344 H         1 RES1    0.0000
     15 C8         2.9019   15.7416    2.0551 C.2       1 RES1    0.0000
     16 H8         3.3026   16.5634    1.8878 H         1 RES1    0.0000
     17 C9         3.4015   15.0224    3.0485 C.2       1 RES1    0.0000
     18 C10        2.8220   13.6613    3.3768 C.3       1 RES1    0.0000
     19 H9         2.2635   13.8002    4.1701 H         1 RES1    0.0000
     20 C11        1.8621   13.1471    2.2824 C.3       1 RES1    0.0000
     21 H10        1.2520   12.5050    2.7031 H         1 RES1    0.0000
     22 C12        1.0052   14.2568    1.6540 C.3       1 RES1    0.0000
     23 H11        0.5810   13.8884    0.8507 H         1 RES1    0.0000
     24 C13       -0.1065   14.7069    2.6070 C.3       1 RES1    0.0000
     25 H12        0.3003   14.9612    3.4497 H         1 RES1    0.0000
     26 H13       -0.5222   15.5011    2.2343 H         1 RES1    0.0000
     27 C14       -1.2016   13.6833    2.8940 C.3       1 RES1    0.0000
     28 H14       -0.7928   12.9355    3.3788 H         1 RES1    0.0000
     29 C15       -1.8327   13.1279    1.6385 C.3       1 RES1    0.0000
     30 H15       -2.1531   13.8496    1.0943 H         1 RES1    0.0000
     31 H16       -2.5658   12.5544    1.8752 H         1 RES1    0.0000
     32 H17       -1.1788   12.6232    1.1480 H         1 RES1    0.0000
     33 C16       -2.2569   14.3044    3.8019 C.3       1 RES1    0.0000
     34 H18       -2.9017   13.6361    4.0466 H         1 RES1    0.0000
     35 H19       -2.6975   15.0194    3.3377 H         1 RES1    0.0000
     36 H20       -1.8365   14.6471    4.5943 H         1 RES1    0.0000
     37 C17        4.4308   15.5825    4.0106 C.3       1 RES1    0.0000
     38 H21        5.1428   14.9136    4.0878 H         1 RES1    0.0000
     39 C18        3.8319   15.7535    5.3970 C.3       1 RES1    0.0000
     40 H22        3.1092   16.3851    5.3581 H         1 RES1    0.0000
     41 H23        4.5060   16.0764    5.9985 H         1 RES1    0.0000
     42 H24        3.5020   14.9083    5.7092 H         1 RES1    0.0000
     43 C19        5.0768   16.8651    3.5412 C.3       1 RES1    0.0000
     44 H25        4.4222   17.5674    3.5252 H         1 RES1    0.0000
     45 H26        5.4341   16.7398    2.6596 H         1 RES1    0.0000
     46 H27        5.7864   17.1051    4.1427 H         1 RES1    0.0000
     47 C20        3.8524   12.6257    3.7858 C.ar      1 RES1    0.0000
     48 C21        3.6570   11.8557    4.9225 C.ar      1 RES1    0.0000
     49 H28        2.8893   11.9774    5.4325 H         1 RES1    0.0000
     50 C22        4.5859   10.9110    5.3067 C.ar      1 RES1    0.0000
     51 H29        4.4348   10.4000    6.0682 H         1 RES1    0.0000
     52 C23        5.7242   10.7183    4.5795 C.ar      1 RES1    0.0000
     53 H30        6.3454   10.0753    4.8390 H         1 RES1    0.0000
     54 C24        5.9463   11.4860    3.4543 C.ar      1 RES1    0.0000
     55 H31        6.7235   11.3669    2.9569 H         1 RES1    0.0000
     56 C25        5.0228   12.4274    3.0655 C.ar      1 RES1    0.0000
     57 H32        5.1850   12.9408    2.3075 H         1 RES1    0.0000
     58 N1         1.8367   15.3852    1.2411 N.3       1 RES1    0.0000
     59 N2         2.5958   12.4242    1.1878 N.pl3     1 RES1    0.0000
     60 O1         1.6966   17.4394   -3.9229 O.3       1 RES1    0.0000
     61 O2         3.2876   13.0709    0.4322 O.2       1 RES1    0.0000
     62 O3         2.4508   11.2330    1.1046 O.2       1 RES1    0.0000
@<TRIPOS>BOND
     1    1    2 1
     2    3    1 1
     3    4    1 1
     4    5    6 ar
     5    6    7 1
     6    8    6 ar
     7    9    8 1
     8   10    8 ar
     9   11   10 ar
    10   12   11 1
    11   13    5 ar
    12   14   13 1
    13   15   16 1
    14   17   15 2
    15   18   17 1
    16   19   18 1
    17   20   18 1
    18   21   20 1
    19   22   20 1
    20   23   22 1
    21   24   22 1
    22   25   24 1
    23   26   24 1
    24   27   24 1
    25   28   27 1
    26   29   27 1
    27   30   29 1
    28   31   29 1
    29   32   29 1
    30   33   27 1
    31   34   33 1
    32   35   33 1
    33   36   33 1
    34   37   17 1
    35   38   37 1
    36   39   37 1
    37   40   39 1
    38   41   39 1
    39   42   39 1
    40   43   37 1
    41   44   43 1
    42   45   43 1
    43   46   43 1
    44   47   18 1
    45   48   47 ar
    46   49   48 1
    47   50   48 ar
    48   51   50 1
    49   52   50 ar
    50   53   52 1
    51   54   52 ar
    52   55   54 1
    53   56   47 ar
    54   57   56 1
    55   58   10 1
    56   59   20 1
    57   60    1 1
    58   61   59 2
    59   62   59 2
    60    5   60 1
    61   11   13 ar
    62   15   58 1
    63   22   58 1
    64   54   56 ar
@<TRIPOS>SUBSTRUCTURE
     1 RES1 1

@<TRIPOS>CRYSIN
  11.4633   17.6450   12.4407  90.0000 113.2040  90.0000  14 1

