# MOL2 file generated by ConQuest
# Please check atom types

@<TRIPOS>MOLECULE
SEWSOD
    37    39     1
SMALL
NO_CHARGES
****
Generated from CSD

@<TRIPOS>ATOM
      1 N1         4.3631    2.0027    0.3277 N.3       1 RES1    0.0000
      2 O1         2.9018    0.4628    3.8217 O.3       1 RES1    0.0000
      3 N2         3.4204    1.0083    2.6211 N.2       1 RES1    0.0000
      4 N3         3.3500    4.0453    1.1572 N.3       1 RES1    0.0000
      5 C1         3.1463    2.6240    0.8639 C.3       1 RES1    0.0000
      6 C2         5.6164    2.5062    0.6236 C.ar      1 RES1    0.0000
      7 C3         2.7201    1.9743    2.1914 C.2       1 RES1    0.0000
      8 C4         2.0276    2.4043   -0.1371 C.ar      1 RES1    0.0000
      9 C5         6.7559    1.9485    0.0408 C.ar      1 RES1    0.0000
     10 H1         6.6722    1.2499   -0.5662 H         1 RES1    0.0000
     11 C6         5.7632    3.5854    1.4983 C.ar      1 RES1    0.0000
     12 C7         1.2897    3.4384   -0.6975 C.ar      1 RES1    0.0000
     13 H2         1.4488    4.3168   -0.4361 H         1 RES1    0.0000
     14 C8         4.5113    4.2465    2.0205 C.3       1 RES1    0.0000
     15 H3         4.3133    3.8941    2.9017 H         1 RES1    0.0000
     16 H4         4.6733    5.1989    2.1130 H         1 RES1    0.0000
     17 C9         1.5017    2.5096    2.8698 C.3       1 RES1    0.0000
     18 H5         1.3470    2.0222    3.6821 H         1 RES1    0.0000
     19 H6         0.7441    2.4125    2.2890 H         1 RES1    0.0000
     20 H7         1.6315    3.4388    3.0745 H         1 RES1    0.0000
     21 C10        8.0019    2.4318    0.3634 C.ar      1 RES1    0.0000
     22 H8         8.7568    2.0446   -0.0191 H         1 RES1    0.0000
     23 C11        7.0279    4.0536    1.7923 C.ar      1 RES1    0.0000
     24 H9         7.1234    4.7721    2.3738 H         1 RES1    0.0000
     25 C12        8.1511    3.4760    1.2408 C.ar      1 RES1    0.0000
     26 H10        8.9983    3.7904    1.4601 H         1 RES1    0.0000
     27 C13        1.7251    1.1052   -0.5184 C.ar      1 RES1    0.0000
     28 H11        2.1852    0.3963   -0.1313 H         1 RES1    0.0000
     29 C14        0.7519    0.8489   -1.4639 C.ar      1 RES1    0.0000
     30 H12        0.5702   -0.0285   -1.7151 H         1 RES1    0.0000
     31 C15        0.0538    1.8814   -2.0326 C.ar      1 RES1    0.0000
     32 H13       -0.5932    1.7113   -2.6779 H         1 RES1    0.0000
     33 C16        0.3183    3.1681   -1.6424 C.ar      1 RES1    0.0000
     34 H14       -0.1634    3.8697   -2.0186 H         1 RES1    0.0000
     35 H15        4.2786    1.5649   -0.3124 H         1 RES1    0.0000
     36 H16        3.4518    4.4469    0.3315 H         1 RES1    0.0000
     37 H17        3.5639   -0.1870    4.0551 H         1 RES1    0.0000
@<TRIPOS>BOND
     1    1    5 1
     2    2    3 1
     3    3    7 2
     4    4    5 1
     5    5    7 1
     6    6    1 1
     7    7   17 1
     8    8    5 1
     9    9    6 ar
    10   10    9 1
    11   11    6 ar
    12   12    8 ar
    13   13   12 1
    14   14    4 1
    15   15   14 1
    16   16   14 1
    17   17   18 1
    18   19   17 1
    19   20   17 1
    20   21    9 ar
    21   22   21 1
    22   23   11 ar
    23   24   23 1
    24   25   21 ar
    25   26   25 1
    26   27    8 ar
    27   28   27 1
    28   29   27 ar
    29   30   29 1
    30   31   29 ar
    31   32   31 1
    32   33   12 ar
    33   34   33 1
    34   35    1 1
    35   36    4 1
    36   37    2 1
    37   11   14 1
    38   23   25 ar
    39   31   33 ar
@<TRIPOS>SUBSTRUCTURE
     1 RES1 1

@<TRIPOS>CRYSIN
  10.7450   20.3240    6.6870  90.0000 107.5450  90.0000  14 1

