# MOL2 file generated by ConQuest
# Please check atom types

@<TRIPOS>MOLECULE
SEYLIU
    43    46     1
SMALL
NO_CHARGES
****
Generated from CSD

@<TRIPOS>ATOM
      1 N1         0.6691    2.5930    7.6422 N.ar      1 RES1    0.0000
      2 C1         0.1428    3.7590    8.1388 C.ar      1 RES1    0.0000
      3 N2        -0.5859    3.8708    9.2739 N.ar      1 RES1    0.0000
      4 C2        -0.9390    2.7607    9.8741 C.ar      1 RES1    0.0000
      5 C3        -0.5208    1.4632    9.4205 C.ar      1 RES1    0.0000
      6 C4         0.3394    1.5020    8.3116 C.ar      1 RES1    0.0000
      7 N3         0.4011    4.8666    7.4714 N.3       1 RES1    0.0000
      8 H1         0.0755    5.6439    7.6377 H         1 RES1    0.0000
      9 H2         0.7428    4.7773    6.6879 H         1 RES1    0.0000
     10 O1        -1.7080    2.8113   10.9519 O.3       1 RES1    0.0000
     11 C5        -2.0677    4.1336   11.4249 C.3       1 RES1    0.0000
     12 H3        -1.2548    4.6398   11.6307 H         1 RES1    0.0000
     13 H4        -2.6161    4.0535   12.2335 H         1 RES1    0.0000
     14 H5        -2.5777    4.6022   10.7308 H         1 RES1    0.0000
     15 N4        -0.9199    0.1915    9.8492 N.2       1 RES1    0.0000
     16 O2        -1.7466    0.1323   10.7382 O.2       1 RES1    0.0000
     17 N5         0.8715    0.2908    7.8026 N.pl3     1 RES1    0.0000
     18 C6         1.6323   -0.6571    8.4777 C.2       1 RES1    0.0000
     19 N6         1.7224   -1.7863    7.8162 N.2       1 RES1    0.0000
     20 C7         0.9626   -1.6057    6.6627 C.ar      1 RES1    0.0000
     21 C8         0.6902   -2.4896    5.6152 C.ar      1 RES1    0.0000
     22 H6         1.0664   -3.3620    5.5992 H         1 RES1    0.0000
     23 C9        -0.1413   -2.0535    4.6061 C.ar      1 RES1    0.0000
     24 H7        -0.3454   -2.6412    3.8883 H         1 RES1    0.0000
     25 C10       -0.6948   -0.7639    4.6104 C.ar      1 RES1    0.0000
     26 H8        -1.2640   -0.4994    3.8968 H         1 RES1    0.0000
     27 C11       -0.4284    0.1306    5.6320 C.ar      1 RES1    0.0000
     28 H9        -0.8024    1.0043    5.6455 H         1 RES1    0.0000
     29 C12        0.4162   -0.3192    6.6351 C.ar      1 RES1    0.0000
     30 C13        2.3342   -0.3629    9.7299 C.ar      1 RES1    0.0000
     31 C14        2.9226    0.8892    9.9594 C.ar      1 RES1    0.0000
     32 H10        2.7948    1.5934    9.3340 H         1 RES1    0.0000
     33 C15        3.6877    1.1040   11.0885 C.ar      1 RES1    0.0000
     34 H11        4.0986    1.9503   11.2191 H         1 RES1    0.0000
     35 C16        3.8675    0.0995   12.0423 C.ar      1 RES1    0.0000
     36 C17        3.2574   -1.1342   11.8246 C.ar      1 RES1    0.0000
     37 H12        3.3540   -1.8241   12.4697 H         1 RES1    0.0000
     38 C18        2.5090   -1.3702   10.6784 C.ar      1 RES1    0.0000
     39 H13        2.1152   -2.2235   10.5396 H         1 RES1    0.0000
     40 C19        4.7196    0.3583   13.2576 C.3       1 RES1    0.0000
     41 H14        4.3235    1.0816   13.7874 H         1 RES1    0.0000
     42 H15        5.6216    0.6171   12.9751 H         1 RES1    0.0000
     43 H16        4.7686   -0.4561   13.8020 H         1 RES1    0.0000
@<TRIPOS>BOND
     1    1    2 ar
     2    2    3 ar
     3    3    4 ar
     4    4    5 ar
     5    5    6 ar
     6    6    1 ar
     7    7    2 1
     8    8    7 1
     9    9    7 1
    10   10    4 1
    11   11   10 1
    12   12   11 1
    13   13   11 1
    14   14   11 1
    15   15    5 1
    16   16   15 2
    17   17    6 1
    18   18   17 1
    19   19   18 2
    20   20   19 1
    21   21   20 ar
    22   22   21 1
    23   23   21 ar
    24   24   23 1
    25   25   23 ar
    26   26   25 1
    27   27   25 ar
    28   28   27 1
    29   29   17 1
    30   30   18 1
    31   31   30 ar
    32   32   31 1
    33   33   31 ar
    34   34   33 1
    35   35   33 ar
    36   36   35 ar
    37   37   36 1
    38   38   30 ar
    39   39   38 1
    40   40   35 1
    41   41   40 1
    42   42   40 1
    43   43   40 1
    44   20   29 ar
    45   27   29 ar
    46   36   38 ar
@<TRIPOS>SUBSTRUCTURE
     1 RES1 1

@<TRIPOS>CRYSIN
   8.6630    9.6040   12.8990  93.7140 106.9600 106.4700   2 1

