# MOL2 file generated by ConQuest
# Please check atom types

@<TRIPOS>MOLECULE
SEYMUE
    18    20     1
SMALL
NO_CHARGES
****
Generated from CSD

@<TRIPOS>ATOM
      1 O1         2.6210   11.8124    6.3696 O.3       1 RES1    0.0000
      2 O2         1.1050   10.9104    4.9528 O.3       1 RES1    0.0000
      3 O3         2.7692    8.7387    6.0296 O.3       1 RES1    0.0000
      4 N1         3.2058    7.7131    6.9528 N.2       1 RES1    0.0000
      5 N2         1.0298    8.0765    7.3083 N.pl3     1 RES1    0.0000
      6 C1         2.0012   12.0088    5.1063 C.3       1 RES1    0.0000
      7 C2         0.8874   10.2833    6.2073 C.3       1 RES1    0.0000
      8 C3         1.6741   11.1236    7.1944 C.3       1 RES1    0.0000
      9 C4         3.0431   11.9036    4.0554 C.3       1 RES1    0.0000
     10 C5         1.2328   13.2925    5.0442 C.3       1 RES1    0.0000
     11 C6         1.3335    8.8397    6.1038 C.3       1 RES1    0.0000
     12 C7         2.1557    7.3554    7.6086 C.2       1 RES1    0.0000
     13 C8         2.1937    6.3229    8.6475 C.ar      1 RES1    0.0000
     14 C9         3.2137    5.3661    8.6199 C.ar      1 RES1    0.0000
     15 C10        3.2679    4.3869    9.6052 C.ar      1 RES1    0.0000
     16 C11        2.3310    4.3658   10.6062 C.ar      1 RES1    0.0000
     17 C12        1.3152    5.2903   10.6338 C.ar      1 RES1    0.0000
     18 C13        1.2489    6.2864    9.6518 C.ar      1 RES1    0.0000
@<TRIPOS>BOND
     1    1    6 1
     2    2    6 1
     3    3    4 1
     4    4   12 2
     5    5   11 1
     6    6    9 1
     7    7    2 1
     8    8    1 1
     9   10    6 1
    10   11    3 1
    11   12    5 1
    12   13   12 1
    13   14   13 ar
    14   15   14 ar
    15   16   15 ar
    16   17   16 ar
    17   18   13 ar
    18    7    8 1
    19    7   11 1
    20   17   18 ar
@<TRIPOS>SUBSTRUCTURE
     1 RES1 1

@<TRIPOS>CRYSIN
   5.2170   14.0290   17.2570  90.0000  90.0000  90.0000  19 1

