# MOL2 file generated by ConQuest
# Please check atom types

@<TRIPOS>MOLECULE
SEYPAQ
    48    51     1
SMALL
NO_CHARGES
****
Generated from CSD

@<TRIPOS>ATOM
      1 N1         6.3686    9.5380    3.8892 N.3       1 RES1    0.0000
      2 N2         5.0578    6.9878    2.9529 N.3       1 RES1    0.0000
      3 N3         5.9559   15.1720    0.6676 N.pl3     1 RES1    0.0000
      4 O1         6.8739   15.9774    0.5536 O.2       1 RES1    0.0000
      5 O2         4.9112   15.2224    0.0297 O.2       1 RES1    0.0000
      6 C1         6.3569    8.7006    5.0102 C.ar      1 RES1    0.0000
      7 C2         6.1488    7.2903    5.1027 C.ar      1 RES1    0.0000
      8 C3         5.6790    6.4148    4.0733 C.ar      1 RES1    0.0000
      9 C4         5.8393    5.0537    4.2203 C.ar      1 RES1    0.0000
     10 H1         5.6368    4.4757    3.4949 H         1 RES1    0.0000
     11 C5         6.2948    4.5163    5.4233 C.ar      1 RES1    0.0000
     12 H2         6.4429    3.5806    5.4910 H         1 RES1    0.0000
     13 C6         6.5322    5.3168    6.5073 C.ar      1 RES1    0.0000
     14 H3         6.7539    4.9258    7.3434 H         1 RES1    0.0000
     15 C7         6.4507    6.7173    6.3850 C.ar      1 RES1    0.0000
     16 C8         6.6960    7.5620    7.5153 C.ar      1 RES1    0.0000
     17 H4         6.8380    7.1636    8.3663 H         1 RES1    0.0000
     18 C9         6.7327    8.9072    7.4095 C.ar      1 RES1    0.0000
     19 H5         6.8470    9.4470    8.1829 H         1 RES1    0.0000
     20 C10        6.5982    9.5048    6.1289 C.ar      1 RES1    0.0000
     21 C11        6.7529   10.8549    5.7059 C.2       1 RES1    0.0000
     22 C12        6.5901   10.8475    4.3310 C.2       1 RES1    0.0000
     23 C13        6.4718   11.9505    3.3776 C.ar      1 RES1    0.0000
     24 C14        5.3996   11.9665    2.4704 C.ar      1 RES1    0.0000
     25 H6         4.7910   11.2373    2.4539 H         1 RES1    0.0000
     26 C15        5.2159   13.0239    1.6012 C.ar      1 RES1    0.0000
     27 H7         4.4787   13.0387    1.0014 H         1 RES1    0.0000
     28 C16        6.1280   14.0568    1.6210 C.ar      1 RES1    0.0000
     29 C17        7.1958   14.0814    2.4968 C.ar      1 RES1    0.0000
     30 H8         7.8071   14.8081    2.4985 H         1 RES1    0.0000
     31 C18        7.3528   13.0178    3.3726 C.ar      1 RES1    0.0000
     32 H9         8.0819   13.0215    3.9807 H         1 RES1    0.0000
     33 C19        6.8451    9.1322    2.5596 C.3       1 RES1    0.0000
     34 H10        7.2245    8.2297    2.6108 H         1 RES1    0.0000
     35 H11        7.5337    9.7593    2.2539 H         1 RES1    0.0000
     36 H12        6.0963    9.1372    1.9284 H         1 RES1    0.0000
     37 C20        3.9159    7.8756    3.1793 C.3       1 RES1    0.0000
     38 H13        4.0318    8.3465    4.0303 H         1 RES1    0.0000
     39 H14        3.0912    7.3469    3.2090 H         1 RES1    0.0000
     40 H15        3.8590    8.5285    2.4506 H         1 RES1    0.0000
     41 C21        4.8492    6.1443    1.7764 C.3       1 RES1    0.0000
     42 H16        5.6940    5.7115    1.5302 H         1 RES1    0.0000
     43 H17        4.5354    6.6964    1.0295 H         1 RES1    0.0000
     44 H18        4.1787    5.4594    1.9813 H         1 RES1    0.0000
     45 C22        7.0326   12.0267    6.6048 C.3       1 RES1    0.0000
     46 H19        6.9428   12.8592    6.0958 H         1 RES1    0.0000
     47 H20        7.9441   11.9566    6.9584 H         1 RES1    0.0000
     48 H21        6.3938   12.0292    7.3484 H         1 RES1    0.0000
@<TRIPOS>BOND
     1    1    6 1
     2    2    8 1
     3    3    4 2
     4    5    3 2
     5    6    7 ar
     6    7    8 ar
     7    8    9 ar
     8    9   10 1
     9   11    9 ar
    10   12   11 1
    11   13   11 ar
    12   14   13 1
    13   15    7 ar
    14   16   15 ar
    15   17   16 1
    16   18   16 ar
    17   19   18 1
    18   20    6 ar
    19   21   20 1
    20   22    1 1
    21   23   22 1
    22   24   23 ar
    23   25   24 1
    24   26   24 ar
    25   27   26 1
    26   28    3 1
    27   29   28 ar
    28   30   29 1
    29   31   23 ar
    30   32   31 1
    31   33    1 1
    32   34   33 1
    33   35   33 1
    34   36   33 1
    35   37    2 1
    36   38   37 1
    37   39   37 1
    38   40   37 1
    39   41    2 1
    40   42   41 1
    41   43   41 1
    42   44   41 1
    43   45   21 1
    44   46   45 1
    45   47   45 1
    46   48   45 1
    47   13   15 ar
    48   18   20 ar
    49   21   22 2
    50   26   28 ar
    51   29   31 ar
@<TRIPOS>SUBSTRUCTURE
     1 RES1 1

@<TRIPOS>CRYSIN
   8.9652   12.2960   16.6383  90.0000  96.7090  90.0000  14 1

