# MOL2 file generated by ConQuest
# Please check atom types

@<TRIPOS>MOLECULE
SEYPEU
    48    50     1
SMALL
NO_CHARGES
****
Generated from CSD

@<TRIPOS>ATOM
      1 O1        -6.1428    4.9000    8.8554 O.2       1 RES1    0.0000
      2 O2        -7.3819    3.3849    7.9258 O.2       1 RES1    0.0000
      3 N1         1.8114    2.4327    5.4476 N.3       1 RES1    0.0000
      4 N2         4.5214    2.2416    4.9489 N.3       1 RES1    0.0000
      5 N3        -6.2996    3.9236    8.1246 N.pl3     1 RES1    0.0000
      6 C1         1.6441    1.4246    4.4917 C.ar      1 RES1    0.0000
      7 C2         2.7781    0.9229    3.7358 C.ar      1 RES1    0.0000
      8 C3         4.1571    1.3332    3.9273 C.ar      1 RES1    0.0000
      9 C4         5.1316    0.8209    3.0836 C.ar      1 RES1    0.0000
     10 H1         6.0297    1.1131    3.1912 H         1 RES1    0.0000
     11 C5         4.8424   -0.1095    2.0815 C.ar      1 RES1    0.0000
     12 H2         5.5346   -0.4284    1.5153 H         1 RES1    0.0000
     13 C6         3.5700   -0.5590    1.9175 C.ar      1 RES1    0.0000
     14 H3         3.3833   -1.2113    1.2528 H         1 RES1    0.0000
     15 C7         2.5189   -0.0636    2.7304 C.ar      1 RES1    0.0000
     16 C8         1.2110   -0.5783    2.5409 C.ar      1 RES1    0.0000
     17 H4         1.0607   -1.2434    1.8786 H         1 RES1    0.0000
     18 C9         0.1700   -0.1337    3.2927 C.ar      1 RES1    0.0000
     19 H5        -0.6942   -0.5135    3.1795 H         1 RES1    0.0000
     20 C10        0.3719    0.8963    4.2461 C.ar      1 RES1    0.0000
     21 C11       -0.7858    1.4221    4.9122 C.1       1 RES1    0.0000
     22 C12       -1.7757    1.8300    5.4488 C.1       1 RES1    0.0000
     23 C13       -2.9207    2.3503    6.1353 C.ar      1 RES1    0.0000
     24 C14       -2.7791    3.4155    7.0365 C.ar      1 RES1    0.0000
     25 H6        -1.9208    3.7886    7.1958 H         1 RES1    0.0000
     26 C15       -3.8815    3.9246    7.6948 C.ar      1 RES1    0.0000
     27 H7        -3.7902    4.6443    8.3080 H         1 RES1    0.0000
     28 C16       -5.1212    3.3652    7.4442 C.ar      1 RES1    0.0000
     29 C17       -5.2967    2.3034    6.5763 C.ar      1 RES1    0.0000
     30 H8        -6.1591    1.9302    6.4352 H         1 RES1    0.0000
     31 C18       -4.1909    1.7965    5.9177 C.ar      1 RES1    0.0000
     32 H9        -4.2928    1.0689    5.3148 H         1 RES1    0.0000
     33 C19        1.2637    2.3174    6.7828 C.3       1 RES1    0.0000
     34 H10        1.0489    1.3792    6.9684 H         1 RES1    0.0000
     35 H11        0.4499    2.8588    6.8501 H         1 RES1    0.0000
     36 H12        1.9221    2.6369    7.4349 H         1 RES1    0.0000
     37 C20        2.0365    3.7822    4.9850 C.3       1 RES1    0.0000
     38 H13        2.4601    3.7588    4.1018 H         1 RES1    0.0000
     39 H14        2.6230    4.2501    5.6160 H         1 RES1    0.0000
     40 H15        1.1791    4.2535    4.9234 H         1 RES1    0.0000
     41 C21        4.5777    1.6371    6.2798 C.3       1 RES1    0.0000
     42 H16        3.7853    1.0777    6.4188 H         1 RES1    0.0000
     43 H17        4.6021    2.3432    6.9591 H         1 RES1    0.0000
     44 H18        5.3831    1.0843    6.3543 H         1 RES1    0.0000
     45 C22        5.7013    3.0653    4.6934 C.3       1 RES1    0.0000
     46 H19        5.6326    3.4684    3.8030 H         1 RES1    0.0000
     47 H20        6.5057    2.5077    4.7382 H         1 RES1    0.0000
     48 H21        5.7570    3.7742    5.3687 H         1 RES1    0.0000
@<TRIPOS>BOND
     1    1    5 2
     2    2    5 2
     3    3    6 1
     4    4    8 1
     5    5   28 1
     6    6    7 ar
     7    7    8 ar
     8    8    9 ar
     9    9   10 1
    10   11    9 ar
    11   12   11 1
    12   13   11 ar
    13   14   13 1
    14   15    7 ar
    15   16   15 ar
    16   17   16 1
    17   18   16 ar
    18   19   18 1
    19   20    6 ar
    20   21   20 1
    21   22   21 3
    22   23   22 1
    23   24   23 ar
    24   25   24 1
    25   26   24 ar
    26   27   26 1
    27   28   26 ar
    28   29   28 ar
    29   30   29 1
    30   31   23 ar
    31   32   31 1
    32   33    3 1
    33   34   33 1
    34   35   33 1
    35   36   33 1
    36   37    3 1
    37   38   37 1
    38   39   37 1
    39   40   37 1
    40   41    4 1
    41   42   41 1
    42   43   41 1
    43   44   41 1
    44   45    4 1
    45   46   45 1
    46   47   45 1
    47   48   45 1
    48   13   15 ar
    49   18   20 ar
    50   29   31 ar
@<TRIPOS>SUBSTRUCTURE
     1 RES1 1

@<TRIPOS>CRYSIN
  14.5265   11.0422   11.8600  90.0000  98.8270  90.0000  14 1

