# MOL2 file generated by ConQuest
# Please check atom types

@<TRIPOS>MOLECULE
SEYWOL
    13    13     1
SMALL
NO_CHARGES
****
Generated from CSD

@<TRIPOS>ATOM
      1 O1         4.0382    2.6407    5.1572 O.3       1 RES1    0.0000
      2 O2         4.3292    3.9318    1.3946 O.2       1 RES1    0.0000
      3 O3         3.0769    3.0698   -0.1627 O.2       1 RES1    0.0000
      4 O4         0.8932    0.6567    2.9332 O.2       1 RES1    0.0000
      5 O5         1.0256    0.0193    5.0119 O.2       1 RES1    0.0000
      6 N1         4.1021    3.0389    3.8174 N.2       1 RES1    0.0000
      7 N2         3.0563    1.7373    5.3768 N.2       1 RES1    0.0000
      8 N3         2.7985    2.4168    1.9124 N.3       1 RES1    0.0000
      9 N4         3.4531    3.1983    0.9968 N.pl3     1 RES1    0.0000
     10 N5         1.3917    0.6733    4.0559 N.pl3     1 RES1    0.0000
     11 C1         3.1424    2.3741    3.2323 C.2       1 RES1    0.0000
     12 C2         2.5075    1.5747    4.2191 C.2       1 RES1    0.0000
     13 H1         2.1802    1.9516    1.5595 H         1 RES1    0.0000
@<TRIPOS>BOND
     1    1    6 1
     2    2    9 2
     3    3    9 2
     4    4   10 2
     5    5   10 2
     6    6   11 2
     7    7    1 1
     8    8    9 1
     9   10   12 1
    10   11    8 1
    11   12    7 2
    12   13    8 1
    13   11   12 1
@<TRIPOS>SUBSTRUCTURE
     1 RES1 1

@<TRIPOS>CRYSIN
   5.0351    8.9523   26.1215  90.0000  90.0000  90.0000  61 1

