# MOL2 file generated by ConQuest
# Please check atom types

@<TRIPOS>MOLECULE
SEZJEN
    16    16     1
SMALL
NO_CHARGES
****
Generated from CSD

@<TRIPOS>ATOM
      1 O1         4.6261   -0.0572    2.3048 O.3       1 RES1    0.0000
      2 O2         1.9040    0.2663    2.9442 O.2       1 RES1    0.0000
      3 O3         4.8580   -2.0130    0.3171 O.2       1 RES1    0.0000
      4 N1         3.5720   -0.6940    1.6875 N.am      1 RES1    0.0000
      5 C1         2.2487   -0.4690    2.0509 C.2       1 RES1    0.0000
      6 C2         1.4074   -1.2968    1.1153 C.3       1 RES1    0.0000
      7 H1         0.8318   -0.7153    0.5586 H         1 RES1    0.0000
      8 H2         0.8309   -1.9200    1.6247 H         1 RES1    0.0000
      9 C3         2.3992   -2.0741    0.2380 C.3       1 RES1    0.0000
     10 H3         2.2792   -3.0499    0.3561 H         1 RES1    0.0000
     11 H4         2.2684   -1.8512   -0.7181 H         1 RES1    0.0000
     12 C4         3.7706   -1.6485    0.6990 C.2       1 RES1    0.0000
     13 C5         5.0756   -0.8124    3.4583 C.3       1 RES1    0.0000
     14 H5         5.8241   -0.3444    3.8837 H         1 RES1    0.0000
     15 H6         5.3673   -1.7032    3.1726 H         1 RES1    0.0000
     16 H7         4.3390   -0.8996    4.0990 H         1 RES1    0.0000
@<TRIPOS>BOND
     1    1    4 1
     2    2    5 2
     3    3   12 2
     4    4    5 1
     5    5    6 1
     6    6    7 1
     7    8    6 1
     8    9    6 1
     9   10    9 1
    10   11    9 1
    11   12    4 1
    12   13    1 1
    13   14   13 1
    14   15   13 1
    15   16   13 1
    16    9   12 1
@<TRIPOS>SUBSTRUCTURE
     1 RES1 1

@<TRIPOS>CRYSIN
   6.6549    7.5530   12.1050  90.0000 105.9640  90.0000  14 1

