# MOL2 file generated by ConQuest
# Please check atom types

@<TRIPOS>MOLECULE
SEZMOA
    31    32     1
SMALL
NO_CHARGES
****
Generated from CSD

@<TRIPOS>ATOM
      1 N1         0.7703    2.6850   -6.2863 N.3       1 RES1    0.0000
      2 N2         1.9563    1.0926    5.6494 N.pl3     1 RES1    0.0000
      3 O1         0.4748    2.9606    0.0611 O.2       1 RES1    0.0000
      4 O2         2.6746    1.8816    6.2694 O.2       1 RES1    0.0000
      5 O3         1.2329    0.2731    6.2136 O.2       1 RES1    0.0000
      6 C1         0.8987    2.6073   -4.9374 C.ar      1 RES1    0.0000
      7 C2         0.1437    3.4388   -4.0811 C.ar      1 RES1    0.0000
      8 H1        -0.4320    4.0732   -4.4438 H         1 RES1    0.0000
      9 C3         0.2527    3.3202   -2.7276 C.ar      1 RES1    0.0000
     10 H2        -0.2506    3.8825   -2.1832 H         1 RES1    0.0000
     11 C4         1.0984    2.3790   -2.1342 C.ar      1 RES1    0.0000
     12 C5         1.8625    1.5748   -2.9828 C.ar      1 RES1    0.0000
     13 H3         2.4484    0.9532   -2.6145 H         1 RES1    0.0000
     14 C6         1.7657    1.6813   -4.3516 C.ar      1 RES1    0.0000
     15 H4         2.2844    1.1310   -4.8915 H         1 RES1    0.0000
     16 C7         1.1503    2.2517   -0.6603 C.2       1 RES1    0.0000
     17 C8         2.0755    1.2047   -0.0625 C.3       1 RES1    0.0000
     18 H5         1.8228    0.3300   -0.3971 H         1 RES1    0.0000
     19 H6         2.9843    1.3826   -0.3510 H         1 RES1    0.0000
     20 C9         2.0327    1.1879    1.4323 C.ar      1 RES1    0.0000
     21 C10        1.1952    0.3108    2.1043 C.ar      1 RES1    0.0000
     22 H7         0.6439   -0.2579    1.6166 H         1 RES1    0.0000
     23 C11        1.1646    0.2659    3.4875 C.ar      1 RES1    0.0000
     24 H8         0.6124   -0.3348    3.9322 H         1 RES1    0.0000
     25 C12        1.9766    1.1382    4.1880 C.ar      1 RES1    0.0000
     26 C13        2.8244    2.0314    3.5559 C.ar      1 RES1    0.0000
     27 H9         3.3644    2.6081    4.0467 H         1 RES1    0.0000
     28 C14        2.8458    2.0402    2.1774 C.ar      1 RES1    0.0000
     29 H10        3.4153    2.6281    1.7356 H         1 RES1    0.0000
     30 H11        0.3159    3.4284   -6.6776 H         1 RES1    0.0000
     31 H12        1.2736    2.2348   -6.7669 H         1 RES1    0.0000
@<TRIPOS>BOND
     1    1    6 1
     2    2    4 2
     3    3   16 2
     4    5    2 2
     5    6    7 ar
     6    7    8 1
     7    9    7 ar
     8   10    9 1
     9   11    9 ar
    10   12   11 ar
    11   13   12 1
    12   14    6 ar
    13   15   14 1
    14   16   11 1
    15   17   16 1
    16   18   17 1
    17   19   17 1
    18   20   17 1
    19   21   20 ar
    20   22   21 1
    21   23   21 ar
    22   24   23 1
    23   25    2 1
    24   26   25 ar
    25   27   26 1
    26   28   20 ar
    27   29   28 1
    28   30    1 1
    29   31    1 1
    30   12   14 ar
    31   23   25 ar
    32   26   28 ar
@<TRIPOS>SUBSTRUCTURE
     1 RES1 1

@<TRIPOS>CRYSIN
  10.1889    8.0102   14.8722  90.0000  90.0000  90.0000  33 1

