# MOL2 file generated by ConQuest
# Please check atom types

@<TRIPOS>MOLECULE
SEZVEZ
    40    41     1
SMALL
NO_CHARGES
****
Generated from CSD

@<TRIPOS>ATOM
      1 O1         2.7405    8.0411    5.3483 O.2       1 RES1    0.0000
      2 O2         1.7568    1.8674   -0.9869 O.2       1 RES1    0.0000
      3 O3         0.6375    7.8849    5.6270 O.2       1 RES1    0.0000
      4 O4         5.2120    0.6430   -0.1434 O.2       1 RES1    0.0000
      5 O5         2.6437    3.4433    0.2924 O.3       1 RES1    0.0000
      6 N1         1.6638    7.5700    5.0663 N.pl3     1 RES1    0.0000
      7 N2         5.6132    2.7461    0.5685 N.am      1 RES1    0.0000
      8 H1         5.3944    3.5687    0.4165 H         1 RES1    0.0000
      9 C1         7.3694    3.0517    3.7720 C.ar      1 RES1    0.0000
     10 H2         7.3596    3.5443    4.4982 H         1 RES1    0.0000
     11 C2         8.3346    2.0958    3.6711 C.ar      1 RES1    0.0000
     12 H3         9.0068    1.9626    4.3718 H         1 RES1    0.0000
     13 C3         8.4027    1.3318    2.5489 C.ar      1 RES1    0.0000
     14 H4         9.0596    0.7079    2.4366 H         1 RES1    0.0000
     15 C4         7.5077    1.5076    1.5111 C.ar      1 RES1    0.0000
     16 H5         7.5551    1.0008    0.7397 H         1 RES1    0.0000
     17 C5         4.0545    1.5862   -2.5369 C.3       1 RES1    0.0000
     18 H6         3.6983    0.7323   -2.3620 H         1 RES1    0.0000
     19 H7         4.9547    1.5037   -2.9007 H         1 RES1    0.0000
     20 H8         3.4999    2.0407   -3.1680 H         1 RES1    0.0000
     21 C6         6.4600    3.2407    2.7584 C.ar      1 RES1    0.0000
     22 H9         5.7881    3.9202    2.7951 H         1 RES1    0.0000
     23 C7         0.4027    5.9614    3.7154 C.ar      1 RES1    0.0000
     24 H10       -0.3339    6.2246    4.2144 H         1 RES1    0.0000
     25 C8         2.7574    6.2167    3.3300 C.ar      1 RES1    0.0000
     26 H11        3.5597    6.6395    3.4871 H         1 RES1    0.0000
     27 C9         6.5233    2.4718    1.6205 C.ar      1 RES1    0.0000
     28 C10        5.0294    1.8493   -0.2287 C.2       1 RES1    0.0000
     29 C11        1.3609    3.6493    0.9129 C.3       1 RES1    0.0000
     30 H12        0.9810    2.8023    1.2660 H         1 RES1    0.0000
     31 H13        0.7416    3.9202    0.2631 H         1 RES1    0.0000
     32 C12        1.6075    6.5468    4.0063 C.ar      1 RES1    0.0000
     33 C13        0.3506    5.0231    2.7085 C.ar      1 RES1    0.0000
     34 H14       -0.4869    4.6184    2.5112 H         1 RES1    0.0000
     35 C14        2.6942    2.5264   -0.6707 C.2       1 RES1    0.0000
     36 C15        2.6921    5.2818    2.3239 C.ar      1 RES1    0.0000
     37 H15        3.4412    5.0675    1.8648 H         1 RES1    0.0000
     38 C16        4.0776    2.4220   -1.2745 C.3       1 RES1    0.0000
     39 H16        4.3764    3.3344   -1.4649 H         1 RES1    0.0000
     40 C17        1.4904    4.6721    1.9980 C.ar      1 RES1    0.0000
@<TRIPOS>BOND
     1    1    6 2
     2    2   35 2
     3    3    6 2
     4    4   28 2
     5    5   29 1
     6    6   32 1
     7    7    8 1
     8    9   10 1
     9   11    9 ar
    10   12   11 1
    11   13   11 ar
    12   14   13 1
    13   15   13 ar
    14   16   15 1
    15   17   18 1
    16   19   17 1
    17   20   17 1
    18   21    9 ar
    19   22   21 1
    20   23   24 1
    21   25   26 1
    22   27    7 1
    23   28    7 1
    24   29   30 1
    25   31   29 1
    26   32   23 ar
    27   33   23 ar
    28   34   33 1
    29   35    5 1
    30   36   25 ar
    31   37   36 1
    32   38   17 1
    33   39   38 1
    34   40   29 1
    35   15   27 ar
    36   21   27 ar
    37   25   32 ar
    38   28   38 1
    39   33   40 ar
    40   35   38 1
    41   36   40 ar
@<TRIPOS>SUBSTRUCTURE
     1 RES1 1

@<TRIPOS>CRYSIN
  15.8670    4.8820   21.1410  90.0000 101.4600  90.0000  14 1

