# MOL2 file generated by ConQuest
# Please check atom types

@<TRIPOS>MOLECULE
SEZWIE
    34    36     1
SMALL
NO_CHARGES
****
Generated from CSD

@<TRIPOS>ATOM
      1 O1         2.1356    9.1642    4.7567 O.3       1 RES1    0.0000
      2 O2         3.4571   10.1489    6.2199 O.2       1 RES1    0.0000
      3 O3         4.0619   12.8670    5.8049 O.2       1 RES1    0.0000
      4 O4         3.3411   13.6570    3.8101 O.3       1 RES1    0.0000
      5 O5        -1.0090    6.9629    1.9363 O.3       1 RES1    0.0000
      6 O6         2.1930   15.9349    4.9407 O.2       1 RES1    0.0000
      7 O7         6.0614   14.0973    3.3784 O.2       1 RES1    0.0000
      8 N1         4.0241   14.8132    4.1488 N.am      1 RES1    0.0000
      9 C1         2.8058   10.2919    5.2188 C.2       1 RES1    0.0000
     10 C2         2.6579   11.4968    4.4097 C.2       1 RES1    0.0000
     11 C3         1.8461   11.5014    3.3175 C.2       1 RES1    0.0000
     12 H1         1.7770   12.2897    2.7923 H         1 RES1    0.0000
     13 C4         1.1008   10.3529    2.9474 C.ar      1 RES1    0.0000
     14 C5         0.1817   10.3325    1.8834 C.ar      1 RES1    0.0000
     15 H2         0.0432   11.1142    1.3625 H         1 RES1    0.0000
     16 C6        -0.5113    9.1943    1.5969 C.ar      1 RES1    0.0000
     17 H3        -1.1516    9.1945    0.8952 H         1 RES1    0.0000
     18 C7        -0.2836    8.0281    2.3327 C.ar      1 RES1    0.0000
     19 C8         0.6263    8.0077    3.3857 C.ar      1 RES1    0.0000
     20 H4         0.7885    7.2145    3.8836 H         1 RES1    0.0000
     21 C9         1.2859    9.1848    3.6798 C.ar      1 RES1    0.0000
     22 C10       -0.7599    5.7100    2.5689 C.3       1 RES1    0.0000
     23 H5        -1.3639    5.0325    2.1997 H         1 RES1    0.0000
     24 H6        -0.9136    5.7941    3.5332 H         1 RES1    0.0000
     25 H7         0.1684    5.4425    2.4086 H         1 RES1    0.0000
     26 C11        3.4267   12.6830    4.8129 C.2       1 RES1    0.0000
     27 C12        3.3698   15.9189    4.6578 C.2       1 RES1    0.0000
     28 C13        4.4010   17.0016    4.7422 C.3       1 RES1    0.0000
     29 H8         4.4577   17.3591    5.6630 H         1 RES1    0.0000
     30 H9         4.1809   17.7438    4.1240 H         1 RES1    0.0000
     31 C14        5.7194   16.3349    4.3389 C.3       1 RES1    0.0000
     32 H10        6.1582   16.8481    3.6142 H         1 RES1    0.0000
     33 H11        6.3346   16.2904    5.1131 H         1 RES1    0.0000
     34 C15        5.3734   14.9567    3.8666 C.2       1 RES1    0.0000
@<TRIPOS>BOND
     1    1    9 1
     2    2    9 2
     3    3   26 2
     4    4    8 1
     5    5   18 1
     6    6   27 2
     7    7   34 2
     8    8   27 1
     9    9   10 1
    10   10   11 2
    11   11   12 1
    12   13   11 1
    13   14   13 ar
    14   15   14 1
    15   16   14 ar
    16   17   16 1
    17   18   16 ar
    18   19   18 ar
    19   20   19 1
    20   21    1 1
    21   22    5 1
    22   23   22 1
    23   24   22 1
    24   25   22 1
    25   26    4 1
    26   27   28 1
    27   28   29 1
    28   30   28 1
    29   31   28 1
    30   32   31 1
    31   33   31 1
    32   34    8 1
    33   10   26 1
    34   13   21 ar
    35   19   21 ar
    36   31   34 1
@<TRIPOS>SUBSTRUCTURE
     1 RES1 1

@<TRIPOS>CRYSIN
   8.4164   19.4304    8.5521  90.0000  94.4750  90.0000  14 1

