# MOL2 file generated by ConQuest
# Please check atom types

@<TRIPOS>MOLECULE
SEZXIG
   112    92     2
SMALL
NO_CHARGES
****
Generated from CSD

@<TRIPOS>ATOM
      1 O1         5.6243   -3.8963    9.3719 O.2       1 RES1    0.0000
      2 N1         5.5787   -3.1497   10.3319 N.pl3     1 RES1    0.0000
      3 C1         5.2666   -1.7123   10.1044 C.ar      1 RES1    0.0000
      4 H1         4.7259    2.5162    7.4890 H         1 RES1    0.0000
      5 O2         5.7924   -3.5514   11.4565 O.2       1 RES1    0.0000
      6 C2         4.7504   -0.8967   11.1311 C.ar      1 RES1    0.0000
      7 C3         4.4808    0.4413   10.8111 C.ar      1 RES1    0.0000
      8 H2         4.1568    1.0166   11.4938 H         1 RES1    0.0000
      9 C4         4.6717    0.9711    9.5129 C.ar      1 RES1    0.0000
     10 C5         5.1676    0.1135    8.4926 C.ar      1 RES1    0.0000
     11 C6         5.4707   -1.2243    8.8016 C.ar      1 RES1    0.0000
     12 H3         5.8141   -1.7997    8.1284 H         1 RES1    0.0000
     13 O3         3.8648    3.0573   10.3793 O.2       1 RES1    0.0000
     14 N2         4.4188    3.0321    8.1382 N.am      1 RES1    0.0000
     15 C7         4.2838    2.4517    9.3814 C.2       1 RES1    0.0000
     16 C8         4.0663    4.3567    7.7668 C.ar      1 RES1    0.0000
     17 C9         3.5023    5.3161    8.6419 C.ar      1 RES1    0.0000
     18 H4         3.3325    5.0920    9.5484 H         1 RES1    0.0000
     19 C10        3.1949    6.5965    8.1666 C.ar      1 RES1    0.0000
     20 H5         2.8076    7.2340    8.7549 H         1 RES1    0.0000
     21 C11        3.4495    6.9505    6.8344 C.ar      1 RES1    0.0000
     22 C12        3.9949    6.0000    5.9417 C.ar      1 RES1    0.0000
     23 H6         4.1566    6.2351    5.0361 H         1 RES1    0.0000
     24 C13        4.2974    4.7068    6.3991 C.ar      1 RES1    0.0000
     25 O4         4.8486    3.6941    5.6295 O.3       1 RES1    0.0000
     26 C14        4.8670    3.8389    4.1625 C.3       1 RES1    0.0000
     27 H7         5.2055    4.7481    3.9212 H         1 RES1    0.0000
     28 C15        3.4551    3.6588    3.6110 C.3       1 RES1    0.0000
     29 H8         3.1249    2.7659    3.8457 H         1 RES1    0.0000
     30 H9         3.4705    3.7542    2.6361 H         1 RES1    0.0000
     31 H10        2.8645    4.3390    3.9967 H         1 RES1    0.0000
     32 C16        5.8432    2.7813    3.6549 C.3       1 RES1    0.0000
     33 H11        6.7007    2.8778    4.1204 H         1 RES1    0.0000
     34 H12        5.9795    2.8985    2.6907 H         1 RES1    0.0000
     35 H13        5.4770    1.8890    3.8264 H         1 RES1    0.0000
     36 C17        3.1614    8.3427    6.3405 C.2       1 RES1    0.0000
     37 O5         2.7258    9.2566    7.0698 O.2       1 RES1    0.0000
     38 O6         3.3247    8.5945    5.0088 O.3       1 RES1    0.0000
     39 C18        3.1127    9.9487    4.4947 C.3       1 RES1    0.0000
     40 H14        2.1632   10.1796    4.5718 H         1 RES1    0.0000
     41 H15        3.3831    9.9877    3.5534 H         1 RES1    0.0000
     42 H16        3.6464   10.5843    5.0152 H         1 RES1    0.0000
     43 O7         4.4810   -1.4704   12.3590 O.3       1 RES1    0.0000
     44 C19        3.9548   -0.6130   13.3935 C.3       1 RES1    0.0000
     45 H17        3.5594   -1.1995   14.0865 H         1 RES1    0.0000
     46 H18        3.2095   -0.0981   12.9958 H         1 RES1    0.0000
     47 C20        5.0637    0.2427   13.9917 C.ar      1 RES1    0.0000
     48 C21        6.4478   -0.1369   13.9532 C.ar      1 RES1    0.0000
     49 H19        6.6973   -0.9198   13.4745 H         1 RES1    0.0000
     50 C22        7.4262    0.6005   14.5877 C.ar      1 RES1    0.0000
     51 H20        8.3262    0.3020   14.5331 H         1 RES1    0.0000
     52 C23        7.1616    1.7333   15.2881 C.ar      1 RES1    0.0000
     53 C24        8.2730    2.4094   16.0062 C.ar      1 RES1    0.0000
     54 H21        9.1588    2.0671   16.0319 H         1 RES1    0.0000
     55 C25        7.9015    3.5711   16.6327 C.ar      1 RES1    0.0000
     56 H22        8.5794    4.0585   17.0857 H         1 RES1    0.0000
     57 C26        6.6274    4.0887   16.6568 C.ar      1 RES1    0.0000
     58 H23        6.4421    4.9031   17.1114 H         1 RES1    0.0000
     59 C27        5.6406    3.4243   16.0238 C.ar      1 RES1    0.0000
     60 H24        4.7714    3.8062   16.0672 H         1 RES1    0.0000
     61 C28        5.7615    2.2613   15.3283 C.ar      1 RES1    0.0000
     62 C29        4.7677    1.4326   14.6247 C.ar      1 RES1    0.0000
     63 H25        3.8672    1.7343   14.6070 H         1 RES1    0.0000
     64 O8         5.3385    0.6516    7.2265 O.3       1 RES1    0.0000
     65 C30        5.7284   -0.2338    6.1361 C.3       1 RES1    0.0000
     66 H26        6.4665   -0.8185    6.4417 H         1 RES1    0.0000
     67 H27        6.0654    0.3104    5.3814 H         1 RES1    0.0000
     68 C31        4.5744   -1.0999    5.6505 C.3       1 RES1    0.0000
     69 H28        4.9168   -1.8145    5.0569 H         1 RES1    0.0000
     70 H29        4.1267   -1.5271    6.4224 H         1 RES1    0.0000
     71 O9         3.6374   -0.2798    4.9374 O.3       1 RES1    0.0000
     72 C32        2.4674   -1.0223    4.5619 C.3       1 RES1    0.0000
     73 H30        1.9821   -1.3177    5.3718 H         1 RES1    0.0000
     74 H31        2.7300   -1.8255    4.0465 H         1 RES1    0.0000
     75 C33        1.5655   -0.1356    3.7140 C.3       1 RES1    0.0000
     76 H32        0.6632   -0.5375    3.6497 H         1 RES1    0.0000
     77 H33        1.4800    0.7568    4.1333 H         1 RES1    0.0000
     78 O10        2.1374   -0.0064    2.4022 O.3       1 RES1    0.0000
     79 C34        1.3778    0.8422    1.5225 C.3       1 RES1    0.0000
     80 H34        1.3986    1.7765    1.8458 H         1 RES1    0.0000
     81 H35        0.4352    0.5414    1.4859 H         1 RES1    0.0000
     82 C35        2.0173    0.7440    0.1435 C.3       1 RES1    0.0000
     83 H36        2.9622    1.0346    0.1928 H         1 RES1    0.0000
     84 H37        2.0006   -0.1968   -0.1655 H         1 RES1    0.0000
     85 O11        1.3153    1.5609   -0.7796 O.3       1 RES1    0.0000
     86 C36        1.8227    1.4129   -2.1354 C.3       1 RES1    0.0000
     87 H38        2.7900    1.5721   -2.1413 H         1 RES1    0.0000
     88 H39        1.3811    2.0624   -2.7228 H         1 RES1    0.0000
     89 H40        1.6393    0.5055   -2.4562 H         1 RES1    0.0000
     90 O12        3.4722    8.6526    5.1935 Du        2 SUP2    0.0000
     91 O13        2.6490    9.1282    7.2818 Du        2 SUP2    0.0000
     92 C37        2.5134   10.5101    6.9027 Du        2 SUP2    0.0000
     93 H41        3.3997   10.9275    6.8641 Du        2 SUP2    0.0000
     94 H42        1.9604   10.9761    7.5629 Du        2 SUP2    0.0000
     95 H43        2.0878   10.5664    6.0208 Du        2 SUP2    0.0000
     96 C38        4.8725    0.3979   14.1186 Du        2 SUP2    0.0000
     97 C39        6.1815    0.0369   14.1106 Du        2 SUP2    0.0000
     98 H44        6.4581   -0.7560   13.6672 Du        2 SUP2    0.0000
     99 C40        7.1311    0.8572   14.7708 Du        2 SUP2    0.0000
    100 H45        8.0354    0.5777   14.7949 Du        2 SUP2    0.0000
    101 C41        6.8004    2.0047   15.3572 Du        2 SUP2    0.0000
    102 C42        7.7700    2.8493   16.0190 Du        2 SUP2    0.0000
    103 H46        8.6999    2.6615   15.9740 Du        2 SUP2    0.0000
    104 C43        7.2803    3.9601   16.7355 Du        2 SUP2    0.0000
    105 H47        7.8750    4.4959   17.2479 Du        2 SUP2    0.0000
    106 C44        5.9156    4.2742   16.6905 Du        2 SUP2    0.0000
    107 H48        5.6038    5.0625   17.1178 Du        2 SUP2    0.0000
    108 C45        5.0132    3.4546   16.0319 Du        2 SUP2    0.0000
    109 H49        4.0874    3.6616   16.0768 Du        2 SUP2    0.0000
    110 C46        5.4090    2.3631   15.3218 Du        2 SUP2    0.0000
    111 C47        4.3914    1.5646   14.6134 Du        2 SUP2    0.0000
    112 H50        3.4919    1.8406   14.5122 Du        2 SUP2    0.0000
@<TRIPOS>BOND
     1    1    2 2
     2    2    3 1
     3    3    6 ar
     4    4   14 1
     5    5    2 2
     6    6    7 ar
     7    7    8 1
     8    9    7 ar
     9   10    9 ar
    10   11    3 ar
    11   12   11 1
    12   13   15 2
    13   14   15 1
    14   15    9 1
    15   16   14 1
    16   17   16 ar
    17   18   17 1
    18   19   17 ar
    19   20   19 1
    20   21   19 ar
    21   22   21 ar
    22   23   22 1
    23   24   16 ar
    24   25   24 1
    25   26   25 1
    26   27   26 1
    27   28   26 1
    28   29   28 1
    29   30   28 1
    30   31   28 1
    31   32   26 1
    32   33   32 1
    33   34   32 1
    34   35   32 1
    35   36   21 1
    36   37   36 2
    37   38   36 1
    38   39   38 1
    39   40   39 1
    40   41   39 1
    41   42   39 1
    42   43    6 1
    43   44   43 1
    44   45   44 1
    45   46   44 1
    46   47   44 1
    47   48   47 ar
    48   49   48 1
    49   50   48 ar
    50   51   50 1
    51   52   50 ar
    52   53   52 ar
    53   54   53 1
    54   55   53 ar
    55   56   55 1
    56   57   55 ar
    57   58   57 1
    58   59   57 ar
    59   60   59 1
    60   61   52 ar
    61   62   47 ar
    62   63   62 1
    63   64   10 1
    64   65   64 1
    65   66   65 1
    66   67   65 1
    67   68   65 1
    68   69   68 1
    69   70   68 1
    70   71   68 1
    71   72   71 1
    72   73   72 1
    73   74   72 1
    74   75   72 1
    75   76   75 1
    76   77   75 1
    77   78   75 1
    78   79   78 1
    79   80   79 1
    80   81   79 1
    81   82   79 1
    82   83   82 1
    83   84   82 1
    84   85   82 1
    85   86   85 1
    86   87   86 1
    87   88   86 1
    88   89   86 1
    89   10   11 ar
    90   22   24 ar
    91   59   61 ar
    92   61   62 ar
@<TRIPOS>SUBSTRUCTURE
     1 RES1 1
     2 SUP2 90

@<TRIPOS>CRYSIN
   7.4105   14.7799   17.7449 113.7710  96.5180  92.9140   2 1

