# MOL2 file generated by ConQuest
# Please check atom types

@<TRIPOS>MOLECULE
SEZXEC
   117   122     1
SMALL
NO_CHARGES
****
Generated from CSD

@<TRIPOS>ATOM
      1 C1        -8.4373    7.3143    5.4826 C.ar      1 RES1    0.0000
      2 C2        -7.7039    6.8510    6.6201 C.ar      1 RES1    0.0000
      3 C3        -6.3802    6.4422    6.4241 C.ar      1 RES1    0.0000
      4 H1        -5.8697    6.1233    7.1585 H         1 RES1    0.0000
      5 C4        -5.8001    6.5021    5.1394 C.ar      1 RES1    0.0000
      6 C5        -6.5437    6.9173    4.0492 C.ar      1 RES1    0.0000
      7 H2        -6.1552    6.9312    3.1820 H         1 RES1    0.0000
      8 C6        -7.8814    7.3218    4.2321 C.ar      1 RES1    0.0000
      9 H3        -8.3990    7.6001    3.4863 H         1 RES1    0.0000
     10 O1        -3.8903    6.4754    3.7796 O.2       1 RES1    0.0000
     11 N1        -3.6794    5.4844    5.8227 N.am      1 RES1    0.0000
     12 H4        -4.1122    5.3196    6.5711 H         1 RES1    0.0000
     13 C7        -4.3836    6.1383    4.8364 C.2       1 RES1    0.0000
     14 C8        -2.3426    5.0510    5.7627 C.ar      1 RES1    0.0000
     15 C9        -1.7888    4.5320    6.9540 C.ar      1 RES1    0.0000
     16 C10       -0.5024    4.1200    6.9793 C.ar      1 RES1    0.0000
     17 H5        -0.1261    3.8193    7.7966 H         1 RES1    0.0000
     18 C11        0.3017    4.1286    5.7986 C.ar      1 RES1    0.0000
     19 C12       -0.2845    4.6133    4.6260 C.ar      1 RES1    0.0000
     20 C13       -1.5678    5.0799    4.6319 C.ar      1 RES1    0.0000
     21 H6        -1.9340    5.4352    3.8286 H         1 RES1    0.0000
     22 O2         2.0692    3.2275    7.1048 O.2       1 RES1    0.0000
     23 N2         2.5091    3.5550    4.8732 N.am      1 RES1    0.0000
     24 H7         2.1600    3.8567    4.1244 H         1 RES1    0.0000
     25 C14        1.6889    3.5978    5.9833 C.2       1 RES1    0.0000
     26 C15        3.8156    3.0937    4.7954 C.ar      1 RES1    0.0000
     27 C16        4.5703    2.6122    5.8705 C.ar      1 RES1    0.0000
     28 H8         4.1798    2.5790    6.7359 H         1 RES1    0.0000
     29 C17        5.8768    2.1820    5.6960 C.ar      1 RES1    0.0000
     30 H9         6.3732    1.8545    6.4359 H         1 RES1    0.0000
     31 O3       -10.4349    7.9949    4.6023 O.2       1 RES1    0.0000
     32 C18        6.4609    2.2312    4.4286 C.ar      1 RES1    0.0000
     33 C19        5.7325    2.7342    3.3502 C.ar      1 RES1    0.0000
     34 H10        6.1371    2.7920    2.4932 H         1 RES1    0.0000
     35 C20        4.4290    3.1473    3.5218 C.ar      1 RES1    0.0000
     36 O4         3.5977    3.6042    2.5194 O.3       1 RES1    0.0000
     37 C21        4.1183    3.6181    1.1439 C.3       1 RES1    0.0000
     38 H11        4.7065    2.8219    1.0015 H         1 RES1    0.0000
     39 C22        4.9183    4.8798    0.9170 C.3       1 RES1    0.0000
     40 H12        4.3090    5.6460    0.8536 H         1 RES1    0.0000
     41 H13        5.4288    4.7985    0.0845 H         1 RES1    0.0000
     42 H14        5.5348    5.0146    1.6692 H         1 RES1    0.0000
     43 C23        2.8541    3.4897    0.2569 C.3       1 RES1    0.0000
     44 H15        2.3215    2.7235    0.5578 H         1 RES1    0.0000
     45 H16        3.1225    3.3570   -0.6761 H         1 RES1    0.0000
     46 H17        2.3194    4.3083    0.3296 H         1 RES1    0.0000
     47 O5         8.4061    1.8513    3.1047 O.2       1 RES1    0.0000
     48 C24        7.8401    1.7593    4.1730 C.2       1 RES1    0.0000
     49 O6         8.4041    1.1911    5.2472 O.3       1 RES1    0.0000
     50 C25        9.7328    0.6453    5.0456 C.3       1 RES1    0.0000
     51 H18        9.7116   -0.0021    4.3103 H         1 RES1    0.0000
     52 H19       10.0304    0.1969    5.8654 H         1 RES1    0.0000
     53 H20       10.3542    1.3698    4.8259 H         1 RES1    0.0000
     54 O7        -8.3496    6.7761    7.8067 O.3       1 RES1    0.0000
     55 N3        -9.7963    7.8376    5.6372 N.pl3     1 RES1    0.0000
     56 C26       -7.7604    6.1201    8.9076 C.3       1 RES1    0.0000
     57 H21       -6.9099    6.5663    9.1489 H         1 RES1    0.0000
     58 H22       -7.5616    5.1794    8.6713 H         1 RES1    0.0000
     59 C27       -8.7057    6.1661   10.0667 C.ar      1 RES1    0.0000
     60 C28       -9.8407    6.9644   10.0464 C.ar      1 RES1    0.0000
     61 H23      -10.0556    7.4663    9.2672 H         1 RES1    0.0000
     62 C29      -10.6609    7.0308   11.1595 C.ar      1 RES1    0.0000
     63 H24      -11.4166    7.6065   11.1519 H         1 RES1    0.0000
     64 C30      -10.3956    6.2742   12.2730 C.ar      1 RES1    0.0000
     65 H25      -10.9555    6.3320   13.0408 H         1 RES1    0.0000
     66 C31       -9.3413    5.4545   12.2658 C.ar      1 RES1    0.0000
     67 H26       -9.1829    4.9012   13.0239 H         1 RES1    0.0000
     68 C32       -8.4464    5.3838   11.1650 C.ar      1 RES1    0.0000
     69 H27       -7.6898    4.8102   11.1857 H         1 RES1    0.0000
     70 O8        -2.6615    4.4978    8.0273 O.3       1 RES1    0.0000
     71 C33       -2.2075    3.8086    9.2097 C.3       1 RES1    0.0000
     72 H28       -1.5254    4.3544    9.6771 H         1 RES1    0.0000
     73 H29       -1.7948    2.9450    8.9587 H         1 RES1    0.0000
     74 C34       -3.3566    3.5721   10.1073 C.ar      1 RES1    0.0000
     75 O9       -10.2241    8.1619    6.7110 O.2       1 RES1    0.0000
     76 C35       -4.4169    2.6871    9.7151 C.ar      1 RES1    0.0000
     77 H30       -4.3897    2.2869    8.8531 H         1 RES1    0.0000
     78 C36       -5.4641    2.4046   10.5451 C.ar      1 RES1    0.0000
     79 H31       -6.1532    1.8160   10.2602 H         1 RES1    0.0000
     80 C37       -5.5186    3.0092   11.8698 C.ar      1 RES1    0.0000
     81 C38       -6.5931    2.7031   12.7484 C.ar      1 RES1    0.0000
     82 H32       -7.2943    2.1146   12.4915 H         1 RES1    0.0000
     83 C39       -6.5709    3.3163   14.0297 C.ar      1 RES1    0.0000
     84 H33       -7.2731    3.1344   14.6424 H         1 RES1    0.0000
     85 C40       -5.5428    4.1778   14.4096 C.ar      1 RES1    0.0000
     86 H34       -5.5418    4.5534   15.2805 H         1 RES1    0.0000
     87 C41       -4.5420    4.4871   13.5437 C.ar      1 RES1    0.0000
     88 H35       -3.8812    5.1195   13.8015 H         1 RES1    0.0000
     89 C42       -4.4664    3.8824   12.2650 C.ar      1 RES1    0.0000
     90 C43       -3.4020    4.1425   11.3480 C.ar      1 RES1    0.0000
     91 H36       -2.7038    4.7310   11.6083 H         1 RES1    0.0000
     92 O10        0.5004    4.6155    3.4706 O.3       1 RES1    0.0000
     93 C44       -0.1776    4.6519    2.1919 C.3       1 RES1    0.0000
     94 H37       -1.0785    4.2559    2.2946 H         1 RES1    0.0000
     95 H38        0.3249    4.0943    1.5466 H         1 RES1    0.0000
     96 C45       -0.3178    6.0484    1.6274 C.3       1 RES1    0.0000
     97 H39       -0.8616    6.0195    0.7987 H         1 RES1    0.0000
     98 H40       -0.7829    6.6273    2.2819 H         1 RES1    0.0000
     99 O11        0.9574    6.5845    1.3400 O.3       1 RES1    0.0000
    100 O12        0.1574    7.0350   -1.3565 O.3       1 RES1    0.0000
    101 C46        0.9574    7.8280    0.6381 C.3       1 RES1    0.0000
    102 H41        1.5194    8.4904    1.1114 H         1 RES1    0.0000
    103 H42        0.0373    8.1854    0.5705 H         1 RES1    0.0000
    104 C47        1.5133    7.5583   -0.7437 C.3       1 RES1    0.0000
    105 H43        2.2246    6.8660   -0.7395 H         1 RES1    0.0000
    106 H44        1.8453    8.3791   -1.1874 H         1 RES1    0.0000
    107 C48        0.4046    6.0676   -2.3876 C.3       1 RES1    0.0000
    108 H45        0.8202    5.2479   -2.0199 H         1 RES1    0.0000
    109 H46        0.9907    6.4390   -3.0933 H         1 RES1    0.0000
    110 C49       -1.0059    5.7819   -2.9285 C.3       1 RES1    0.0000
    111 H47       -1.4346    6.6327   -3.1989 H         1 RES1    0.0000
    112 H48       -0.9413    5.2030   -3.7272 H         1 RES1    0.0000
    113 O13       -1.7343    5.1944   -2.0242 O.3       1 RES1    0.0000
    114 C50       -2.9762    4.7942   -2.4129 C.3       1 RES1    0.0000
    115 H49       -3.4312    4.3651   -1.6607 H         1 RES1    0.0000
    116 H50       -2.8915    4.1500   -3.1524 H         1 RES1    0.0000
    117 H51       -3.4908    5.5679   -2.7130 H         1 RES1    0.0000
@<TRIPOS>BOND
     1    1    2 ar
     2    2    3 ar
     3    3    4 1
     4    5    3 ar
     5    6    5 ar
     6    7    6 1
     7    8    1 ar
     8    9    8 1
     9   10   13 2
    10   11   12 1
    11   13    5 1
    12   14   11 1
    13   15   14 ar
    14   16   15 ar
    15   17   16 1
    16   18   16 ar
    17   19   18 ar
    18   20   14 ar
    19   21   20 1
    20   22   25 2
    21   23   24 1
    22   25   18 1
    23   26   23 1
    24   27   26 ar
    25   28   27 1
    26   29   27 ar
    27   30   29 1
    28   31   55 2
    29   32   29 ar
    30   33   32 ar
    31   34   33 1
    32   35   26 ar
    33   36   35 1
    34   37   36 1
    35   38   37 1
    36   39   37 1
    37   40   39 1
    38   41   39 1
    39   42   39 1
    40   43   37 1
    41   44   43 1
    42   45   43 1
    43   46   43 1
    44   47   48 2
    45   48   32 1
    46   49   48 1
    47   50   49 1
    48   51   50 1
    49   52   50 1
    50   53   50 1
    51   54    2 1
    52   55    1 1
    53   56   54 1
    54   57   56 1
    55   58   56 1
    56   59   56 1
    57   60   59 ar
    58   61   60 1
    59   62   60 ar
    60   63   62 1
    61   64   62 ar
    62   65   64 1
    63   66   64 ar
    64   67   66 1
    65   68   59 ar
    66   69   68 1
    67   70   15 1
    68   71   70 1
    69   72   71 1
    70   73   71 1
    71   74   71 1
    72   75   55 2
    73   76   74 ar
    74   77   76 1
    75   78   76 ar
    76   79   78 1
    77   80   78 ar
    78   81   80 ar
    79   82   81 1
    80   83   81 ar
    81   84   83 1
    82   85   83 ar
    83   86   85 1
    84   87   85 ar
    85   88   87 1
    86   89   80 ar
    87   90   74 ar
    88   91   90 1
    89   92   19 1
    90   93   92 1
    91   94   93 1
    92   95   93 1
    93   96   93 1
    94   97   96 1
    95   98   96 1
    96   99   96 1
    97  100  104 1
    98  101   99 1
    99  102  101 1
   100  103  101 1
   101  104  101 1
   102  105  104 1
   103  106  104 1
   104  107  100 1
   105  108  107 1
   106  109  107 1
   107  110  107 1
   108  111  110 1
   109  112  110 1
   110  113  110 1
   111  114  113 1
   112  115  114 1
   113  116  114 1
   114  117  114 1
   115    6    8 ar
   116   11   13 1
   117   19   20 ar
   118   23   25 1
   119   33   35 ar
   120   66   68 ar
   121   87   89 ar
   122   89   90 ar
@<TRIPOS>SUBSTRUCTURE
     1 RES1 1

@<TRIPOS>CRYSIN
  10.0889   10.7013   42.2580  90.0000  90.0000  90.0000  19 1

