# MOL2 file generated by ConQuest
# Please check atom types

@<TRIPOS>MOLECULE
SIBFOZ
    52    54     1
SMALL
NO_CHARGES
****
Generated from CSD

@<TRIPOS>ATOM
      1 C1         8.6420    3.0145    7.7549 C.3       1 RES1    0.0000
      2 C2         8.7050    1.5251    8.0625 C.3       1 RES1    0.0000
      3 H1         9.2774    1.0950    7.4087 H         1 RES1    0.0000
      4 H2         7.8154    1.1489    7.9698 H         1 RES1    0.0000
      5 C3         9.2296    1.2089    9.4629 C.3       1 RES1    0.0000
      6 H3        10.1487    1.5423    9.5338 H         1 RES1    0.0000
      7 C4         8.3725    1.9287   10.4983 C.3       1 RES1    0.0000
      8 H4         7.4727    1.5657   10.4780 H         1 RES1    0.0000
      9 H5         8.7385    1.7721   11.3835 H         1 RES1    0.0000
     10 C5         8.3176    3.4242   10.2330 C.3       1 RES1    0.0000
     11 H6         9.2083    3.7974   10.3234 H         1 RES1    0.0000
     12 H7         7.7493    3.8462   10.8963 H         1 RES1    0.0000
     13 C6         7.7778    3.7394    8.8279 C.3       1 RES1    0.0000
     14 H8         6.8953    3.3155    8.7846 H         1 RES1    0.0000
     15 C7         9.2408   -0.3030    9.7161 C.3       1 RES1    0.0000
     16 H9         8.3451   -0.6426    9.6581 H         1 RES1    0.0000
     17 H10        9.5946   -0.4778   10.5905 H         1 RES1    0.0000
     18 H11        9.7888   -0.7341    9.0567 H         1 RES1    0.0000
     19 C8         7.5236    5.2431    8.6130 C.3       1 RES1    0.0000
     20 H12        7.5622    5.4149    7.6489 H         1 RES1    0.0000
     21 C9         8.5515    6.1602    9.2902 C.3       1 RES1    0.0000
     22 H13        8.4142    7.0640    8.9996 H         1 RES1    0.0000
     23 H14        9.4380    5.8786    9.0500 H         1 RES1    0.0000
     24 H15        8.4467    6.1104   10.2428 H         1 RES1    0.0000
     25 C10        6.1083    5.6020    9.0903 C.3       1 RES1    0.0000
     26 H16        6.0117    5.3590   10.0143 H         1 RES1    0.0000
     27 H17        5.4627    5.1242    8.5645 H         1 RES1    0.0000
     28 H18        5.9670    6.5455    8.9912 H         1 RES1    0.0000
     29 C11        6.7712    2.7512    5.9723 C.3       1 RES1    0.0000
     30 H19        6.8871    2.0649    5.3121 H         1 RES1    0.0000
     31 H20        6.2659    3.4761    5.5960 H         1 RES1    0.0000
     32 H21        6.3005    2.3923    6.7283 H         1 RES1    0.0000
     33 C12        8.7528    4.1512    5.7006 C.2       1 RES1    0.0000
     34 C13        9.9840    4.5589    6.5047 C.3       1 RES1    0.0000
     35 H22        9.9281    5.4973    6.7787 H         1 RES1    0.0000
     36 C14       11.2803    4.2874    5.7541 C.3       1 RES1    0.0000
     37 H23       11.1898    4.4765    4.8064 H         1 RES1    0.0000
     38 H24       12.0164    4.8059    6.1168 H         1 RES1    0.0000
     39 C15       11.4643    2.8112    6.0087 C.3       1 RES1    0.0000
     40 H25       10.8899    2.2947    5.4061 H         1 RES1    0.0000
     41 C16       12.9029    2.3089    5.9130 C.3       1 RES1    0.0000
     42 H26       12.9436    1.4030    6.2848 H         1 RES1    0.0000
     43 C17       13.3655    2.2622    4.4687 C.3       1 RES1    0.0000
     44 H27       12.7606    1.7213    3.9563 H         1 RES1    0.0000
     45 H28       14.2470    1.8850    4.4267 H         1 RES1    0.0000
     46 H29       13.3818    3.1528    4.1075 H         1 RES1    0.0000
     47 O1         8.4620    4.6057    4.5895 O.2       1 RES1    0.0000
     48 O2        11.0261    2.6414    7.3685 O.3       1 RES1    0.0000
     49 O3        13.7743    3.1386    6.6492 O.3       1 RES1    0.0000
     50 H30       13.9878    2.7624    7.3448 H         1 RES1    0.0000
     51 N1         8.0828    3.2423    6.4020 N.am      1 RES1    0.0000
     52 N2        10.0003    3.6591    7.6889 N.3       1 RES1    0.0000
@<TRIPOS>BOND
     1    1    2 1
     2    2    3 1
     3    4    2 1
     4    5    2 1
     5    6    5 1
     6    7    5 1
     7    8    7 1
     8    9    7 1
     9   10    7 1
    10   11   10 1
    11   12   10 1
    12   13    1 1
    13   14   13 1
    14   15    5 1
    15   16   15 1
    16   17   15 1
    17   18   15 1
    18   19   13 1
    19   20   19 1
    20   21   19 1
    21   22   21 1
    22   23   21 1
    23   24   21 1
    24   25   19 1
    25   26   25 1
    26   27   25 1
    27   28   25 1
    28   29   30 1
    29   31   29 1
    30   32   29 1
    31   33   34 1
    32   34   35 1
    33   36   34 1
    34   37   36 1
    35   38   36 1
    36   39   36 1
    37   40   39 1
    38   41   39 1
    39   42   41 1
    40   43   41 1
    41   44   43 1
    42   45   43 1
    43   46   43 1
    44   47   33 2
    45   48   39 1
    46   49   41 1
    47   50   49 1
    48   51    1 1
    49   52    1 1
    50   10   13 1
    51   29   51 1
    52   33   51 1
    53   34   52 1
    54   48   52 1
@<TRIPOS>SUBSTRUCTURE
     1 RES1 1

@<TRIPOS>CRYSIN
  10.1670   10.1670   16.7997  90.0000  90.0000  90.0000  78 1

