# MOL2 file generated by ConQuest
# Please check atom types

@<TRIPOS>MOLECULE
SIBGIU
    46    49     1
SMALL
NO_CHARGES
****
Generated from CSD

@<TRIPOS>ATOM
      1 O1         3.3506    0.9163   -0.2661 O.3       1 RES1    0.0000
      2 O2         1.8047    0.7045   -4.1741 O.2       1 RES1    0.0000
      3 N1         2.0732    0.9166    0.4673 N.3       1 RES1    0.0000
      4 N2         2.6437   -0.2167   -2.2305 N.am      1 RES1    0.0000
      5 C1         2.9742    1.1032   -1.6149 C.3       1 RES1    0.0000
      6 C2         1.7209    2.0005   -1.5542 C.3       1 RES1    0.0000
      7 H1         1.8926    2.8733   -1.9881 H         1 RES1    0.0000
      8 H2         0.9549    1.5645   -2.0050 H         1 RES1    0.0000
      9 C3         1.4410    2.1813   -0.0581 C.3       1 RES1    0.0000
     10 C4         4.1813    1.6975   -2.3189 C.3       1 RES1    0.0000
     11 H3         4.0004    1.7610   -3.2798 H         1 RES1    0.0000
     12 H4         4.9616    1.1239   -2.1704 H         1 RES1    0.0000
     13 H5         4.3604    2.5916   -1.9611 H         1 RES1    0.0000
     14 C5        -0.0449    2.1746    0.2653 C.3       1 RES1    0.0000
     15 H6        -0.4865    2.9094   -0.2104 H         1 RES1    0.0000
     16 H7        -0.1697    2.2897    1.2309 H         1 RES1    0.0000
     17 H8        -0.4363    1.3218   -0.0158 H         1 RES1    0.0000
     18 C6         2.1052    3.4379    0.4937 C.3       1 RES1    0.0000
     19 H9         1.7086    4.2283    0.0720 H         1 RES1    0.0000
     20 H10        3.0656    3.4107    0.3004 H         1 RES1    0.0000
     21 H11        1.9680    3.4815    1.4627 H         1 RES1    0.0000
     22 C7         2.3894    0.8945    1.8646 C.ar      1 RES1    0.0000
     23 C8         1.3606    0.5157    2.7305 C.ar      1 RES1    0.0000
     24 H12        0.5144    0.2629    2.3786 H         1 RES1    0.0000
     25 C9         1.5686    0.5063    4.0979 C.ar      1 RES1    0.0000
     26 H13        0.8560    0.2817    4.6840 H         1 RES1    0.0000
     27 C10        2.8144    0.8236    4.6144 C.ar      1 RES1    0.0000
     28 H14        2.9609    0.8104    5.5526 H         1 RES1    0.0000
     29 C11        3.8406    1.1596    3.7570 C.ar      1 RES1    0.0000
     30 H15        4.6992    1.3594    4.1101 H         1 RES1    0.0000
     31 C12        3.6354    1.2093    2.3836 C.ar      1 RES1    0.0000
     32 H16        4.3453    1.4576    1.8036 H         1 RES1    0.0000
     33 C13        2.1517   -0.2694   -3.5224 C.2       1 RES1    0.0000
     34 C14        2.1338   -1.7149   -3.9669 C.3       1 RES1    0.0000
     35 H17        1.2080   -2.0297   -4.1203 H         1 RES1    0.0000
     36 H18        2.6589   -1.8390   -4.7976 H         1 RES1    0.0000
     37 C15        2.7639   -2.4366   -2.8198 C.ar      1 RES1    0.0000
     38 C16        3.0594   -3.7733   -2.6499 C.ar      1 RES1    0.0000
     39 H19        2.8677   -4.4003   -3.3383 H         1 RES1    0.0000
     40 C17        3.6411   -4.1921   -1.4594 C.ar      1 RES1    0.0000
     41 H20        3.8607   -5.1081   -1.3355 H         1 RES1    0.0000
     42 C18        3.9007   -3.2804   -0.4580 C.ar      1 RES1    0.0000
     43 H21        4.2899   -3.5841    0.3533 H         1 RES1    0.0000
     44 C19        3.6076   -1.9275   -0.6049 C.ar      1 RES1    0.0000
     45 H22        3.7841   -1.3088    0.0934 H         1 RES1    0.0000
     46 C20        3.0498   -1.5154   -1.8048 C.ar      1 RES1    0.0000
@<TRIPOS>BOND
     1    1    3 1
     2    2   33 2
     3    3    9 1
     4    4    5 1
     5    5    1 1
     6    6    5 1
     7    7    6 1
     8    8    6 1
     9    9    6 1
    10   10    5 1
    11   11   10 1
    12   12   10 1
    13   13   10 1
    14   14    9 1
    15   15   14 1
    16   16   14 1
    17   17   14 1
    18   18    9 1
    19   19   18 1
    20   20   18 1
    21   21   18 1
    22   22    3 1
    23   23   22 ar
    24   24   23 1
    25   25   23 ar
    26   26   25 1
    27   27   25 ar
    28   28   27 1
    29   29   27 ar
    30   30   29 1
    31   31   22 ar
    32   32   31 1
    33   33    4 1
    34   34   33 1
    35   35   34 1
    36   36   34 1
    37   37   34 1
    38   38   37 ar
    39   39   38 1
    40   40   38 ar
    41   41   40 1
    42   42   40 ar
    43   43   42 1
    44   44   42 ar
    45   45   44 1
    46   46    4 1
    47   29   31 ar
    48   37   46 ar
    49   44   46 ar
@<TRIPOS>SUBSTRUCTURE
     1 RES1 1

@<TRIPOS>CRYSIN
  10.3210   14.4460   11.3780  90.0000  98.5540  90.0000  14 1

