# MOL2 file generated by ConQuest
# Please check atom types

@<TRIPOS>MOLECULE
SIBKAQ
    52    54     1
SMALL
NO_CHARGES
****
Generated from CSD

@<TRIPOS>ATOM
      1 C1         6.6753    2.1753    3.0688 C.3       1 RES1    0.0000
      2 C2         6.8493    2.9865    4.3387 C.3       1 RES1    0.0000
      3 H1         7.7807    3.2439    4.4128 H         1 RES1    0.0000
      4 H2         6.6438    2.4165    5.0962 H         1 RES1    0.0000
      5 C3         5.9933    4.2445    4.4378 C.3       1 RES1    0.0000
      6 H3         6.2591    4.8541    3.7189 H         1 RES1    0.0000
      7 C4         4.5262    3.8681    4.2312 C.3       1 RES1    0.0000
      8 H4         4.2291    3.3038    4.9627 H         1 RES1    0.0000
      9 H5         3.9825    4.6712    4.2291 H         1 RES1    0.0000
     10 C5         4.3507    3.1322    2.9175 C.3       1 RES1    0.0000
     11 H6         4.6159    3.7135    2.1881 H         1 RES1    0.0000
     12 H7         3.4127    2.9136    2.7985 H         1 RES1    0.0000
     13 C6         5.1766    1.8458    2.8601 C.3       1 RES1    0.0000
     14 H8         4.9078    1.3204    3.6417 H         1 RES1    0.0000
     15 C7         6.2334    4.9432    5.7693 C.3       1 RES1    0.0000
     16 H9         5.6777    5.7244    5.8246 H         1 RES1    0.0000
     17 H10        7.1553    5.2006    5.8340 H         1 RES1    0.0000
     18 H11        6.0159    4.3449    6.4882 H         1 RES1    0.0000
     19 C8         4.8535    0.9658    1.6257 C.3       1 RES1    0.0000
     20 H12        5.6290    0.3878    1.4723 H         1 RES1    0.0000
     21 C9         3.6637    0.0502    1.9408 C.3       1 RES1    0.0000
     22 H13        2.8916    0.5853    2.1360 H         1 RES1    0.0000
     23 H14        3.8742   -0.4979    2.7005 H         1 RES1    0.0000
     24 H15        3.4829   -0.5100    1.1822 H         1 RES1    0.0000
     25 C10        4.5937    1.7236    0.3287 C.3       1 RES1    0.0000
     26 H16        4.4979    1.0986   -0.3944 H         1 RES1    0.0000
     27 H17        5.3309    2.3113    0.1471 H         1 RES1    0.0000
     28 H18        3.7877    2.2384    0.4143 H         1 RES1    0.0000
     29 C11        7.2732   -0.0777    4.1863 C.3       1 RES1    0.0000
     30 H19        7.9205   -0.7788    4.0789 H         1 RES1    0.0000
     31 H20        7.3848    0.3303    5.0482 H         1 RES1    0.0000
     32 H21        6.3893   -0.4444    4.1175 H         1 RES1    0.0000
     33 C12        8.2103    0.7003    2.0827 C.2       1 RES1    0.0000
     34 C13        8.1057    1.8749    1.1593 C.3       1 RES1    0.0000
     35 H22        7.7318    1.6045    0.2953 H         1 RES1    0.0000
     36 C14        9.4430    2.5833    0.9725 C.3       1 RES1    0.0000
     37 H23       10.1866    1.9632    1.0372 H         1 RES1    0.0000
     38 H24        9.4844    3.0464    0.1210 H         1 RES1    0.0000
     39 C15        9.4296    3.5515    2.1297 C.3       1 RES1    0.0000
     40 H25        9.6606    3.0828    2.9582 H         1 RES1    0.0000
     41 C16       10.2963    4.7845    1.9794 C.3       1 RES1    0.0000
     42 H26       10.0477    5.2573    1.1582 H         1 RES1    0.0000
     43 C17       11.7664    4.3951    1.9106 C.3       1 RES1    0.0000
     44 H27       11.9159    3.8446    1.1384 H         1 RES1    0.0000
     45 H28       12.0061    3.9069    2.7025 H         1 RES1    0.0000
     46 H29       12.3054    5.1869    1.8480 H         1 RES1    0.0000
     47 O1         8.9199   -0.2947    1.8584 O.2       1 RES1    0.0000
     48 O2         8.0625    3.9768    2.1769 O.3       1 RES1    0.0000
     49 O3        10.1129    5.6418    3.0867 O.3       1 RES1    0.0000
     50 H30        9.6922    6.3049    2.8518 H         1 RES1    0.0000
     51 N1         7.4644    0.9172    3.1533 N.am      1 RES1    0.0000
     52 N2         7.2089    2.8456    1.8419 N.3       1 RES1    0.0000
@<TRIPOS>BOND
     1    1    2 1
     2    2    3 1
     3    4    2 1
     4    5    2 1
     5    6    5 1
     6    7    5 1
     7    8    7 1
     8    9    7 1
     9   10    7 1
    10   11   10 1
    11   12   10 1
    12   13    1 1
    13   14   13 1
    14   15    5 1
    15   16   15 1
    16   17   15 1
    17   18   15 1
    18   19   13 1
    19   20   19 1
    20   21   19 1
    21   22   21 1
    22   23   21 1
    23   24   21 1
    24   25   19 1
    25   26   25 1
    26   27   25 1
    27   28   25 1
    28   29   30 1
    29   31   29 1
    30   32   29 1
    31   33   34 1
    32   34   35 1
    33   36   34 1
    34   37   36 1
    35   38   36 1
    36   39   36 1
    37   40   39 1
    38   41   39 1
    39   42   41 1
    40   43   41 1
    41   44   43 1
    42   45   43 1
    43   46   43 1
    44   47   33 2
    45   48   39 1
    46   49   41 1
    47   50   49 1
    48   51    1 1
    49   52    1 1
    50   10   13 1
    51   29   51 1
    52   33   51 1
    53   34   52 1
    54   48   52 1
@<TRIPOS>SUBSTRUCTURE
     1 RES1 1

@<TRIPOS>CRYSIN
  10.7391    8.0956   11.0820  90.0000 109.6820  90.0000   4 1

