# MOL2 file generated by ConQuest
# Please check atom types

@<TRIPOS>MOLECULE
SIBRAZ
    16    17     1
SMALL
NO_CHARGES
****
Generated from CSD

@<TRIPOS>ATOM
      1 N1         3.0360    6.0002    4.8671 N.pl3     1 RES1    0.0000
      2 H1         3.3797    6.5603    5.4518 H         1 RES1    0.0000
      3 H2         3.1552    6.1349    4.0054 H         1 RES1    0.0000
      4 C1         2.3420    4.9574    5.2813 C.2       1 RES1    0.0000
      5 O1         1.8538    4.1052    4.3546 O.3       1 RES1    0.0000
      6 N2         1.1703    3.0736    5.0800 N.2       1 RES1    0.0000
      7 C2         1.3539    3.4459    6.3186 C.2       1 RES1    0.0000
      8 N3         2.0629    4.5973    6.5164 N.2       1 RES1    0.0000
      9 N1B       -0.8722    0.0945    8.8689 N.pl3     1 RES1    0.0000
     10 H1B       -1.2159   -0.4656    8.2842 H         1 RES1    0.0000
     11 H2B       -0.9914   -0.0402    9.7306 H         1 RES1    0.0000
     12 C1B       -0.1782    1.1373    8.4546 C.2       1 RES1    0.0000
     13 O1B        0.3100    1.9895    9.3814 O.3       1 RES1    0.0000
     14 N2B        0.9935    3.0211    8.6560 N.2       1 RES1    0.0000
     15 C2B        0.8099    2.6488    7.4174 C.2       1 RES1    0.0000
     16 N3B        0.1009    1.4974    7.2196 N.2       1 RES1    0.0000
@<TRIPOS>BOND
     1    1    2 1
     2    3    1 1
     3    4    1 1
     4    5    4 1
     5    6    5 1
     6    7    6 2
     7    8    4 2
     8    9   10 1
     9   11    9 1
    10   12    9 1
    11   13   12 1
    12   14   13 1
    13   15    7 1
    14   16   12 2
    15    7    8 1
    16   14   15 2
    17   15   16 1
@<TRIPOS>SUBSTRUCTURE
     1 RES1 1

@<TRIPOS>CRYSIN
   3.7468    6.0947   13.8269  90.0000  96.5740  90.0000  14 1

