# MOL2 file generated by ConQuest
# Please check atom types

@<TRIPOS>MOLECULE
SIBZUB
    37    41     1
SMALL
USER_CHARGES
****
Generated from CSD

@<TRIPOS>ATOM
      1 N1        -4.0813    7.9361   15.6937 N.pl3     1 RES1    1.0000
      2 O1        -3.0739    7.2002   15.9995 O.2       1 RES1   -1.0000
      3 O2        -2.1334    5.6614   11.3540 O.3       1 RES1    0.0000
      4 C1        -4.7849    8.4783   16.6900 C.ar      1 RES1    0.0000
      5 H1        -4.5131    8.3248   17.5666 H         1 RES1    0.0000
      6 C2        -5.8941    9.2565   16.4674 C.ar      1 RES1    0.0000
      7 H2        -6.3693    9.6088   17.1853 H         1 RES1    0.0000
      8 C3        -6.2906    9.5064   15.2075 C.ar      1 RES1    0.0000
      9 H3        -7.0399   10.0338   15.0541 H         1 RES1    0.0000
     10 C4        -5.5815    8.9761   14.1307 C.ar      1 RES1    0.0000
     11 C5        -5.9737    9.2309   12.8156 C.ar      1 RES1    0.0000
     12 H4        -6.6916    9.7996   12.6533 H         1 RES1    0.0000
     13 C6        -5.3345    8.6691   11.7865 C.ar      1 RES1    0.0000
     14 H5        -5.6203    8.8305   10.9167 H         1 RES1    0.0000
     15 C7        -4.2451    7.8466   12.0163 C.ar      1 RES1    0.0000
     16 H6        -3.8324    7.4501   11.2831 H         1 RES1    0.0000
     17 C8        -3.7404    7.5849   13.2642 C.ar      1 RES1    0.0000
     18 C9        -4.4508    8.1487   14.3535 C.ar      1 RES1    0.0000
     19 C10       -2.4956    6.7476   13.3926 C.3       1 RES1    0.0000
     20 H7        -1.9788    7.0447   14.1694 H         1 RES1    0.0000
     21 C11       -2.7898    5.2314   13.5152 C.3       1 RES1    0.0000
     22 H8        -2.4922    4.8821   14.3690 H         1 RES1    0.0000
     23 H9        -3.7355    5.0445   13.4054 H         1 RES1    0.0000
     24 C12       -1.9754    4.6607   12.3700 C.3       1 RES1    0.0000
     25 H10       -2.2422    3.7595   12.0948 H         1 RES1    0.0000
     26 C13       -1.5897    6.7368   12.1427 C.3       1 RES1    0.0000
     27 H11       -1.5268    7.5967   11.6748 H         1 RES1    0.0000
     28 C14       -0.2773    6.1553   12.5580 C.ar      1 RES1    0.0000
     29 C15       -0.5218    4.8034   12.7020 C.ar      1 RES1    0.0000
     30 C16        0.4541    3.9445   13.1303 C.ar      1 RES1    0.0000
     31 H12        0.2774    3.0422   13.2699 H         1 RES1    0.0000
     32 C17        1.7220    4.4777   13.3488 C.ar      1 RES1    0.0000
     33 H13        2.4180    3.9130   13.5975 H         1 RES1    0.0000
     34 C18        1.9604    5.8050   13.2028 C.ar      1 RES1    0.0000
     35 H14        2.8158    6.1336   13.3562 H         1 RES1    0.0000
     36 C19        0.9543    6.6758   12.8322 C.ar      1 RES1    0.0000
     37 H15        1.1121    7.5908   12.7709 H         1 RES1    0.0000
@<TRIPOS>BOND
     1    1    2 1
     2    3   24 1
     3    4    1 ar
     4    5    4 1
     5    6    4 ar
     6    7    6 1
     7    8    6 ar
     8    9    8 1
     9   10    8 ar
    10   11   10 ar
    11   12   11 1
    12   13   11 ar
    13   14   13 1
    14   15   13 ar
    15   16   15 1
    16   17   15 ar
    17   18    1 ar
    18   19   17 1
    19   20   19 1
    20   21   19 1
    21   22   21 1
    22   23   21 1
    23   24   21 1
    24   25   24 1
    25   26    3 1
    26   27   26 1
    27   28   26 1
    28   29   24 1
    29   30   29 ar
    30   31   30 1
    31   32   30 ar
    32   33   32 1
    33   34   32 ar
    34   35   34 1
    35   36   28 ar
    36   37   36 1
    37   10   18 ar
    38   17   18 ar
    39   19   26 1
    40   28   29 ar
    41   34   36 ar
@<TRIPOS>SUBSTRUCTURE
     1 RES1 1

@<TRIPOS>CRYSIN
   9.3820    9.8390   15.4060  90.0000 104.8240  90.0000 231 1

