# MOL2 file generated by ConQuest
# Please check atom types

@<TRIPOS>MOLECULE
SICGAM
    39    41     1
SMALL
NO_CHARGES
****
Generated from CSD

@<TRIPOS>ATOM
      1 O1         2.2602   -0.7645   -0.2029 O.3       1 RES1    0.0000
      2 N1         2.3167   -2.1655   -0.6280 N.2       1 RES1    0.0000
      3 C1         2.8339   -2.7934    0.3591 C.2       1 RES1    0.0000
      4 N2         3.1749   -2.0014    1.4365 N.3       1 RES1    0.0000
      5 C2         3.4894   -2.4488    2.7856 C.3       1 RES1    0.0000
      6 C3         2.7567   -0.6842    1.1443 C.3       1 RES1    0.0000
      7 C4         3.9226    0.3146    1.1492 C.2       1 RES1    0.0000
      8 O2         5.0700   -0.0514    1.1065 O.2       1 RES1    0.0000
      9 N3         3.5493    1.6179    1.1045 N.am      1 RES1    0.0000
     10 C5         4.5907    2.6392    0.8794 C.3       1 RES1    0.0000
     11 C6         2.2833    2.0816    1.4598 C.2       1 RES1    0.0000
     12 O3         2.0102    3.2583    1.3802 O.2       1 RES1    0.0000
     13 N4         1.3651    1.1642    1.9480 N.am      1 RES1    0.0000
     14 C7         0.1405    1.6856    2.5789 C.3       1 RES1    0.0000
     15 C8         1.5771   -0.2018    1.9888 C.2       1 RES1    0.0000
     16 O4         0.8271   -0.9625    2.5352 O.2       1 RES1    0.0000
     17 N5         3.0470   -4.1519    0.4057 N.3       1 RES1    0.0000
     18 C9         2.3028   -4.9226   -0.6047 C.3       1 RES1    0.0000
     19 C10        2.4353   -6.3913   -0.2533 C.3       1 RES1    0.0000
     20 O5         3.7912   -6.7923   -0.2698 O.3       1 RES1    0.0000
     21 C11        4.5262   -6.0454    0.6901 C.3       1 RES1    0.0000
     22 C12        4.4628   -4.5642    0.4154 C.3       1 RES1    0.0000
     23 H1         3.7509   -3.3724    2.7633 H         1 RES1    0.0000
     24 H2         2.7141   -2.3498    3.3437 H         1 RES1    0.0000
     25 H3         4.2083   -1.9199    3.1389 H         1 RES1    0.0000
     26 H4         4.1875    3.5115    0.8716 H         1 RES1    0.0000
     27 H5         5.0204    2.4788    0.0369 H         1 RES1    0.0000
     28 H6         5.2404    2.5941    1.5850 H         1 RES1    0.0000
     29 H7         0.1117    2.6405    2.4828 H         1 RES1    0.0000
     30 H8         0.1394    1.4587    3.5116 H         1 RES1    0.0000
     31 H9        -0.6290    1.2983    2.1538 H         1 RES1    0.0000
     32 H10        1.3778   -4.6669   -0.5950 H         1 RES1    0.0000
     33 H11        2.6703   -4.7597   -1.4763 H         1 RES1    0.0000
     34 H12        1.9457   -6.9127   -0.8939 H         1 RES1    0.0000
     35 H13        2.0748   -6.5392    0.6231 H         1 RES1    0.0000
     36 H14        4.1622   -6.2159    1.5617 H         1 RES1    0.0000
     37 H15        5.4444   -6.3262    0.6658 H         1 RES1    0.0000
     38 H16        4.8614   -4.3749   -0.4368 H         1 RES1    0.0000
     39 H17        4.9340   -4.0867    1.1026 H         1 RES1    0.0000
@<TRIPOS>BOND
     1    1    2 1
     2    2    3 2
     3    3    4 1
     4    4    5 1
     5    5   23 1
     6    6    1 1
     7    7    6 1
     8    8    7 2
     9    9    7 1
    10   10    9 1
    11   11    9 1
    12   12   11 2
    13   13   11 1
    14   14   13 1
    15   15    6 1
    16   16   15 2
    17   17    3 1
    18   18   17 1
    19   19   18 1
    20   20   19 1
    21   21   20 1
    22   22   17 1
    23   24    5 1
    24   25    5 1
    25   26   10 1
    26   27   10 1
    27   28   10 1
    28   29   14 1
    29   30   14 1
    30   31   14 1
    31   32   18 1
    32   33   18 1
    33   34   19 1
    34   35   19 1
    35   36   21 1
    36   37   21 1
    37   38   22 1
    38   39   22 1
    39    4    6 1
    40   13   15 1
    41   21   22 1
@<TRIPOS>SUBSTRUCTURE
     1 RES1 1

@<TRIPOS>CRYSIN
  11.5200   12.5320    9.7060  90.0000  90.0000  90.0000  19 1

