# MOL2 file generated by ConQuest
# Please check atom types

@<TRIPOS>MOLECULE
SICPIE
    32    33     1
SMALL
NO_CHARGES
****
Generated from CSD

@<TRIPOS>ATOM
      1 O1         7.5207    7.5207    0.0000 O.2       1 RES1    0.0000
      2 N1         8.4226    8.4226    0.0000 N.3       1 RES1    0.0000
      3 C1         9.6862    8.2685    0.7607 C.3       1 RES1    0.0000
      4 C2        10.3544    9.5713    0.4186 C.ar      1 RES1    0.0000
      5 C3        11.5942   10.0055    0.8439 C.ar      1 RES1    0.0000
      6 H1        12.1165    9.4759    1.4021 H         1 RES1    0.0000
      7 C4        12.0455   11.2487    0.4211 C.ar      1 RES1    0.0000
      8 C5         9.3739    8.1605    2.2541 C.3       1 RES1    0.0000
      9 H2         8.9492    7.3181    2.4325 H         1 RES1    0.0000
     10 H3         8.7874    8.8754    2.5107 H         1 RES1    0.0000
     11 H4        10.1900    8.2211    2.7565 H         1 RES1    0.0000
     12 C6        10.4418    7.0441    0.2539 C.3       1 RES1    0.0000
     13 H5         9.9665    6.2493    0.5039 H         1 RES1    0.0000
     14 H6        11.3195    7.0269    0.6420 H         1 RES1    0.0000
     15 H7        10.5156    7.0866   -0.7025 H         1 RES1    0.0000
     16 C7        13.3621   11.7169    0.8386 C.1       1 RES1    0.0000
     17 N2        14.3592   12.0769    1.1551 N.1       1 RES1    0.0000
     18 C1F        8.2685    9.6862   -0.7607 C.3       1 RES1    0.0000
     19 C2F        9.5713   10.3544   -0.4186 C.ar      1 RES1    0.0000
     20 C3F       10.0055   11.5942   -0.8439 C.ar      1 RES1    0.0000
     21 H1F        9.4759   12.1165   -1.4021 H         1 RES1    0.0000
     22 C4F       11.2487   12.0455   -0.4211 C.ar      1 RES1    0.0000
     23 C5F        8.1605    9.3739   -2.2541 C.3       1 RES1    0.0000
     24 H2F        7.3181    8.9492   -2.4325 H         1 RES1    0.0000
     25 H3F        8.8754    8.7874   -2.5107 H         1 RES1    0.0000
     26 H4F        8.2211   10.1900   -2.7565 H         1 RES1    0.0000
     27 C6F        7.0441   10.4418   -0.2539 C.3       1 RES1    0.0000
     28 H5F        6.2493    9.9665   -0.5039 H         1 RES1    0.0000
     29 H6F        7.0269   11.3195   -0.6420 H         1 RES1    0.0000
     30 H7F        7.0866   10.5156    0.7025 H         1 RES1    0.0000
     31 C7F       11.7169   13.3621   -0.8386 C.1       1 RES1    0.0000
     32 N2F       12.0769   14.3592   -1.1551 N.1       1 RES1    0.0000
@<TRIPOS>BOND
     1    1    2 1
     2    2    3 1
     3    3    4 1
     4    4    5 ar
     5    5    6 1
     6    7    5 ar
     7    8    3 1
     8    9    8 1
     9   10    8 1
    10   11    8 1
    11   12    3 1
    12   13   12 1
    13   14   12 1
    14   15   12 1
    15   16    7 1
    16   17   16 3
    17   18    2 1
    18   19    4 ar
    19   20   19 ar
    20   21   20 1
    21   22    7 ar
    22   23   18 1
    23   24   23 1
    24   25   23 1
    25   26   23 1
    26   27   18 1
    27   28   27 1
    28   29   27 1
    29   30   27 1
    30   31   22 1
    31   32   31 3
    32   18   19 1
    33   20   22 ar
@<TRIPOS>SUBSTRUCTURE
     1 RES1 1

@<TRIPOS>CRYSIN
  10.1121   10.1121   13.1558  90.0000  90.0000  90.0000  96 1

