# MOL2 file generated by ConQuest
# Please check atom types

@<TRIPOS>MOLECULE
SICZEM
    38    39     1
SMALL
NO_CHARGES
****
Generated from CSD

@<TRIPOS>ATOM
      1 O1         1.1869    4.5774    5.2299 O.3       1 RES1    0.0000
      2 N1         0.7509    1.4237    0.9324 N.2       1 RES1    0.0000
      3 C1         1.7340    4.5653    3.9834 C.2       1 RES1    0.0000
      4 O2         2.1593    5.6139    3.5503 O.2       1 RES1    0.0000
      5 C2         1.7532    3.2966    3.2992 C.2       1 RES1    0.0000
      6 H1         2.0789    3.2677    2.4288 H         1 RES1    0.0000
      7 O3         1.8657    1.1163    1.7146 O.3       1 RES1    0.0000
      8 C3         1.3207    2.1504    3.8622 C.2       1 RES1    0.0000
      9 C4         0.7798    2.1760    5.2211 C.ar      1 RES1    0.0000
     10 O4         0.1625    2.1980   -2.3718 O.2       1 RES1    0.0000
     11 C5         0.3095    1.0711    5.9896 C.ar      1 RES1    0.0000
     12 C6        -0.1888    1.3023    7.2651 C.ar      1 RES1    0.0000
     13 H2        -0.5051    0.5773    7.7543 H         1 RES1    0.0000
     14 C7        -0.2377    2.5681    7.8472 C.ar      1 RES1    0.0000
     15 C8         0.2334    3.6443    7.1182 C.ar      1 RES1    0.0000
     16 H3         0.2209    4.5004    7.4819 H         1 RES1    0.0000
     17 C9         0.7239    3.4338    5.8424 C.ar      1 RES1    0.0000
     18 C10       -0.7319    2.7448    9.2578 C.3       1 RES1    0.0000
     19 H4        -0.0256    2.5344    9.8736 H         1 RES1    0.0000
     20 H5        -1.4751    2.1571    9.4118 H         1 RES1    0.0000
     21 H6        -1.0098    3.6539    9.3883 H         1 RES1    0.0000
     22 C11        0.3459   -0.3554    5.5159 C.3       1 RES1    0.0000
     23 H7         0.1231   -0.9400    6.2440 H         1 RES1    0.0000
     24 H8         1.2271   -0.5634    5.1955 H         1 RES1    0.0000
     25 H9        -0.2886   -0.4731    4.8056 H         1 RES1    0.0000
     26 C12        1.4320    0.8723    3.0583 C.3       1 RES1    0.0000
     27 H10        2.0616    0.2759    3.4934 H         1 RES1    0.0000
     28 H11        0.5683    0.4316    3.0391 H         1 RES1    0.0000
     29 C13        1.0921    1.7030   -0.2752 C.2       1 RES1    0.0000
     30 C14       -0.0573    1.9998   -1.1941 C.2       1 RES1    0.0000
     31 C15        2.4917    1.7412   -0.7931 C.3       1 RES1    0.0000
     32 H12        3.0020    2.3801   -0.2909 H         1 RES1    0.0000
     33 H13        2.4839    1.9953   -1.7195 H         1 RES1    0.0000
     34 H14        2.8903    0.8720   -0.7031 H         1 RES1    0.0000
     35 C16       -1.4400    2.0529   -0.6276 C.3       1 RES1    0.0000
     36 H15       -1.5840    2.9075   -0.2142 H         1 RES1    0.0000
     37 H16       -1.5447    1.3588    0.0272 H         1 RES1    0.0000
     38 H17       -2.0795    1.9267   -1.3320 H         1 RES1    0.0000
@<TRIPOS>BOND
     1    1    3 1
     2    2    7 1
     3    3    4 2
     4    5    3 1
     5    6    5 1
     6    7   26 1
     7    8    5 2
     8    9    8 1
     9   10   30 2
    10   11    9 ar
    11   12   11 ar
    12   13   12 1
    13   14   12 ar
    14   15   14 ar
    15   16   15 1
    16   17    1 1
    17   18   14 1
    18   19   18 1
    19   20   18 1
    20   21   18 1
    21   22   11 1
    22   23   22 1
    23   24   22 1
    24   25   22 1
    25   26    8 1
    26   27   26 1
    27   28   26 1
    28   29    2 2
    29   30   29 1
    30   31   29 1
    31   32   31 1
    32   33   31 1
    33   34   31 1
    34   35   30 1
    35   36   35 1
    36   37   35 1
    37   38   35 1
    38    9   17 ar
    39   15   17 ar
@<TRIPOS>SUBSTRUCTURE
     1 RES1 1

@<TRIPOS>CRYSIN
   7.5936    7.6065   12.8938 102.1480  98.6950  98.4930   2 1

