# MOL2 file generated by ConQuest
# Please check atom types

@<TRIPOS>MOLECULE
SIDKAR
   102   106     2
SMALL
NO_CHARGES
****
Generated from CSD

@<TRIPOS>ATOM
      1 O1         7.5107    7.4027    2.1506 O.3       1 RES1    0.0000
      2 O2         6.1417    5.3562    9.4995 O.2       1 RES1    0.0000
      3 O3         6.7660    6.3016   11.3070 O.2       1 RES1    0.0000
      4 O4         7.6234   10.9091   11.6144 O.2       1 RES1    0.0000
      5 O5         6.9633   12.2531   10.0839 O.2       1 RES1    0.0000
      6 N1         5.0017    7.0592    6.1121 N.2       1 RES1    0.0000
      7 N2         5.4810    6.7828    7.3930 N.3       1 RES1    0.0000
      8 N3         6.3965    6.3555   10.1484 N.pl3     1 RES1    0.0000
      9 N4         7.1003   11.1303   10.5408 N.pl3     1 RES1    0.0000
     10 C1         4.8659    6.0541    5.3528 C.2       1 RES1    0.0000
     11 C2         4.4205    6.2130    3.9445 C.3       1 RES1    0.0000
     12 C3         3.5487    5.0357    3.4213 C.3       1 RES1    0.0000
     13 C4         4.1983    4.5685    2.1285 C.3       1 RES1    0.0000
     14 C5         5.0455    5.7404    1.6648 C.3       1 RES1    0.0000
     15 C6         5.6269    6.2622    2.9813 C.3       1 RES1    0.0000
     16 C7         6.3493    7.6147    2.9508 C.3       1 RES1    0.0000
     17 C8         5.4934    8.7717    2.4649 C.ar      1 RES1    0.0000
     18 C9         4.8469    9.5930    3.3669 C.ar      1 RES1    0.0000
     19 C10        3.8850   10.8656    1.5832 C.ar      1 RES1    0.0000
     20 C11        4.5347   10.0697    0.6795 C.ar      1 RES1    0.0000
     21 C12        5.3421    9.0256    1.1076 C.ar      1 RES1    0.0000
     22 C13        8.4857    8.4181    2.2950 C.3       1 RES1    0.0000
     23 C14        5.8325    7.8063    8.1846 C.ar      1 RES1    0.0000
     24 C15        6.3019    7.6614    9.5182 C.ar      1 RES1    0.0000
     25 C16        6.7028    8.7429   10.2809 C.ar      1 RES1    0.0000
     26 C17        6.6378    9.9941    9.7492 C.ar      1 RES1    0.0000
     27 C18        6.1511   10.1956    8.4564 C.ar      1 RES1    0.0000
     28 C19        5.7706    9.1396    7.6971 C.ar      1 RES1    0.0000
     29 O6         4.9234    0.9572   14.9848 O.3       2 RES2    0.0000
     30 O7         5.5373    3.4679    7.7175 O.2       2 RES2    0.0000
     31 O8         5.1726    2.5944    5.7962 O.2       2 RES2    0.0000
     32 O9         5.4518   -2.0218    5.0130 O.2       2 RES2    0.0000
     33 O10        6.3191   -3.3374    6.4723 O.2       2 RES2    0.0000
     34 N5         7.2531    1.7718   10.8687 N.2       2 RES2    0.0000
     35 N6         6.6715    2.0605    9.6371 N.3       2 RES2    0.0000
     36 N7         5.5459    2.5101    6.9462 N.pl3     2 RES2    0.0000
     37 N8         5.9657   -2.2301    6.0952 N.pl3     2 RES2    0.0000
     38 C20        7.1976    2.7031   11.7266 C.2       2 RES2    0.0000
     39 C21        7.7734    2.4988   13.0958 C.3       2 RES2    0.0000
     40 C22        8.5125    3.7540   13.6241 C.3       2 RES2    0.0000
     41 C23        8.2268    3.8441   15.0816 C.3       2 RES2    0.0000
     42 C24        7.4017    2.6351   15.4570 C.3       2 RES2    0.0000
     43 C25        6.6866    2.2485   14.1507 C.3       2 RES2    0.0000
     44 C26        6.0369    0.8653   14.0963 C.3       2 RES2    0.0000
     45 C27        6.9508   -0.2861   14.4259 C.ar      2 RES2    0.0000
     46 C28        7.5818   -0.9988   13.4168 C.ar      2 RES2    0.0000
     47 C29        4.0414   10.6353    2.9304 C.ar      1 RES1    0.0000
     48 C30        8.6416   -2.4269   15.0171 C.ar      2 RES2    0.0000
     49 C31        8.0221   -1.7412   16.0227 C.ar      2 RES2    0.0000
     50 C32        7.1765   -0.6872   15.7390 C.ar      2 RES2    0.0000
     51 C33        3.9536   -0.0474   14.7639 C.3       2 RES2    0.0000
     52 C34        6.5140    1.0632    8.7486 C.ar      2 RES2    0.0000
     53 C35        5.9941    1.2216    7.4457 C.ar      2 RES2    0.0000
     54 C36        5.8355    0.1485    6.5759 C.ar      2 RES2    0.0000
     55 C37        6.1844   -1.0991    6.9955 C.ar      2 RES2    0.0000
     56 C38        6.7134   -1.3075    8.2645 C.ar      2 RES2    0.0000
     57 C39        6.8709   -0.2683    9.1139 C.ar      2 RES2    0.0000
     58 C40        8.4265   -2.0557   13.7141 C.ar      2 RES2    0.0000
     59 H1         5.5621    5.9320    7.6733 H         1 RES1    0.0000
     60 H2         5.0282    5.1731    5.6959 H         1 RES1    0.0000
     61 H3         3.9292    7.0338    3.8647 H         1 RES1    0.0000
     62 H4         2.6507    5.3318    3.2531 H         1 RES1    0.0000
     63 H5         3.5235    4.3291    4.0702 H         1 RES1    0.0000
     64 H6         3.5340    4.3441    1.4711 H         1 RES1    0.0000
     65 H7         4.7483    3.7974    2.2899 H         1 RES1    0.0000
     66 H8         4.5060    6.4128    1.2401 H         1 RES1    0.0000
     67 H9         5.7383    5.4633    1.0600 H         1 RES1    0.0000
     68 H10        6.2571    5.6075    3.2905 H         1 RES1    0.0000
     69 H11        6.6388    7.8132    3.8443 H         1 RES1    0.0000
     70 H12        4.9691    9.4464    4.3081 H         1 RES1    0.0000
     71 H13        3.3338   11.5870    1.2707 H         1 RES1    0.0000
     72 H14        4.4320   10.2307   -0.2599 H         1 RES1    0.0000
     73 H15        5.7945    8.4667    0.4723 H         1 RES1    0.0000
     74 H16        9.2311    8.2134    1.7259 H         1 RES1    0.0000
     75 H17        8.1106    9.2647    2.0385 H         1 RES1    0.0000
     76 H18        8.7836    8.4645    3.2073 H         1 RES1    0.0000
     77 H19        7.0050    8.6096   11.1830 H         1 RES1    0.0000
     78 H20        6.1140   11.0858    8.1014 H         1 RES1    0.0000
     79 H21        5.4184    9.2925    6.8154 H         1 RES1    0.0000
     80 H22        6.4007    2.8959    9.4417 H         2 RES2    0.0000
     81 H23        6.7733    3.5381   11.5142 H         2 RES2    0.0000
     82 H24        8.3759    1.7516   13.0686 H         2 RES2    0.0000
     83 H25        8.1885    4.5320   13.1637 H         2 RES2    0.0000
     84 H26        9.4596    3.6854   13.4831 H         2 RES2    0.0000
     85 H27        7.7283    4.6429   15.2668 H         2 RES2    0.0000
     86 H28        9.0395    3.8662   15.5912 H         2 RES2    0.0000
     87 H29        6.7628    2.8395   16.1433 H         2 RES2    0.0000
     88 H30        7.9661    1.9182   15.7560 H         2 RES2    0.0000
     89 H31        6.0009    2.9023   13.9978 H         2 RES2    0.0000
     90 H32        5.6946    0.7337   13.2096 H         2 RES2    0.0000
     91 H33        7.4335   -0.7419   12.5046 H         2 RES2    0.0000
     92 H34        3.5696   11.1830    3.5606 H         1 RES1    0.0000
     93 H35        9.2391   -3.1527   15.2107 H         2 RES2    0.0000
     94 H36        8.1765   -2.0126   16.9299 H         2 RES2    0.0000
     95 H37        6.7375   -0.2137   16.4491 H         2 RES2    0.0000
     96 H38        3.2438    0.0621   15.4010 H         2 RES2    0.0000
     97 H39        3.6010    0.0339   13.8755 H         2 RES2    0.0000
     98 H40        4.3506   -0.9151   14.8727 H         2 RES2    0.0000
     99 H41        5.4916    0.2870    5.6892 H         2 RES2    0.0000
    100 H42        6.9401   -2.1998    8.5363 H         2 RES2    0.0000
    101 H43        7.2673   -0.4185    9.9751 H         2 RES2    0.0000
    102 H44        8.8623   -2.5355   13.0040 H         2 RES2    0.0000
@<TRIPOS>BOND
     1    1   16 1
     2    2    8 2
     3    3    8 2
     4    4    9 2
     5    5    9 2
     6    6    7 1
     7    7   23 1
     8    8   24 1
     9    9   26 1
    10   10    6 2
    11   11   10 1
    12   12   11 1
    13   13   12 1
    14   14   13 1
    15   15   11 1
    16   16   15 1
    17   17   16 1
    18   18   17 ar
    19   19   20 ar
    20   20   21 ar
    21   21   17 ar
    22   22    1 1
    23   23   24 ar
    24   24   25 ar
    25   25   26 ar
    26   26   27 ar
    27   27   28 ar
    28   28   23 ar
    29   29   44 1
    30   30   36 2
    31   31   36 2
    32   32   37 2
    33   33   37 2
    34   34   35 1
    35   35   52 1
    36   36   53 1
    37   37   55 1
    38   38   34 2
    39   39   38 1
    40   40   39 1
    41   41   40 1
    42   42   41 1
    43   43   39 1
    44   44   43 1
    45   45   44 1
    46   46   45 ar
    47   47   18 ar
    48   48   49 ar
    49   49   50 ar
    50   50   45 ar
    51   51   29 1
    52   52   53 ar
    53   53   54 ar
    54   54   55 ar
    55   55   56 ar
    56   56   57 ar
    57   57   52 ar
    58   58   46 ar
    59   59    7 1
    60   60   10 1
    61   61   11 1
    62   62   12 1
    63   63   12 1
    64   64   13 1
    65   65   13 1
    66   66   14 1
    67   67   14 1
    68   68   15 1
    69   69   16 1
    70   70   18 1
    71   71   19 1
    72   72   20 1
    73   73   21 1
    74   74   22 1
    75   75   22 1
    76   76   22 1
    77   77   25 1
    78   78   27 1
    79   79   28 1
    80   80   35 1
    81   81   38 1
    82   82   39 1
    83   83   40 1
    84   84   40 1
    85   85   41 1
    86   86   41 1
    87   87   42 1
    88   88   42 1
    89   89   43 1
    90   90   44 1
    91   91   46 1
    92   92   47 1
    93   93   48 1
    94   94   49 1
    95   95   50 1
    96   96   51 1
    97   97   51 1
    98   98   51 1
    99   99   54 1
   100  100   56 1
   101  101   57 1
   102  102   58 1
   103   14   15 1
   104   19   47 ar
   105   42   43 1
   106   48   58 ar
@<TRIPOS>SUBSTRUCTURE
     1 RES1 1
     2 RES2 29

@<TRIPOS>CRYSIN
   7.2360   17.0380   17.1340  86.0300  82.6400  68.7900   2 1

