# MOL2 file generated by ConQuest
# Please check atom types

@<TRIPOS>MOLECULE
SIDVOQ
    31    32     1
SMALL
NO_CHARGES
****
Generated from CSD

@<TRIPOS>ATOM
      1 O1         7.3590    1.7534    3.7593 O.2       1 RES1    0.0000
      2 C1        -0.4328   -1.3704    3.2682 C.2       1 RES1    0.0000
      3 H1        -0.4576   -1.5063    2.3183 H         1 RES1    0.0000
      4 C2         5.2585    0.8933    4.1884 C.ar      1 RES1    0.0000
      5 N1         1.6691   -0.6783    2.9404 N.3       1 RES1    0.0000
      6 N2         6.4874    1.5127    4.5984 N.pl3     1 RES1    0.0000
      7 C3        -2.8151   -1.7908    6.1312 C.ar      1 RES1    0.0000
      8 C4         4.3035    0.5745    5.1276 C.ar      1 RES1    0.0000
      9 H2         4.4712    0.7317    6.0597 H         1 RES1    0.0000
     10 C5        -1.6146   -1.6999    4.0489 C.ar      1 RES1    0.0000
     11 O2        -4.9509   -2.7590    6.2921 O.3       1 RES1    0.0000
     12 C6         3.1121    0.0246    4.7343 C.ar      1 RES1    0.0000
     13 H3         2.4394   -0.1947    5.3839 H         1 RES1    0.0000
     14 N3         0.6358   -0.9297    3.8010 N.2       1 RES1    0.0000
     15 C7        -3.8793   -2.4284    5.4947 C.ar      1 RES1    0.0000
     16 C8        -1.6920   -1.4496    5.4196 C.ar      1 RES1    0.0000
     17 H4        -0.9540   -1.0217    5.8606 H         1 RES1    0.0000
     18 C9         2.8632   -0.2043    3.3803 C.ar      1 RES1    0.0000
     19 O3         6.6525    1.7866    5.7855 O.2       1 RES1    0.0000
     20 O4        -2.8848   -1.4753    7.4554 O.3       1 RES1    0.0000
     21 C10       -2.6926   -2.3011    3.4208 C.ar      1 RES1    0.0000
     22 H5        -2.6489   -2.4702    2.4768 H         1 RES1    0.0000
     23 C11        5.0518    0.6312    2.8415 C.ar      1 RES1    0.0000
     24 H6         5.7366    0.8377    2.2003 H         1 RES1    0.0000
     25 C12        3.8580    0.0867    2.4422 C.ar      1 RES1    0.0000
     26 H7         3.7070   -0.0963    1.5113 H         1 RES1    0.0000
     27 C13       -3.8147   -2.6852    4.1419 C.ar      1 RES1    0.0000
     28 H8        -4.5465   -3.1195    3.6973 H         1 RES1    0.0000
     29 H9        -5.6184   -2.9986    5.8761 H         1 RES1    0.0000
     30 H10        1.5238   -0.9457    2.1240 H         1 RES1    0.0000
     31 H11       -3.6814   -1.7941    7.8333 H         1 RES1    0.0000
@<TRIPOS>BOND
     1    1    6 2
     2    2    3 1
     3    4    6 1
     4    5   14 1
     5    6   19 2
     6    7   15 ar
     7    8    4 ar
     8    9    8 1
     9   10    2 1
    10   11   15 1
    11   12    8 ar
    12   13   12 1
    13   14    2 2
    14   15   27 ar
    15   16    7 ar
    16   17   16 1
    17   18    5 1
    18   20    7 1
    19   21   10 ar
    20   22   21 1
    21   23    4 ar
    22   24   23 1
    23   25   18 ar
    24   26   25 1
    25   27   21 ar
    26   28   27 1
    27   29   11 1
    28   30    5 1
    29   31   20 1
    30   10   16 ar
    31   12   18 ar
    32   23   25 ar
@<TRIPOS>SUBSTRUCTURE
     1 RES1 1

@<TRIPOS>CRYSIN
   9.5730   10.6980   12.8070  90.0000 111.4600  90.0000   9 1

