# MOL2 file generated by ConQuest
# Please check atom types

@<TRIPOS>MOLECULE
SIFDUH
    32    32     1
SMALL
NO_CHARGES
****
Generated from CSD

@<TRIPOS>ATOM
      1 O1        -0.3878   13.3216    2.6296 O.3       1 RES1    0.0000
      2 O2        -1.9070   11.8710    3.4123 O.2       1 RES1    0.0000
      3 C1        -2.1348   12.7009    1.1918 C.ar      1 RES1    0.0000
      4 C2        -3.6850   11.8541   -0.4279 C.ar      1 RES1    0.0000
      5 H1        -4.3192   11.2283   -0.6935 H         1 RES1    0.0000
      6 C3        -1.4923   12.5617    2.5266 C.2       1 RES1    0.0000
      7 C4         0.4002   13.1253    3.7854 C.2       1 RES1    0.0000
      8 C5        -3.3205   12.8722   -1.2565 C.ar      1 RES1    0.0000
      9 C6        -2.3956   13.8242   -0.9103 C.ar      1 RES1    0.0000
     10 H2        -2.1805   14.5160   -1.4926 H         1 RES1    0.0000
     11 N1        -3.9598   12.9706   -2.5879 N.pl3     1 RES1    0.0000
     12 C7        -3.0887   11.7741    0.8150 C.ar      1 RES1    0.0000
     13 H3        -3.3300   11.0936    1.4007 H         1 RES1    0.0000
     14 C8        -1.7925   13.7270    0.3314 C.ar      1 RES1    0.0000
     15 H4        -1.1549   14.3536    0.5868 H         1 RES1    0.0000
     16 O3         1.1410   11.1672    2.7911 O.2       1 RES1    0.0000
     17 O4        -4.8893   12.2563   -2.8286 O.2       1 RES1    0.0000
     18 C9         2.0955   11.5743    4.9262 C.3       1 RES1    0.0000
     19 H5         1.5411   11.4477    5.7116 H         1 RES1    0.0000
     20 H6         2.6718   12.3364    5.0942 H         1 RES1    0.0000
     21 O5        -3.5651   13.8227   -3.3484 O.2       1 RES1    0.0000
     22 C10        0.4497   14.0899    4.6844 C.2       1 RES1    0.0000
     23 H7         1.0073   13.9535    5.4165 H         1 RES1    0.0000
     24 C11        1.2067   11.8921    3.7559 C.2       1 RES1    0.0000
     25 C12        2.9531   10.3523    4.7389 C.3       1 RES1    0.0000
     26 H8         3.3912   10.1386    5.5663 H         1 RES1    0.0000
     27 H9         3.6123   10.5253    4.0624 H         1 RES1    0.0000
     28 H10        2.4027    9.6141    4.4676 H         1 RES1    0.0000
     29 C13       -0.3019   15.3766    4.6390 C.3       1 RES1    0.0000
     30 H11       -0.6507   15.5748    5.5119 H         1 RES1    0.0000
     31 H12       -1.0271   15.3021    4.0147 H         1 RES1    0.0000
     32 H13        0.2877   16.0825    4.3620 H         1 RES1    0.0000
@<TRIPOS>BOND
     1    1    6 1
     2    2    6 2
     3    3    6 1
     4    4    5 1
     5    7    1 1
     6    8    4 ar
     7    9    8 ar
     8   10    9 1
     9   11    8 1
    10   12    3 ar
    11   13   12 1
    12   14    3 ar
    13   15   14 1
    14   16   24 2
    15   17   11 2
    16   18   19 1
    17   20   18 1
    18   21   11 2
    19   22    7 2
    20   23   22 1
    21   24    7 1
    22   25   18 1
    23   26   25 1
    24   27   25 1
    25   28   25 1
    26   29   22 1
    27   30   29 1
    28   31   29 1
    29   32   29 1
    30    4   12 ar
    31    9   14 ar
    32   18   24 1
@<TRIPOS>SUBSTRUCTURE
     1 RES1 1

@<TRIPOS>CRYSIN
   8.1617   14.0618   11.7048  90.0000 104.1310  90.0000 231 1

