# MOL2 file generated by ConQuest
# Please check atom types

@<TRIPOS>MOLECULE
SIFDAN
    69    61     2
SMALL
NO_CHARGES
****
Generated from CSD

@<TRIPOS>ATOM
      1 C1        -3.3608    9.3298    9.8733 C.3       1 RES1    0.0000
      2 C2        -2.7181    8.6300    8.6813 C.3       1 RES1    0.0000
      3 H1        -3.2940    7.9262    8.3758 H         1 RES1    0.0000
      4 H2        -1.8722    8.2607    8.9455 H         1 RES1    0.0000
      5 H3        -2.5830    9.2641    7.9728 H         1 RES1    0.0000
      6 C3        -2.5205   10.4328   10.4187 C.3       1 RES1    0.0000
      7 H4        -1.6496   10.0944   10.6379 H         1 RES1    0.0000
      8 H5        -2.9330   10.7892   11.2096 H         1 RES1    0.0000
      9 H6        -2.4377   11.1267    9.7608 H         1 RES1    0.0000
     10 C4        -4.7490    9.8017    9.4853 C.3       1 RES1    0.0000
     11 H7        -5.2518    9.0630    9.1348 H         1 RES1    0.0000
     12 H8        -4.6779   10.4866    8.8162 H         1 RES1    0.0000
     13 H9        -5.1955   10.1551   10.2575 H         1 RES1    0.0000
     14 O1        -3.6569    8.3503   10.9247 O.3       1 RES1    0.0000
     15 C5        -2.7249    7.5578   11.4888 C.2       1 RES1    0.0000
     16 O2        -1.5250    7.5837   11.2240 O.2       1 RES1    0.0000
     17 N1        -3.2728    6.7256   12.3660 N.am      1 RES1    0.0000
     18 C6        -2.5458    5.6544   13.0238 C.3       1 RES1    0.0000
     19 H10       -2.0886    5.9750   13.8166 H         1 RES1    0.0000
     20 H11       -1.8979    5.2513   12.4241 H         1 RES1    0.0000
     21 C7        -3.6199    4.6938   13.3762 C.3       1 RES1    0.0000
     22 H12       -3.3747    4.1761   14.1596 H         1 RES1    0.0000
     23 H13       -3.7934    4.0865   12.6396 H         1 RES1    0.0000
     24 C8        -4.8354    5.5559   13.6610 C.3       1 RES1    0.0000
     25 H14       -4.8706    5.7978   14.6000 H         1 RES1    0.0000
     26 H15       -5.6505    5.0840   13.4286 H         1 RES1    0.0000
     27 C9        -2.5458    5.6544   13.0238 Du        2 SUP2    0.0000
     28 H16       -1.7250    5.9849   13.4211 Du        2 SUP2    0.0000
     29 H17       -2.3300    4.9466   12.3959 Du        2 SUP2    0.0000
     30 C10       -3.5090    5.1567   14.0996 Du        2 SUP2    0.0000
     31 H18       -3.4555    4.1901   14.1839 Du        2 SUP2    0.0000
     32 H19       -3.2988    5.5549   14.9580 Du        2 SUP2    0.0000
     33 C11       -4.8354    5.5559   13.6610 Du        2 SUP2    0.0000
     34 H20       -5.3966    5.7550   14.4257 Du        2 SUP2    0.0000
     35 H21       -5.2503    4.8421   13.1512 Du        2 SUP2    0.0000
     36 C12       -4.6673    6.8032   12.7877 C.3       1 RES1    0.0000
     37 H22       -5.2637    6.7614   12.0117 H         1 RES1    0.0000
     38 C13       -4.9529    8.0227   13.6029 C.2       1 RES1    0.0000
     39 O3        -4.1000    8.5693   14.3095 O.2       1 RES1    0.0000
     40 N2        -6.2285    8.4309   13.6011 N.am      1 RES1    0.0000
     41 H23       -6.7362    8.1561   12.9638 H         1 RES1    0.0000
     42 C14       -6.8152    9.3089   14.6094 C.3       1 RES1    0.0000
     43 H24       -6.1065    9.5926   15.2241 H         1 RES1    0.0000
     44 C15       -7.4607   10.5364   14.0265 C.3       1 RES1    0.0000
     45 H25       -8.1220   10.2527   13.3612 H         1 RES1    0.0000
     46 C16       -6.4250   11.3885   13.3387 C.3       1 RES1    0.0000
     47 H26       -6.8485   12.1610   12.9563 H         1 RES1    0.0000
     48 H27       -6.0012   10.8788   12.6433 H         1 RES1    0.0000
     49 H28       -5.7646   11.6693   13.9759 H         1 RES1    0.0000
     50 C17       -8.1606   11.3358   15.0817 C.3       1 RES1    0.0000
     51 H29       -8.5671   12.1083   14.6825 H         1 RES1    0.0000
     52 H30       -7.5256   11.6155   15.7451 H         1 RES1    0.0000
     53 H31       -8.8385   10.7962   15.4959 H         1 RES1    0.0000
     54 N3        -7.7874    8.5215   15.3572 N.am      1 RES1    0.0000
     55 H32       -8.6302    8.6230   15.2185 H         1 RES1    0.0000
     56 C18       -7.3531    7.6444   16.2549 C.2       1 RES1    0.0000
     57 O4        -6.2461    7.4573   16.6560 O.2       1 RES1    0.0000
     58 O5        -8.4561    6.9167   16.7272 O.3       1 RES1    0.0000
     59 N4        -8.0512    5.9023   17.5875 N.am      1 RES1    0.0000
     60 C19       -7.4678    4.7495   17.0833 C.2       1 RES1    0.0000
     61 O6        -7.3530    4.5206   15.9026 O.2       1 RES1    0.0000
     62 C20       -7.0355    3.9760   18.2716 C.3       1 RES1    0.0000
     63 H33       -6.0958    3.7441   18.2022 H         1 RES1    0.0000
     64 H34       -7.5516    3.1587   18.3503 H         1 RES1    0.0000
     65 C21       -7.2735    4.8700   19.4636 C.3       1 RES1    0.0000
     66 H35       -7.8788    4.4449   20.0914 H         1 RES1    0.0000
     67 H36       -6.4375    5.0591   19.9171 H         1 RES1    0.0000
     68 C22       -7.8753    6.1293   18.9275 C.2       1 RES1    0.0000
     69 O7        -8.1148    7.1666   19.4879 O.2       1 RES1    0.0000
@<TRIPOS>BOND
     1    1    2 1
     2    2    3 1
     3    4    2 1
     4    5    2 1
     5    6    1 1
     6    7    6 1
     7    8    6 1
     8    9    6 1
     9   10    1 1
    10   11   10 1
    11   12   10 1
    12   13   10 1
    13   14    1 1
    14   15   14 1
    15   16   15 2
    16   17   15 1
    17   18   17 1
    18   19   18 1
    19   20   18 1
    20   21   18 1
    21   22   21 1
    22   23   21 1
    23   24   21 1
    24   25   24 1
    25   26   24 1
    26   36   17 1
    27   37   36 1
    28   38   36 1
    29   39   38 2
    30   40   38 1
    31   41   40 1
    32   42   40 1
    33   43   42 1
    34   44   42 1
    35   45   44 1
    36   46   44 1
    37   47   46 1
    38   48   46 1
    39   49   46 1
    40   50   44 1
    41   51   50 1
    42   52   50 1
    43   53   50 1
    44   54   42 1
    45   55   54 1
    46   56   54 1
    47   57   56 2
    48   58   56 1
    49   59   58 1
    50   60   59 1
    51   61   60 2
    52   62   60 1
    53   63   62 1
    54   64   62 1
    55   65   62 1
    56   66   65 1
    57   67   65 1
    58   68   59 1
    59   69   68 2
    60   24   36 1
    61   65   68 1
@<TRIPOS>SUBSTRUCTURE
     1 RES1 1
     2 SUP2 27

@<TRIPOS>CRYSIN
   6.3317    9.9550   18.9409  90.0000  98.3110  90.0000   4 1

