# MOL2 file generated by ConQuest
# Please check atom types

@<TRIPOS>MOLECULE
SIFSEG
    33    35     1
SMALL
NO_CHARGES
****
Generated from CSD

@<TRIPOS>ATOM
      1 O1         3.8850    2.4772    0.2204 O.3       1 RES1    0.0000
      2 O2         1.2541    3.2714    1.3808 O.2       1 RES1    0.0000
      3 O3         4.6194    5.6978    3.2565 O.2       1 RES1    0.0000
      4 O4         7.3826    4.6432   -0.2372 O.2       1 RES1    0.0000
      5 O5         7.3151    4.7516    2.0013 O.3       1 RES1    0.0000
      6 N1         5.0793    3.1148   -0.0937 N.2       1 RES1    0.0000
      7 N2         2.7461    4.7581    2.3114 N.am      1 RES1    0.0000
      8 C1         4.7380    3.5022    2.1865 C.3       1 RES1    0.0000
      9 H1         5.2233    3.0366    2.8995 H         1 RES1    0.0000
     10 C2         5.5683    3.6762    0.9438 C.2       1 RES1    0.0000
     11 C3         6.8528    4.4068    0.8109 C.2       1 RES1    0.0000
     12 C4         1.8248    5.8400    2.5482 C.ar      1 RES1    0.0000
     13 C5         4.0946    4.8007    2.6701 C.2       1 RES1    0.0000
     14 C6         2.3688    3.5549    1.7379 C.2       1 RES1    0.0000
     15 C7         0.7791    7.3807    4.0208 C.ar      1 RES1    0.0000
     16 H2         0.6870    7.7502    4.8690 H         1 RES1    0.0000
     17 C8         3.5968    2.6790    1.6328 C.3       1 RES1    0.0000
     18 H3         3.4879    1.8313    2.1117 H         1 RES1    0.0000
     19 C9         1.6885    6.3598    3.8108 C.ar      1 RES1    0.0000
     20 H4         2.1993    6.0307    4.5149 H         1 RES1    0.0000
     21 C10        1.0803    6.3234    1.4945 C.ar      1 RES1    0.0000
     22 H5         1.1950    5.9770    0.6396 H         1 RES1    0.0000
     23 C11        0.0125    7.8528    2.9831 C.ar      1 RES1    0.0000
     24 H6        -0.6092    8.5283    3.1352 H         1 RES1    0.0000
     25 C12        8.5767    5.4806    2.0246 C.3       1 RES1    0.0000
     26 H7         8.4498    6.3806    1.6850 H         1 RES1    0.0000
     27 H8         9.2335    5.0311    1.4701 H         1 RES1    0.0000
     28 C13        9.0415    5.5254    3.4377 C.3       1 RES1    0.0000
     29 H9         8.3902    5.9837    3.9748 H         1 RES1    0.0000
     30 H10        9.8798    5.9915    3.4844 H         1 RES1    0.0000
     31 H11        9.1549    4.6309    3.7659 H         1 RES1    0.0000
     32 C14        0.1623    7.3286    1.7245 C.ar      1 RES1    0.0000
     33 H12       -0.3564    7.6518    1.0235 H         1 RES1    0.0000
@<TRIPOS>BOND
     1    1    6 1
     2    2   14 2
     3    3   13 2
     4    4   11 2
     5    5   11 1
     6    6   10 2
     7    7   12 1
     8    8    9 1
     9   10    8 1
    10   11   10 1
    11   12   19 ar
    12   13    7 1
    13   14    7 1
    14   15   16 1
    15   17    1 1
    16   18   17 1
    17   19   15 ar
    18   20   19 1
    19   21   12 ar
    20   22   21 1
    21   23   15 ar
    22   24   23 1
    23   25    5 1
    24   26   25 1
    25   27   25 1
    26   28   25 1
    27   29   28 1
    28   30   28 1
    29   31   28 1
    30   32   21 ar
    31   33   32 1
    32    8   13 1
    33    8   17 1
    34   14   17 1
    35   23   32 ar
@<TRIPOS>SUBSTRUCTURE
     1 RES1 1

@<TRIPOS>CRYSIN
  11.8488   11.1803   10.7099  90.0000 111.7590  90.0000  14 1

