# MOL2 file generated by ConQuest
# Please check atom types

@<TRIPOS>MOLECULE
SIFWEK
    33    34     1
SMALL
NO_CHARGES
****
Generated from CSD

@<TRIPOS>ATOM
      1 O1        -1.4323    3.7516    4.3052 O.2       1 RES1    0.0000
      2 O2         2.5619    1.5667    4.6213 O.2       1 RES1    0.0000
      3 O3         1.3859    4.0765    4.1401 O.3       1 RES1    0.0000
      4 O4         1.0013    2.7308    1.6776 O.2       1 RES1    0.0000
      5 O5         0.0326    4.5703    0.8789 O.3       1 RES1    0.0000
      6 O6         1.7865    8.1665    3.6659 O.2       1 RES1    0.0000
      7 O7         2.2274    6.4339    4.9570 O.3       1 RES1    0.0000
      8 N1         0.6954    2.8973    4.3574 N.am      1 RES1    0.0000
      9 C1        -0.6854    2.8303    4.5057 C.2       1 RES1    0.0000
     10 C2        -0.9371    1.4211    4.8895 C.ar      1 RES1    0.0000
     11 C3        -2.1232    0.7869    5.1360 C.ar      1 RES1    0.0000
     12 H1        -2.9339    1.2376    5.0726 H         1 RES1    0.0000
     13 C4        -2.0705   -0.5533    5.4842 C.ar      1 RES1    0.0000
     14 H2        -2.8590   -1.0094    5.6666 H         1 RES1    0.0000
     15 C5        -0.8625   -1.2205    5.5636 C.ar      1 RES1    0.0000
     16 H3        -0.8571   -2.1180    5.8038 H         1 RES1    0.0000
     17 C6         0.3371   -0.5863    5.2955 C.ar      1 RES1    0.0000
     18 H4         1.1470   -1.0416    5.3372 H         1 RES1    0.0000
     19 C7         0.2787    0.7582    4.9619 C.ar      1 RES1    0.0000
     20 C8         1.3750    1.7056    4.6367 C.2       1 RES1    0.0000
     21 C9         1.0587    4.7276    2.9625 C.2       1 RES1    0.0000
     22 C10        0.6915    3.8764    1.7807 C.2       1 RES1    0.0000
     23 C11       -0.2712    3.8652   -0.3642 C.3       1 RES1    0.0000
     24 H5        -0.7522    4.4493   -0.9541 H         1 RES1    0.0000
     25 H6        -0.8090    3.0927   -0.1706 H         1 RES1    0.0000
     26 H7         0.5467    3.5887   -0.7835 H         1 RES1    0.0000
     27 C12        1.2488    6.0378    2.8567 C.2       1 RES1    0.0000
     28 H8         1.0156    6.4086    2.0363 H         1 RES1    0.0000
     29 C13        1.7732    6.9902    3.8490 C.2       1 RES1    0.0000
     30 C14        2.7884    7.3371    5.9452 C.3       1 RES1    0.0000
     31 H9         3.0874    6.8327    6.7057 H         1 RES1    0.0000
     32 H10        2.1183    7.9661    6.2210 H         1 RES1    0.0000
     33 H11        3.5316    7.8098    5.5615 H         1 RES1    0.0000
@<TRIPOS>BOND
     1    1    9 2
     2    2   20 2
     3    3    8 1
     4    4   22 2
     5    5   22 1
     6    6   29 2
     7    7   29 1
     8    8    9 1
     9    9   10 1
    10   10   11 ar
    11   11   12 1
    12   13   11 ar
    13   14   13 1
    14   15   13 ar
    15   16   15 1
    16   17   15 ar
    17   18   17 1
    18   19   10 ar
    19   20    8 1
    20   21    3 1
    21   22   21 1
    22   23    5 1
    23   24   23 1
    24   25   23 1
    25   26   23 1
    26   27   21 2
    27   28   27 1
    28   29   27 1
    29   30    7 1
    30   31   30 1
    31   32   30 1
    32   33   30 1
    33   17   19 ar
    34   19   20 1
@<TRIPOS>SUBSTRUCTURE
     1 RES1 1

@<TRIPOS>CRYSIN
   7.9785   24.8010    7.9550  90.0000 118.9040  90.0000  14 1

