# MOL2 file generated by ConQuest
# Please check atom types

@<TRIPOS>MOLECULE
SIGZEN
    37    39     1
SMALL
NO_CHARGES
****
Generated from CSD

@<TRIPOS>ATOM
      1 O1        -0.4691    8.8372    8.6274 O.2       1 RES1    0.0000
      2 O2         3.6745    5.6900    9.9065 O.2       1 RES1    0.0000
      3 O3         2.9707    7.4270   12.5912 O.2       1 RES1    0.0000
      4 N1         0.5265    8.0986    8.9274 N.pl3     1 RES1    0.0000
      5 N2         2.6779    6.4502    9.5890 N.pl3     1 RES1    0.0000
      6 C1         0.9686    7.7404    6.5750 C.ar      1 RES1    0.0000
      7 C2         1.7627    7.1745    5.6046 C.ar      1 RES1    0.0000
      8 C3         2.8413    6.3669    5.9192 C.ar      1 RES1    0.0000
      9 C4         3.1730    6.1144    7.2483 C.ar      1 RES1    0.0000
     10 C5         2.3748    6.6973    8.2363 C.ar      1 RES1    0.0000
     11 C6         1.2973    7.4951    7.9099 C.ar      1 RES1    0.0000
     12 C7         0.8802    7.8667   10.2212 C.ar      1 RES1    0.0000
     13 C8         1.9119    7.0223   10.5211 C.ar      1 RES1    0.0000
     14 C9         0.0685    8.6107   11.2386 C.3       1 RES1    0.0000
     15 C10        2.2774    6.6669   11.9590 C.2       1 RES1    0.0000
     16 C11        1.6902    5.4787   12.5354 C.2       1 RES1    0.0000
     17 C12        0.6456    4.8260   12.0208 C.2       1 RES1    0.0000
     18 C13       -0.0109    3.6647   12.6265 C.ar      1 RES1    0.0000
     19 C14        0.4576    3.0326   13.7674 C.ar      1 RES1    0.0000
     20 C15       -0.2041    1.9483   14.3085 C.ar      1 RES1    0.0000
     21 C16       -1.3610    1.4926   13.7116 C.ar      1 RES1    0.0000
     22 C17       -1.8356    2.0871   12.5853 C.ar      1 RES1    0.0000
     23 C18       -1.1830    3.1884   12.0355 C.ar      1 RES1    0.0000
     24 H1         0.0097    8.3600    6.4191 H         1 RES1    0.0000
     25 H2         1.4799    7.3814    4.6695 H         1 RES1    0.0000
     26 H3         3.3726    5.9962    5.1224 H         1 RES1    0.0000
     27 H4         4.1864    5.3659    7.4189 H         1 RES1    0.0000
     28 H5        -0.8493    8.5373   11.2062 H         1 RES1    0.0000
     29 H6        -0.0341    9.6932   10.9798 H         1 RES1    0.0000
     30 H7         0.3823    8.5803   12.1325 H         1 RES1    0.0000
     31 H8         2.0132    5.3337   13.3940 H         1 RES1    0.0000
     32 H9         0.3062    5.0857   11.1739 H         1 RES1    0.0000
     33 H10        1.3063    3.3218   14.2114 H         1 RES1    0.0000
     34 H11        0.1621    1.6869   15.1377 H         1 RES1    0.0000
     35 H12       -1.7452    0.6975   14.1409 H         1 RES1    0.0000
     36 H13       -2.5044    1.6331   12.1619 H         1 RES1    0.0000
     37 H14       -1.4879    3.6325   11.2386 H         1 RES1    0.0000
@<TRIPOS>BOND
     1    1    4 1
     2    2    5 1
     3    3   15 2
     4    4   11 ar
     5    5   10 ar
     6    6    7 ar
     7    7    8 ar
     8    8    9 ar
     9    9   10 ar
    10   10   11 ar
    11   11    6 ar
    12   12    4 ar
    13   13    5 ar
    14   14   12 1
    15   15   13 1
    16   16   15 1
    17   17   16 2
    18   18   17 1
    19   19   18 ar
    20   20   19 ar
    21   21   20 ar
    22   22   21 ar
    23   23   18 ar
    24   24    6 1
    25   25    7 1
    26   26    8 1
    27   27    9 1
    28   28   14 1
    29   29   14 1
    30   30   14 1
    31   31   16 1
    32   32   17 1
    33   33   19 1
    34   34   20 1
    35   35   21 1
    36   36   22 1
    37   37   23 1
    38   12   13 ar
    39   22   23 ar
@<TRIPOS>SUBSTRUCTURE
     1 RES1 1

@<TRIPOS>CRYSIN
   5.5790    8.9630   29.4050  90.0000  90.0000  92.6200  14 3

