# MOL2 file generated by ConQuest
# Please check atom types

@<TRIPOS>MOLECULE
SIJYOB
    42    44     1
SMALL
NO_CHARGES
****
Generated from CSD

@<TRIPOS>ATOM
      1 N1         6.9686   12.3259    9.5429 N.pl3     1 RES1    0.0000
      2 N2         3.5768   14.3518   12.3819 N.pl3     1 RES1    0.0000
      3 O1        10.5575   14.5934    7.9409 O.2       1 RES1    0.0000
      4 O2         9.2660   12.8116    7.6479 O.3       1 RES1    0.0000
      5 O3         6.8771   13.9948    6.9978 O.3       1 RES1    0.0000
      6 O4         6.5582   12.5194    5.3428 O.2       1 RES1    0.0000
      7 O5         3.1729   14.4820   13.5374 O.2       1 RES1    0.0000
      8 O6         2.8743   14.5665   11.4003 O.2       1 RES1    0.0000
      9 C1         9.6018   14.2439    5.8175 C.ar      1 RES1    0.0000
     10 C2        10.6558   14.7834    5.0925 C.ar      1 RES1    0.0000
     11 H1        11.4724   14.9265    5.5138 H         1 RES1    0.0000
     12 C3        10.5161   15.1085    3.7652 C.ar      1 RES1    0.0000
     13 H2        11.2401   15.4466    3.2898 H         1 RES1    0.0000
     14 C4         9.3147   14.9338    3.1498 C.ar      1 RES1    0.0000
     15 H3         9.2077   15.1850    2.2610 H         1 RES1    0.0000
     16 C5         8.2572   14.3850    3.8431 C.ar      1 RES1    0.0000
     17 H4         7.4447   14.2543    3.4100 H         1 RES1    0.0000
     18 C6         8.3833   14.0241    5.1789 C.ar      1 RES1    0.0000
     19 C7         7.1884   13.4250    5.8347 C.2       1 RES1    0.0000
     20 C8         5.7260   13.4556    7.6958 C.3       1 RES1    0.0000
     21 H5         5.0219   13.2825    7.0524 H         1 RES1    0.0000
     22 H6         5.3977   14.1212    8.3202 H         1 RES1    0.0000
     23 C9         6.0188   12.1851    8.4494 C.3       1 RES1    0.0000
     24 H7         5.1864   11.8398    8.8062 H         1 RES1    0.0000
     25 H8         6.3637   11.5290    7.8236 H         1 RES1    0.0000
     26 C10        8.2426   11.6226    9.4484 C.3       1 RES1    0.0000
     27 H9         8.1512   10.9028    8.8036 H         1 RES1    0.0000
     28 H10        8.4373   11.2199   10.3091 H         1 RES1    0.0000
     29 C11        9.4062   12.4742    9.0478 C.3       1 RES1    0.0000
     30 H11        9.4263   13.2825    9.5841 H         1 RES1    0.0000
     31 H12       10.2355   11.9920    9.1918 H         1 RES1    0.0000
     32 C12        9.8495   13.9244    7.2407 C.2       1 RES1    0.0000
     33 C13        6.5959   12.9307   10.7262 C.ar      1 RES1    0.0000
     34 C14        5.2873   13.3560   10.9650 C.ar      1 RES1    0.0000
     35 H13        4.6332   13.2460   10.3131 H         1 RES1    0.0000
     36 C15        4.9722   13.9392   12.1696 C.ar      1 RES1    0.0000
     37 C16        5.8733   14.1705   13.1752 C.ar      1 RES1    0.0000
     38 H14        5.6266   14.5762   13.9740 H         1 RES1    0.0000
     39 C17        7.1661   13.7662   12.9337 C.ar      1 RES1    0.0000
     40 H15        7.8130   13.9087   13.5870 H         1 RES1    0.0000
     41 C18        7.5307   13.1572   11.7564 C.ar      1 RES1    0.0000
     42 H16        8.4137   12.8893   11.6377 H         1 RES1    0.0000
@<TRIPOS>BOND
     1    1   23 1
     2    2    7 2
     3    3   32 2
     4    4   29 1
     5    5   19 1
     6    6   19 2
     7    8    2 2
     8    9   10 ar
     9   10   11 1
    10   12   10 ar
    11   13   12 1
    12   14   12 ar
    13   15   14 1
    14   16   14 ar
    15   17   16 1
    16   18    9 ar
    17   19   18 1
    18   20    5 1
    19   21   20 1
    20   22   20 1
    21   23   20 1
    22   24   23 1
    23   25   23 1
    24   26    1 1
    25   27   26 1
    26   28   26 1
    27   29   26 1
    28   30   29 1
    29   31   29 1
    30   32    4 1
    31   33    1 1
    32   34   33 ar
    33   35   34 1
    34   36    2 1
    35   37   36 ar
    36   38   37 1
    37   39   37 ar
    38   40   39 1
    39   41   33 ar
    40   42   41 1
    41    9   32 1
    42   16   18 ar
    43   34   36 ar
    44   39   41 ar
@<TRIPOS>SUBSTRUCTURE
     1 RES1 1

@<TRIPOS>CRYSIN
   7.9250   15.8540   13.2080  90.0000  90.8130  90.0000 231 1

