# MOL2 file generated by ConQuest
# Please check atom types

@<TRIPOS>MOLECULE
SIJZIW
    32    33     1
SMALL
NO_CHARGES
****
Generated from CSD

@<TRIPOS>ATOM
      1 O1         4.4852    7.2703   -0.0909 O.3       1 RES1    0.0000
      2 O2        -2.5657    9.8011    1.3001 O.3       1 RES1    0.0000
      3 O3        -5.2826   10.9240    0.1800 O.3       1 RES1    0.0000
      4 N1         3.1213    7.6148   -0.0310 N.2       1 RES1    0.0000
      5 N2         2.5651   12.3542    0.1908 N.1       1 RES1    0.0000
      6 C1         2.9396    8.6725    0.6709 C.2       1 RES1    0.0000
      7 C2         1.0395   10.3598    0.7790 C.ar      1 RES1    0.0000
      8 C3        -0.3180   10.6618    0.9405 C.ar      1 RES1    0.0000
      9 H1        -0.6061   11.5464    0.9170 H         1 RES1    0.0000
     10 C4         1.9149   11.4634    0.4756 C.1       1 RES1    0.0000
     11 C5         4.6145    6.0677   -0.8466 C.3       1 RES1    0.0000
     12 H2         5.5336    5.7924   -0.8557 H         1 RES1    0.0000
     13 H3         4.3179    6.2222   -1.7462 H         1 RES1    0.0000
     14 H4         4.0784    5.3786   -0.4460 H         1 RES1    0.0000
     15 C6         4.0441    9.4237    1.3540 C.3       1 RES1    0.0000
     16 H5         3.6746   10.1656    1.8371 H         1 RES1    0.0000
     17 H6         4.6655    9.7465    0.6967 H         1 RES1    0.0000
     18 H7         4.4993    8.8392    1.9636 H         1 RES1    0.0000
     19 C7         0.5545    8.0440    1.0102 C.ar      1 RES1    0.0000
     20 H8         0.8336    7.1573    1.0352 H         1 RES1    0.0000
     21 C8         1.5071    9.0462    0.8204 C.ar      1 RES1    0.0000
     22 C9        -5.4338   12.0565    1.0253 C.3       1 RES1    0.0000
     23 H9        -6.2771   12.1632    1.4918 H         1 RES1    0.0000
     24 H10       -5.0107   12.8847    0.7504 H         1 RES1    0.0000
     25 C10       -0.7794    8.3243    1.1616 C.ar      1 RES1    0.0000
     26 H11       -1.3876    7.6308    1.2820 H         1 RES1    0.0000
     27 C11       -1.2275    9.6427    1.1344 C.ar      1 RES1    0.0000
     28 C12       -3.1079   11.1177    1.3297 C.3       1 RES1    0.0000
     29 H12       -2.8650   11.6008    0.5240 H         1 RES1    0.0000
     30 H13       -2.7689   11.6048    2.0968 H         1 RES1    0.0000
     31 C13       -4.5852   10.9722    1.4199 C.3       1 RES1    0.0000
     32 H14       -4.9231   10.3911    2.1332 H         1 RES1    0.0000
@<TRIPOS>BOND
     1    1    4 1
     2    2   27 1
     3    3   22 1
     4    4    6 2
     5    5   10 3
     6    6   15 1
     7    7    8 ar
     8    8    9 1
     9   10    7 1
    10   11    1 1
    11   12   11 1
    12   13   11 1
    13   14   11 1
    14   15   16 1
    15   17   15 1
    16   18   15 1
    17   19   20 1
    18   21    6 1
    19   22   23 1
    20   24   22 1
    21   25   19 ar
    22   26   25 1
    23   27    8 ar
    24   28    2 1
    25   29   28 1
    26   30   28 1
    27   31    3 1
    28   32   31 1
    29    7   21 ar
    30   19   21 ar
    31   22   31 1
    32   25   27 ar
    33   28   31 1
@<TRIPOS>SUBSTRUCTURE
     1 RES1 1

@<TRIPOS>CRYSIN
  12.4072   13.2641    7.6196  90.0000  96.3700  90.0000  14 1

