# MOL2 file generated by ConQuest
# Please check atom types

@<TRIPOS>MOLECULE
SIKGIC
    94   102     2
SMALL
NO_CHARGES
****
Generated from CSD

@<TRIPOS>ATOM
      1 O1        -3.4704    0.5791   13.2108 O.3       1 RES1    0.0000
      2 O2        -4.0152    1.5918   11.2103 O.3       1 RES1    0.0000
      3 O3        -1.8268    8.5407   14.6254 O.2       1 RES1    0.0000
      4 O4        -1.4126   10.8042   13.3264 O.3       1 RES1    0.0000
      5 O5        -4.0794    7.4053   18.4788 O.3       2 RES2    0.0000
      6 O6        -5.3218    8.7746   19.8660 O.3       2 RES2    0.0000
      7 O7        -6.2003   12.2690   12.3438 O.2       2 RES2    0.0000
      8 O8        -4.6953   11.7926   10.2180 O.3       2 RES2    0.0000
      9 O9        -1.2923   12.0365   10.9967 O.3       1 RES1    0.0000
     10 O10       -4.0485   10.0269    8.3587 O.3       2 RES2    0.0000
     11 O11        0.4671    6.9646    8.9255 O.2       1 RES1    0.0000
     12 O12       -0.5304    8.4309    7.6603 O.2       1 RES1    0.0000
     13 O13       -2.2442    6.0775    9.1134 O.2       1 RES1    0.0000
     14 O14       -0.8459    4.6184    9.8872 O.2       1 RES1    0.0000
     15 O15       -5.1891    5.5911   10.3481 O.2       2 RES2    0.0000
     16 O16       -6.7277    6.1131   11.7915 O.2       2 RES2    0.0000
     17 O17       -4.6025    6.4554   13.5287 O.2       2 RES2    0.0000
     18 O18       -6.4864    6.5353   14.6109 O.2       2 RES2    0.0000
     19 N1        -1.5381    6.5724   13.5673 N.am      1 RES1    0.0000
     20 N2        -6.2741   10.6659   13.9157 N.am      2 RES2    0.0000
     21 N3        -0.2595    7.9302    8.7537 N.pl3     1 RES1    0.0000
     22 N4        -1.5071    5.6382    9.9916 N.pl3     1 RES1    0.0000
     23 N5        -5.7859    6.3970   11.0561 N.pl3     2 RES2    0.0000
     24 N6        -5.6339    7.0317   13.8771 N.pl3     2 RES2    0.0000
     25 C1        -2.8782    3.7155   11.6614 C.ar      1 RES1    0.0000
     26 C2        -3.2390    2.4361   11.9793 C.ar      1 RES1    0.0000
     27 C3        -2.9225    1.8371   13.1659 C.ar      1 RES1    0.0000
     28 C4        -2.2087    2.4746   14.1276 C.ar      1 RES1    0.0000
     29 C5        -0.9432    4.5656   14.8004 C.3       1 RES1    0.0000
     30 C6        -1.5318    5.9534   14.8983 C.3       1 RES1    0.0000
     31 C7        -1.6297    7.9687   13.5673 C.2       1 RES1    0.0000
     32 C8        -1.3800   10.0440   12.1961 C.ar      1 RES1    0.0000
     33 C9        -4.9691    8.2654   16.3658 C.ar      2 RES2    0.0000
     34 C10       -4.8900    8.2027   17.7274 C.ar      2 RES2    0.0000
     35 C11       -5.6361    9.0213   18.5494 C.ar      2 RES2    0.0000
     36 C12       -6.5182    9.9599   18.0597 C.ar      2 RES2    0.0000
     37 C13       -7.5602   11.0011   15.9885 C.3       2 RES2    0.0000
     38 C14       -6.7943   11.6842   14.8517 C.3       2 RES2    0.0000
     39 C15       -5.9857   11.1009   12.6328 C.2       2 RES2    0.0000
     40 C16       -4.9796   10.4805   10.4428 C.ar      2 RES2    0.0000
     41 C17       -1.2281   10.6901   10.9855 C.ar      1 RES1    0.0000
     42 C18       -0.9390    9.9228    9.8551 C.ar      1 RES1    0.0000
     43 C19       -0.8526    8.5678    9.9386 C.ar      1 RES1    0.0000
     44 C20       -1.3962    6.4283   11.2231 C.2       1 RES1    0.0000
     45 C21       -1.6347    5.8050   12.4209 C.2       1 RES1    0.0000
     46 C22       -4.0438    0.3480   11.9264 C.3       1 RES1    0.0000
     47 C23       -2.6173   11.4988   13.5625 C.3       1 RES1    0.0000
     48 C24       -1.3720   12.6969    9.7219 C.3       1 RES1    0.0000
     49 C25       -1.7504    3.7768   13.8274 C.ar      1 RES1    0.0000
     50 C26       -1.4066    8.6362   12.2732 C.ar      1 RES1    0.0000
     51 C27       -4.6407    9.5334    9.4923 C.ar      2 RES2    0.0000
     52 C28       -4.8982    8.1898    9.7267 C.ar      2 RES2    0.0000
     53 C29       -5.3988    7.7976   10.9662 C.ar      2 RES2    0.0000
     54 C30       -5.8311    8.3952   13.4051 C.2       2 RES2    0.0000
     55 C31       -6.0323    9.3565   14.3556 C.2       2 RES2    0.0000
     56 C32       -4.3496    7.7377   19.8435 C.3       2 RES2    0.0000
     57 C33       -5.4267   12.4402    9.1888 C.3       2 RES2    0.0000
     58 C34       -3.9011    9.1725    7.2396 C.3       2 RES2    0.0000
     59 C35       -6.6563   10.0255   16.6580 C.ar      2 RES2    0.0000
     60 C36       -5.5016   10.0854   11.6823 C.ar      2 RES2    0.0000
     61 C37       -1.1835    7.8447   11.1107 C.ar      1 RES1    0.0000
     62 C38       -2.0878    4.3959   12.6055 C.ar      1 RES1    0.0000
     63 C39       -5.6173    8.7004   12.0114 C.ar      2 RES2    0.0000
     64 C40       -5.8885    9.1782   15.8279 C.ar      2 RES2    0.0000
     65 H1        -3.1875    4.1570   10.8522 H         1 RES1    0.0000
     66 H2        -2.0248    2.0766   14.9824 H         1 RES1    0.0000
     67 H3        -0.9275    4.1478   15.6613 H         1 RES1    0.0000
     68 H4        -0.0225    4.6408   14.5019 H         1 RES1    0.0000
     69 H5        -2.4384    5.8979   15.2318 H         1 RES1    0.0000
     70 H6        -1.0397    6.5054   15.5163 H         1 RES1    0.0000
     71 H7        -4.4187    7.7261   15.7955 H         2 RES2    0.0000
     72 H8        -7.0485   10.5469   18.6324 H         2 RES2    0.0000
     73 H9        -8.3107   10.5516   15.6062 H         2 RES2    0.0000
     74 H10       -7.8679   11.6550   16.6028 H         2 RES2    0.0000
     75 H11       -7.3930   12.3045   14.3868 H         2 RES2    0.0000
     76 H12       -6.0869   12.2194   15.2196 H         2 RES2    0.0000
     77 H13       -0.8090   10.3598    9.0156 H         1 RES1    0.0000
     78 H14       -4.9360    0.0341   12.0116 H         1 RES1    0.0000
     79 H15       -3.5349   -0.3078   11.4403 H         1 RES1    0.0000
     80 H16       -3.1814   11.4493   12.8202 H         1 RES1    0.0000
     81 H17       -2.3896   12.4596   13.6915 H         1 RES1    0.0000
     82 H18       -3.0257   11.2042   14.3442 H         1 RES1    0.0000
     83 H19       -0.6143   12.4787    9.1800 H         1 RES1    0.0000
     84 H20       -1.3850   13.6540    9.8368 H         1 RES1    0.0000
     85 H21       -2.1632   12.4435    9.2574 H         1 RES1    0.0000
     86 H22       -4.7494    7.5498    9.0334 H         2 RES2    0.0000
     87 H23       -3.5509    8.0535   20.2936 H         2 RES2    0.0000
     88 H24       -4.6778    6.9879   20.3278 H         2 RES2    0.0000
     89 H25       -5.1029   13.3509    9.0483 H         2 RES2    0.0000
     90 H26       -6.3581   12.5048    9.3877 H         2 RES2    0.0000
     91 H27       -5.3303   11.9852    8.3484 H         2 RES2    0.0000
     92 H28       -4.6926    8.6681    7.0895 H         2 RES2    0.0000
     93 H29       -3.1676    8.5963    7.3650 H         2 RES2    0.0000
     94 H30       -3.7390    9.7112    6.4500 H         2 RES2    0.0000
@<TRIPOS>BOND
     1    1   27 1
     2    2   26 1
     3    3   31 2
     4    4   32 1
     5    5   34 1
     6    6   35 1
     7    7   39 2
     8    8   40 1
     9    9   41 1
    10   10   51 1
    11   11   21 2
    12   12   21 2
    13   13   22 2
    14   14   22 2
    15   15   23 2
    16   16   23 2
    17   17   24 2
    18   18   24 2
    19   19   30 1
    20   20   38 1
    21   21   43 1
    22   22   44 1
    23   23   53 1
    24   24   54 1
    25   25   26 ar
    26   26   27 ar
    27   27   28 ar
    28   28   49 ar
    29   29   30 1
    30   30   69 1
    31   31   19 1
    32   32   41 ar
    33   33   34 ar
    34   34   35 ar
    35   35   36 ar
    36   36   59 ar
    37   37   38 1
    38   38   75 1
    39   39   20 1
    40   40   51 ar
    41   41   42 ar
    42   42   43 ar
    43   43   61 ar
    44   44   45 2
    45   45   19 1
    46   46    1 1
    47   47    4 1
    48   48    9 1
    49   49   29 1
    50   50   31 1
    51   51   52 ar
    52   52   53 ar
    53   53   63 ar
    54   54   55 2
    55   55   20 1
    56   56    5 1
    57   57    8 1
    58   58   10 1
    59   59   37 1
    60   60   39 1
    61   61   44 1
    62   62   25 ar
    63   63   54 1
    64   64   33 ar
    65   65   25 1
    66   66   28 1
    67   67   29 1
    68   68   29 1
    69   70   30 1
    70   71   33 1
    71   72   36 1
    72   73   37 1
    73   74   37 1
    74   76   38 1
    75   77   42 1
    76   78   46 1
    77   79   46 1
    78   80   47 1
    79   81   47 1
    80   82   47 1
    81   83   48 1
    82   84   48 1
    83   85   48 1
    84   86   52 1
    85   87   56 1
    86   88   56 1
    87   89   57 1
    88   90   57 1
    89   91   57 1
    90   92   58 1
    91   93   58 1
    92   94   58 1
    93    2   46 1
    94    6   56 1
    95   32   50 ar
    96   40   60 ar
    97   45   62 1
    98   49   62 ar
    99   50   61 ar
   100   55   64 1
   101   59   64 ar
   102   60   63 ar
@<TRIPOS>SUBSTRUCTURE
     1 RES1 1
     2 RES2 5

@<TRIPOS>CRYSIN
   8.2490   14.2630   16.1930  90.0000  97.4600  90.0000   4 1

