# MOL2 file generated by ConQuest
# Please check atom types

@<TRIPOS>MOLECULE
SIKTIP
    43    45     1
SMALL
NO_CHARGES
****
Generated from CSD

@<TRIPOS>ATOM
      1 H1         6.8776   -4.3653    2.9868 H         1 RES1    0.0000
      2 H2         4.9844   -5.2595    6.0229 H         1 RES1    0.0000
      3 H3         3.6324   -4.2076    3.5816 H         1 RES1    0.0000
      4 H4         5.9672   -0.7458    5.9061 H         1 RES1    0.0000
      5 H5         5.0942    1.4934    5.7374 H         1 RES1    0.0000
      6 H6         2.1559    0.1855    3.0830 H         1 RES1    0.0000
      7 H7         2.9847   -2.0760    3.2887 H         1 RES1    0.0000
      8 H8         7.8842   -5.1129    5.7654 H         1 RES1    0.0000
      9 H9         7.1278   -6.5433    5.9768 H         1 RES1    0.0000
     10 H10        7.1731   -5.4580    7.1814 H         1 RES1    0.0000
     11 H11        3.3607   -3.6566    1.4350 H         1 RES1    0.0000
     12 H12        4.4454   -4.8588    1.2301 H         1 RES1    0.0000
     13 H13        4.6073   -3.4655    0.4106 H         1 RES1    0.0000
     14 H14        6.5073   -6.9347    2.1738 H         1 RES1    0.0000
     15 H15        5.5471   -9.1294    1.6711 H         1 RES1    0.0000
     16 H16        3.5384   -9.8400    2.7309 H         1 RES1    0.0000
     17 H17        2.5058   -8.5079    4.4160 H         1 RES1    0.0000
     18 H18        3.4082   -6.3522    4.9319 H         1 RES1    0.0000
     19 N1         5.0263   -2.9127    4.6768 N.am      1 RES1    0.0000
     20 N2         3.0244    2.3450    4.3551 N.pl3     1 RES1    0.0000
     21 O1         6.1031   -2.8366    6.7116 O.2       1 RES1    0.0000
     22 O2         6.9138   -4.9256    3.4549 O.3       1 RES1    0.0000
     23 O3         5.1021   -3.3561    2.4174 O.3       1 RES1    0.0000
     24 O4         3.5011    3.1798    5.1047 O.2       1 RES1    0.0000
     25 O5         2.1219    2.5620    3.5603 O.2       1 RES1    0.0000
     26 C1         5.7147   -3.4562    5.7580 C.2       1 RES1    0.0000
     27 C2         5.7906   -4.9552    5.5695 C.3       1 RES1    0.0000
     28 C3         5.6456   -5.1222    4.0399 C.3       1 RES1    0.0000
     29 C4         4.7251   -3.9293    3.6541 C.3       1 RES1    0.0000
     30 C5         4.5394   -1.5862    4.5904 C.ar      1 RES1    0.0000
     31 C6         5.1644   -0.5528    5.3112 C.ar      1 RES1    0.0000
     32 C7         4.6549    0.7309    5.2174 C.ar      1 RES1    0.0000
     33 C8         3.5713    0.9777    4.4110 C.ar      1 RES1    0.0000
     34 C9         2.9496   -0.0278    3.6952 C.ar      1 RES1    0.0000
     35 C10        3.4445   -1.3209    3.7915 C.ar      1 RES1    0.0000
     36 C11        7.0191   -5.5842    6.1891 C.3       1 RES1    0.0000
     37 C12        4.3684   -3.8366    1.2778 C.3       1 RES1    0.0000
     38 C13        5.0569   -6.4839    3.6392 C.ar      1 RES1    0.0000
     39 C14        5.6445   -7.2779    2.6856 C.ar      1 RES1    0.0000
     40 C15        5.0999   -8.5209    2.3697 C.ar      1 RES1    0.0000
     41 C16        3.9698   -8.9458    2.9752 C.ar      1 RES1    0.0000
     42 C17        3.3505   -8.1796    3.9182 C.ar      1 RES1    0.0000
     43 C18        3.8793   -6.9329    4.2563 C.ar      1 RES1    0.0000
@<TRIPOS>BOND
     1    1   22 1
     2    2   27 1
     3    3   29 1
     4    4   31 1
     5    5   32 1
     6    6   34 1
     7    7   35 1
     8    8   36 1
     9    9   36 1
    10   10   36 1
    11   11   37 1
    12   12   37 1
    13   13   37 1
    14   14   39 1
    15   15   40 1
    16   16   41 1
    17   17   42 1
    18   18   43 1
    19   19   26 1
    20   20   24 2
    21   21   26 2
    22   22   28 1
    23   23   29 1
    24   25   20 2
    25   26   27 1
    26   27   28 1
    27   28   29 1
    28   29   19 1
    29   30   19 1
    30   31   30 ar
    31   32   31 ar
    32   33   20 1
    33   34   33 ar
    34   35   30 ar
    35   36   27 1
    36   37   23 1
    37   38   28 1
    38   39   38 ar
    39   40   39 ar
    40   41   40 ar
    41   42   41 ar
    42   43   38 ar
    43   32   33 ar
    44   34   35 ar
    45   42   43 ar
@<TRIPOS>SUBSTRUCTURE
     1 RES1 1

@<TRIPOS>CRYSIN
  11.3230   18.5520    8.2280  90.0000  90.0000  90.0000  33 1

