# MOL2 file generated by ConQuest
# Please check atom types

@<TRIPOS>MOLECULE
SILPUZ
    40    42     1
SMALL
NO_CHARGES
****
Generated from CSD

@<TRIPOS>ATOM
      1 O1         2.0502    5.7273    4.8278 O.2       1 RES1    0.0000
      2 O2        -1.0754    2.5472    4.0024 O.2       1 RES1    0.0000
      3 O3         0.6687    5.0381    0.8146 O.3       1 RES1    0.0000
      4 H1         0.0324    4.6746    0.4029 H         1 RES1    0.0000
      5 O4         4.6733    5.6511    8.7253 O.2       1 RES1    0.0000
      6 O5         4.7346    4.0465   10.1643 O.2       1 RES1    0.0000
      7 O6         4.0640    1.6905   12.4444 O.3       1 RES1    0.0000
      8 H2         4.2465    2.3267   12.9620 H         1 RES1    0.0000
      9 N1         0.4811    4.1285    4.4082 N.am      1 RES1    0.0000
     10 N2         4.2511    4.5525    9.1321 N.pl3     1 RES1    0.0000
     11 N3         2.9422    2.1732   10.0438 N.3       1 RES1    0.0000
     12 H3         3.6905    2.5004   10.3702 H         1 RES1    0.0000
     13 C1         1.5050    4.6893    5.1915 C.2       1 RES1    0.0000
     14 C2         1.8608    3.9914    6.4138 C.ar      1 RES1    0.0000
     15 C3         1.2531    2.7533    6.7814 C.ar      1 RES1    0.0000
     16 C4         0.2710    2.2072    5.9247 C.ar      1 RES1    0.0000
     17 C5        -0.1665    2.9488    4.7180 C.2       1 RES1    0.0000
     18 C6         2.8398    4.5164    7.2098 C.ar      1 RES1    0.0000
     19 H4         3.2621    5.3275    6.9540 H         1 RES1    0.0000
     20 C7         3.2333    3.8848    8.3910 C.ar      1 RES1    0.0000
     21 C8         2.6140    2.6815    8.8557 C.ar      1 RES1    0.0000
     22 C9         1.6403    2.0674    7.9607 C.ar      1 RES1    0.0000
     23 C10        1.0788    0.7950    8.1685 C.ar      1 RES1    0.0000
     24 H5         1.3514    0.2878    8.9243 H         1 RES1    0.0000
     25 C11        0.1450    0.2641    7.3078 C.ar      1 RES1    0.0000
     26 H6        -0.2158   -0.5971    7.4804 H         1 RES1    0.0000
     27 C12       -0.2779    0.9752    6.1854 C.ar      1 RES1    0.0000
     28 H7        -0.9381    0.6119    5.6081 H         1 RES1    0.0000
     29 C13        0.1146    4.8363    3.1623 C.3       1 RES1    0.0000
     30 H8         0.2744    5.8070    3.2721 H         1 RES1    0.0000
     31 H9        -0.8476    4.7009    2.9741 H         1 RES1    0.0000
     32 C14        0.9423    4.3087    2.0017 C.3       1 RES1    0.0000
     33 H10        1.9046    4.3850    2.2213 H         1 RES1    0.0000
     34 H11        0.7356    3.3518    1.8566 H         1 RES1    0.0000
     35 C15        2.3120    1.1799   10.9152 C.3       1 RES1    0.0000
     36 H12        2.6552    0.2747   10.7084 H         1 RES1    0.0000
     37 H13        1.3307    1.1827   10.7848 H         1 RES1    0.0000
     38 C16        2.6521    1.5563   12.3376 C.3       1 RES1    0.0000
     39 H14        2.2119    2.4111   12.5758 H         1 RES1    0.0000
     40 H15        2.3307    0.8562   12.9591 H         1 RES1    0.0000
@<TRIPOS>BOND
     1    1   13 2
     2    2   17 2
     3    3    4 1
     4    5   10 2
     5    6   10 2
     6    7    8 1
     7    9   13 1
     8   10   20 1
     9   11   12 1
    10   13   14 1
    11   14   15 ar
    12   15   16 ar
    13   16   17 1
    14   17    9 1
    15   18   14 ar
    16   19   18 1
    17   20   18 ar
    18   21   11 1
    19   22   15 ar
    20   23   22 ar
    21   24   23 1
    22   25   23 ar
    23   26   25 1
    24   27   16 ar
    25   28   27 1
    26   29    9 1
    27   30   29 1
    28   31   29 1
    29   32    3 1
    30   33   32 1
    31   34   32 1
    32   35   11 1
    33   36   35 1
    34   37   35 1
    35   38    7 1
    36   39   38 1
    37   40   38 1
    38   20   21 ar
    39   21   22 ar
    40   25   27 ar
    41   29   32 1
    42   35   38 1
@<TRIPOS>SUBSTRUCTURE
     1 RES1 1

@<TRIPOS>CRYSIN
   4.7125    8.0320    9.9970  80.4900  81.9770  77.3240   1 1

