# MOL2 file generated by ConQuest
# Please check atom types

@<TRIPOS>MOLECULE
SILTOW01
    32    33     1
SMALL
NO_CHARGES
****
Generated from CSD

@<TRIPOS>ATOM
      1 C1         9.6083   -0.2120    3.2437 C.2       1 RES1    0.0000
      2 C2        11.8702    0.0919    2.3212 C.ar      1 RES1    0.0000
      3 C3        11.8528   -0.9165    1.3435 C.ar      1 RES1    0.0000
      4 C4        13.0273   -1.1780    0.6799 C.ar      1 RES1    0.0000
      5 C5        14.2233   -0.5292    0.9316 C.ar      1 RES1    0.0000
      6 C6        14.2270    0.4288    1.9294 C.ar      1 RES1    0.0000
      7 C7        13.0732    0.7398    2.6092 C.ar      1 RES1    0.0000
      8 N1        10.7069    0.5296    2.9505 N.am      1 RES1    0.0000
      9 N2        12.9935   -2.1901   -0.3931 N.pl3     1 RES1    0.0000
     10 O1         9.6083   -1.4461    3.2437 O.2       1 RES1    0.0000
     11 O2        11.9878   -2.8602   -0.5261 O.2       1 RES1    0.0000
     12 O3        13.9901   -2.3042   -1.0886 O.2       1 RES1    0.0000
     13 H1        10.6854    1.3665    3.2113 H         1 RES1    0.0000
     14 H2        11.0607   -1.4009    1.1483 H         1 RES1    0.0000
     15 H3        15.0105   -0.7337    0.4398 H         1 RES1    0.0000
     16 H4        15.0357    0.8745    2.1486 H         1 RES1    0.0000
     17 H5        13.0957    1.4042    3.2859 H         1 RES1    0.0000
     18 N1A        8.5097    0.5296    3.5369 N.am      1 RES1    0.0000
     19 C2A        7.3464    0.0919    4.1662 C.ar      1 RES1    0.0000
     20 H1A        8.5312    1.3665    3.2761 H         1 RES1    0.0000
     21 C3A        7.3638   -0.9165    5.1439 C.ar      1 RES1    0.0000
     22 C7A        6.1433    0.7398    3.8782 C.ar      1 RES1    0.0000
     23 C4A        6.1892   -1.1780    5.8075 C.ar      1 RES1    0.0000
     24 H2A        8.1559   -1.4009    5.3391 H         1 RES1    0.0000
     25 C6A        4.9896    0.4288    4.5580 C.ar      1 RES1    0.0000
     26 H5A        6.1209    1.4042    3.2015 H         1 RES1    0.0000
     27 C5A        4.9932   -0.5292    5.5558 C.ar      1 RES1    0.0000
     28 N2A        6.2231   -2.1901    6.8805 N.pl3     1 RES1    0.0000
     29 H4A        4.1808    0.8745    4.3388 H         1 RES1    0.0000
     30 H3A        4.2061   -0.7337    6.0476 H         1 RES1    0.0000
     31 O2A        7.2288   -2.8602    7.0135 O.2       1 RES1    0.0000
     32 O3A        5.2265   -2.3042    7.5760 O.2       1 RES1    0.0000
@<TRIPOS>BOND
     1    1    8 1
     2    2    3 ar
     3    3    4 ar
     4    4    5 ar
     5    5    6 ar
     6    6    7 ar
     7    7    2 ar
     8    8    2 1
     9    9    4 1
    10   10    1 2
    11   11    9 2
    12   12    9 2
    13   13    8 1
    14   14    3 1
    15   15    5 1
    16   16    6 1
    17   17    7 1
    18   18    1 1
    19   19   18 1
    20   20   18 1
    21   21   19 ar
    22   22   19 ar
    23   23   21 ar
    24   24   21 1
    25   25   22 ar
    26   26   22 1
    27   27   23 ar
    28   28   23 1
    29   29   25 1
    30   30   27 1
    31   31   28 2
    32   32   28 2
    33   25   27 ar
@<TRIPOS>SUBSTRUCTURE
     1 RES1 1

@<TRIPOS>CRYSIN
  20.9500    4.7120    6.7150  90.0000 104.9600  90.0000   5 1

