# MOL2 file generated by ConQuest
# Please check atom types

@<TRIPOS>MOLECULE
SILTOW
    32    33     1
SMALL
NO_CHARGES
****
Generated from CSD

@<TRIPOS>ATOM
      1 C1         8.1915    2.5504    8.7050 C.2       1 RES1    0.0000
      2 O1         7.6879    2.0765    9.7013 O.2       1 RES1    0.0000
      3 N1         9.0128    1.8375    7.8648 N.am      1 RES1    0.0000
      4 C2         9.2799    0.4656    7.8864 C.ar      1 RES1    0.0000
      5 C3        10.1614   -0.0373    6.9325 C.ar      1 RES1    0.0000
      6 C4        10.4293   -1.3830    6.9291 C.ar      1 RES1    0.0000
      7 C5         9.8530   -2.2796    7.7992 C.ar      1 RES1    0.0000
      8 C6         8.9849   -1.7629    8.7324 C.ar      1 RES1    0.0000
      9 C7         8.6932   -0.4172    8.7930 C.ar      1 RES1    0.0000
     10 N2        11.3977   -1.9066    5.9536 N.pl3     1 RES1    0.0000
     11 O2        11.8396   -1.1550    5.1159 O.2       1 RES1    0.0000
     12 O3        11.7351   -3.0823    6.0399 O.2       1 RES1    0.0000
     13 N3         8.0215    3.8339    8.3248 N.am      1 RES1    0.0000
     14 C8         7.2844    4.8315    8.9823 C.ar      1 RES1    0.0000
     15 C9         7.6341    6.1495    8.7357 C.ar      1 RES1    0.0000
     16 C10        6.9405    7.1553    9.3667 C.ar      1 RES1    0.0000
     17 C11        5.9030    6.9052   10.2443 C.ar      1 RES1    0.0000
     18 C12        5.5587    5.5900   10.4676 C.ar      1 RES1    0.0000
     19 C13        6.2256    4.5579    9.8441 C.ar      1 RES1    0.0000
     20 N4         7.3435    8.5272    9.1060 N.pl3     1 RES1    0.0000
     21 O4         8.2503    8.7386    8.3223 O.2       1 RES1    0.0000
     22 O5         6.7601    9.4322    9.6731 O.2       1 RES1    0.0000
     23 H1         9.4005    2.2935    7.2728 H         1 RES1    0.0000
     24 H2         8.3417    4.0619    7.6548 H         1 RES1    0.0000
     25 H3        10.5713    0.5388    6.2932 H         1 RES1    0.0000
     26 H4        10.0508   -3.2053    7.7627 H         1 RES1    0.0000
     27 H5         8.5722   -2.3487    9.3484 H         1 RES1    0.0000
     28 H6         8.0973   -0.0967    9.4564 H         1 RES1    0.0000
     29 H7         8.3485    6.3554    8.1363 H         1 RES1    0.0000
     30 H8         5.4471    7.6126   10.6768 H         1 RES1    0.0000
     31 H9         4.8477    5.3882   11.0670 H         1 RES1    0.0000
     32 H10        5.9639    3.6612   10.0043 H         1 RES1    0.0000
@<TRIPOS>BOND
     1    1    2 2
     2    3    1 1
     3    4    3 1
     4    5    4 ar
     5    6    5 ar
     6    7    6 ar
     7    8    7 ar
     8    9    4 ar
     9   10    6 1
    10   11   10 2
    11   12   10 2
    12   13    1 1
    13   14   13 1
    14   15   14 ar
    15   16   15 ar
    16   17   16 ar
    17   18   17 ar
    18   19   14 ar
    19   20   16 1
    20   21   20 2
    21   22   20 2
    22   23    3 1
    23   24   13 1
    24   25    5 1
    25   26    7 1
    26   27    8 1
    27   28    9 1
    28   29   15 1
    29   30   17 1
    30   31   18 1
    31   32   19 1
    32    8    9 ar
    33   18   19 ar
@<TRIPOS>SUBSTRUCTURE
     1 RES1 1

@<TRIPOS>CRYSIN
  11.4950   13.8160    8.3070  90.0000  91.9200  90.0000  14 1

