# MOL2 file generated by ConQuest
# Please check atom types

@<TRIPOS>MOLECULE
SILYUK
    62    66     2
SMALL
NO_CHARGES
****
Generated from CSD

@<TRIPOS>ATOM
      1 O1        12.9307    3.1284    1.4731 O.3       1 RES1    0.0000
      2 O2        10.6029    7.9170    0.7160 O.2       1 RES1    0.0000
      3 O3         8.5187    7.9504    1.2815 O.2       1 RES1    0.0000
      4 N1         9.5114    1.7621    1.2481 N.pl3     1 RES1    0.0000
      5 N2         9.5610    7.3413    1.0436 N.pl3     1 RES1    0.0000
      6 C1        13.8317    2.0271    1.2306 C.3       1 RES1    0.0000
      7 H1        14.0892    1.6064    2.0894 H         1 RES1    0.0000
      8 H2        14.6531    2.3545    0.7858 H         1 RES1    0.0000
      9 C2        13.1481    1.0338    0.3656 C.3       1 RES1    0.0000
     10 H3        13.1333    0.1422    0.7957 H         1 RES1    0.0000
     11 H4        13.6019    0.9589   -0.5115 H         1 RES1    0.0000
     12 C3        11.7245    1.5845    0.1991 C.3       1 RES1    0.0000
     13 H5        11.3769    1.4144   -0.7233 H         1 RES1    0.0000
     14 C4        11.9459    3.0754    0.4401 C.3       1 RES1    0.0000
     15 H6        12.3139    3.4948   -0.3901 H         1 RES1    0.0000
     16 C5        10.7762    1.0442    1.2503 C.3       1 RES1    0.0000
     17 H7        10.6080    0.0837    1.0776 H         1 RES1    0.0000
     18 H8        11.1967    1.1244    2.1431 H         1 RES1    0.0000
     19 C6         8.3150    1.0390    1.6608 C.3       1 RES1    0.0000
     20 H9         7.5577    1.3147    1.1033 H         1 RES1    0.0000
     21 H10        8.1193    1.2410    2.6000 H         1 RES1    0.0000
     22 H11        8.4632    0.0760    1.5580 H         1 RES1    0.0000
     23 C7         9.5271    3.1190    1.2458 C.ar      1 RES1    0.0000
     24 C8        10.7098    3.8193    0.8688 C.ar      1 RES1    0.0000
     25 C9         8.3833    3.8817    1.5924 C.ar      1 RES1    0.0000
     26 H12        7.5854    3.4351    1.8509 H         1 RES1    0.0000
     27 C10        8.4092    5.2500    1.5620 C.ar      1 RES1    0.0000
     28 H13        7.6392    5.7469    1.8130 H         1 RES1    0.0000
     29 C11        9.5637    5.9098    1.1629 C.ar      1 RES1    0.0000
     30 C12       10.7109    5.1960    0.8095 C.ar      1 RES1    0.0000
     31 H14       11.4912    5.6595    0.5286 H         1 RES1    0.0000
     32 O4        14.2056    2.0572    5.5677 O.3       2 RES2    0.0000
     33 O5        16.6637   -2.6963    5.6300 O.2       2 RES2    0.0000
     34 O6        18.4298   -2.7232    6.8613 O.2       2 RES2    0.0000
     35 N3        17.4901    3.4665    6.5033 N.pl3     2 RES2    0.0000
     36 N4        17.5444   -2.1133    6.2647 N.pl3     2 RES2    0.0000
     37 C13       13.4095    3.1429    5.0561 C.3       2 RES2    0.0000
     38 H15       12.8736    3.5437    5.7864 H         2 RES2    0.0000
     39 H16       12.7890    2.8108    4.3601 H         2 RES2    0.0000
     40 C14       14.3376    4.1767    4.4701 C.3       2 RES2    0.0000
     41 H17       14.1975    5.0601    4.8954 H         2 RES2    0.0000
     42 H18       14.1984    4.2646    3.4939 H         2 RES2    0.0000
     43 C15       15.7410    3.6354    4.7779 C.3       2 RES2    0.0000
     44 H19       16.3734    3.8258    4.0273 H         2 RES2    0.0000
     45 C16       15.4750    2.1393    4.9079 C.3       2 RES2    0.0000
     46 H20       15.4051    1.7326    3.9971 H         2 RES2    0.0000
     47 C17       16.2783    4.1663    6.0929 C.3       2 RES2    0.0000
     48 H21       16.4749    5.1324    5.9994 H         2 RES2    0.0000
     49 H22       15.5875    4.0626    6.7942 H         2 RES2    0.0000
     50 C18       18.4245    4.2017    7.3516 C.3       2 RES2    0.0000
     51 H23       19.3400    3.9107    7.1585 H         2 RES2    0.0000
     52 H24       18.2179    4.0262    8.2937 H         2 RES2    0.0000
     53 H25       18.3422    5.1618    7.1729 H         2 RES2    0.0000
     54 C19       17.5057    2.1091    6.4524 C.ar      2 RES2    0.0000
     55 C20       16.5183    1.4068    5.7060 C.ar      2 RES2    0.0000
     56 C21       18.5154    1.3590    7.1000 C.ar      2 RES2    0.0000
     57 H26       19.1980    1.8101    7.5831 H         2 RES2    0.0000
     58 C22       18.5193   -0.0125    7.0392 C.ar      2 RES2    0.0000
     59 H27       19.1998   -0.5057    7.4820 H         2 RES2    0.0000
     60 C23       17.5294   -0.6764    6.3308 C.ar      2 RES2    0.0000
     61 C24       16.5452    0.0249    5.6467 C.ar      2 RES2    0.0000
     62 H28       15.8923   -0.4423    5.1390 H         2 RES2    0.0000
@<TRIPOS>BOND
     1    1    6 1
     2    2    5 2
     3    3    5 2
     4    4   16 1
     5    5   29 1
     6    6    7 1
     7    8    6 1
     8    9    6 1
     9   10    9 1
    10   11    9 1
    11   12    9 1
    12   13   12 1
    13   14    1 1
    14   15   14 1
    15   16   12 1
    16   17   16 1
    17   18   16 1
    18   19    4 1
    19   20   19 1
    20   21   19 1
    21   22   19 1
    22   23    4 1
    23   24   14 1
    24   25   23 ar
    25   26   25 1
    26   27   25 ar
    27   28   27 1
    28   29   27 ar
    29   30   24 ar
    30   31   30 1
    31   32   37 1
    32   33   36 2
    33   34   36 2
    34   35   47 1
    35   36   60 1
    36   37   38 1
    37   39   37 1
    38   40   37 1
    39   41   40 1
    40   42   40 1
    41   43   40 1
    42   44   43 1
    43   45   32 1
    44   46   45 1
    45   47   43 1
    46   48   47 1
    47   49   47 1
    48   50   35 1
    49   51   50 1
    50   52   50 1
    51   53   50 1
    52   54   35 1
    53   55   45 1
    54   56   54 ar
    55   57   56 1
    56   58   56 ar
    57   59   58 1
    58   60   58 ar
    59   61   55 ar
    60   62   61 1
    61   12   14 1
    62   23   24 ar
    63   29   30 ar
    64   43   45 1
    65   54   55 ar
    66   60   61 ar
@<TRIPOS>SUBSTRUCTURE
     1 RES1 1
     2 RES2 32

@<TRIPOS>CRYSIN
  28.3147   10.3899    7.7003  90.0000  99.2160  90.0000   9 1

