# MOL2 file generated by ConQuest
# Please check atom types

@<TRIPOS>MOLECULE
SIMFAW
    28    30     1
SMALL
NO_CHARGES
****
Generated from CSD

@<TRIPOS>ATOM
      1 O1         6.0924    1.8106   -3.3533 O.2       1 RES1    0.0000
      2 O2         6.1726    1.3923   -1.1879 O.3       1 RES1    0.0000
      3 O3         3.3750   -4.7587   -1.9362 O.2       1 RES1    0.0000
      4 O4         3.1942   -4.4868   -4.0560 O.2       1 RES1    0.0000
      5 N1         5.4452   -0.6050   -0.2160 N.2       1 RES1    0.0000
      6 N2         3.5139   -4.0992   -2.9458 N.pl3     1 RES1    0.0000
      7 C1         5.8388    1.0308   -2.4777 C.2       1 RES1    0.0000
      8 C2         5.9544    0.5460   -0.1244 C.2       1 RES1    0.0000
      9 C3         4.5065   -2.3312   -1.5941 C.ar      1 RES1    0.0000
     10 H1         4.4005   -2.8742   -0.8473 H         1 RES1    0.0000
     11 C4         4.1193   -2.7636   -2.8292 C.ar      1 RES1    0.0000
     12 C5         4.2532   -2.0025   -3.9740 C.ar      1 RES1    0.0000
     13 H2         3.9708   -2.3259   -4.7992 H         1 RES1    0.0000
     14 C6         4.8150   -0.7559   -3.8602 C.ar      1 RES1    0.0000
     15 H3         4.9259   -0.2286   -4.6187 H         1 RES1    0.0000
     16 C7         5.2188   -0.2741   -2.6213 C.ar      1 RES1    0.0000
     17 C8         5.0643   -1.0562   -1.4739 C.ar      1 RES1    0.0000
     18 C9         6.3752    1.1189    1.1601 C.ar      1 RES1    0.0000
     19 C10        6.2848    0.3354    2.3026 C.ar      1 RES1    0.0000
     20 H4         5.9680   -0.5370    2.2467 H         1 RES1    0.0000
     21 C11        6.6666    0.8552    3.5212 C.ar      1 RES1    0.0000
     22 H5         6.5995    0.3309    4.2874 H         1 RES1    0.0000
     23 C12        7.1427    2.1362    3.6168 C.ar      1 RES1    0.0000
     24 H6         7.4043    2.4746    4.4424 H         1 RES1    0.0000
     25 C13        7.2324    2.9212    2.4932 C.ar      1 RES1    0.0000
     26 H7         7.5520    3.7922    2.5610 H         1 RES1    0.0000
     27 C14        6.8479    2.4186    1.2595 C.ar      1 RES1    0.0000
     28 H8         6.9074    2.9519    0.4990 H         1 RES1    0.0000
@<TRIPOS>BOND
     1    1    7 2
     2    2    7 1
     3    3    6 2
     4    4    6 2
     5    5    8 2
     6    6   11 1
     7    7   16 1
     8    8    2 1
     9    9   10 1
    10   11    9 ar
    11   12   11 ar
    12   13   12 1
    13   14   12 ar
    14   15   14 1
    15   16   14 ar
    16   17    5 1
    17   18    8 1
    18   19   18 ar
    19   20   19 1
    20   21   19 ar
    21   22   21 1
    22   23   21 ar
    23   24   23 1
    24   25   23 ar
    25   26   25 1
    26   27   18 ar
    27   28   27 1
    28    9   17 ar
    29   16   17 ar
    30   25   27 ar
@<TRIPOS>SUBSTRUCTURE
     1 RES1 1

@<TRIPOS>CRYSIN
   7.6403    7.4693   22.0470  90.0000 105.5950  90.0000  14 1

