# MOL2 file generated by ConQuest
# Please check atom types

@<TRIPOS>MOLECULE
SIMGUR
    33    34     1
SMALL
NO_CHARGES
****
Generated from CSD

@<TRIPOS>ATOM
      1 O1        12.0807    2.4881    7.6848 O.2       1 RES1    0.0000
      2 O2         7.0783    1.4106   11.4610 O.2       1 RES1    0.0000
      3 O3         6.0844   -0.1724   10.5034 O.2       1 RES1    0.0000
      4 N1         8.8861   -0.1431    7.6864 N.pl3     1 RES1    0.0000
      5 N2         7.1624   -1.2462    8.3897 N.pl3     1 RES1    0.0000
      6 H1         6.5197   -1.4843    8.9102 H         1 RES1    0.0000
      7 N3         7.9790    0.6925    9.6117 N.2       1 RES1    0.0000
      8 N4         7.0094    0.6121   10.5463 N.pl3     1 RES1    0.0000
      9 C1        14.7153    1.9868    8.3979 C.ar      1 RES1    0.0000
     10 H2        14.4929    2.8432    8.1110 H         1 RES1    0.0000
     11 C2        16.0065    1.7133    8.8117 C.ar      1 RES1    0.0000
     12 H3        16.6476    2.3876    8.8051 H         1 RES1    0.0000
     13 C3        16.3484    0.4495    9.2323 C.ar      1 RES1    0.0000
     14 H4        17.2125    0.2729    9.5275 H         1 RES1    0.0000
     15 C4        15.4095   -0.5482    9.2143 C.ar      1 RES1    0.0000
     16 H5        15.6459   -1.4088    9.4763 H         1 RES1    0.0000
     17 C5        14.1153   -0.2887    8.8095 C.ar      1 RES1    0.0000
     18 H6        13.4860   -0.9727    8.8064 H         1 RES1    0.0000
     19 C6        13.7497    0.9879    8.4080 C.ar      1 RES1    0.0000
     20 C7        12.3619    1.3424    7.9948 C.2       1 RES1    0.0000
     21 C8        11.2990    0.2783    7.9817 C.3       1 RES1    0.0000
     22 H7        11.2431   -0.1291    8.8603 H         1 RES1    0.0000
     23 H8        11.5461   -0.4117    7.3468 H         1 RES1    0.0000
     24 C9         9.9482    0.8411    7.6072 C.3       1 RES1    0.0000
     25 H9         9.7384    1.5806    8.1986 H         1 RES1    0.0000
     26 H10        9.9900    1.1883    6.7025 H         1 RES1    0.0000
     27 C10        8.7797   -1.2383    6.7403 C.3       1 RES1    0.0000
     28 H11        9.5381   -1.8376    6.8131 H         1 RES1    0.0000
     29 H12        8.7190   -0.9100    5.8305 H         1 RES1    0.0000
     30 C11        7.4887   -1.9314    7.1621 C.3       1 RES1    0.0000
     31 H13        6.7928   -1.8157    6.4977 H         1 RES1    0.0000
     32 H14        7.6306   -2.8791    7.3144 H         1 RES1    0.0000
     33 C12        7.9501   -0.2174    8.6303 C.2       1 RES1    0.0000
@<TRIPOS>BOND
     1    1   20 2
     2    2    8 2
     3    3    8 2
     4    4   24 1
     5    5    6 1
     6    7    8 1
     7    9   10 1
     8   11    9 ar
     9   12   11 1
    10   13   11 ar
    11   14   13 1
    12   15   13 ar
    13   16   15 1
    14   17   15 ar
    15   18   17 1
    16   19    9 ar
    17   20   19 1
    18   21   20 1
    19   22   21 1
    20   23   21 1
    21   24   21 1
    22   25   24 1
    23   26   24 1
    24   27    4 1
    25   28   27 1
    26   29   27 1
    27   30    5 1
    28   31   30 1
    29   32   30 1
    30   33    4 1
    31    5   33 1
    32    7   33 2
    33   17   19 ar
    34   27   30 1
@<TRIPOS>SUBSTRUCTURE
     1 RES1 1

@<TRIPOS>CRYSIN
  15.3460    6.0908   13.7840  90.0000 102.0980  90.0000  14 1

