# MOL2 file generated by ConQuest
# Please check atom types

@<TRIPOS>MOLECULE
SIMSAJ
    38    39     1
SMALL
NO_CHARGES
****
Generated from CSD

@<TRIPOS>ATOM
      1 O1         2.0870    6.1007    1.4460 O.2       1 RES1    0.0000
      2 O2         5.6313    8.5012   -1.2401 O.2       1 RES1    0.0000
      3 O3        -3.5011    9.1291    5.3479 O.2       1 RES1    0.0000
      4 O4        -2.9231    7.1755    6.0952 O.2       1 RES1    0.0000
      5 N1         1.6073    8.3008    1.8233 N.am      1 RES1    0.0000
      6 H1         1.8719    9.1184    1.6342 H         1 RES1    0.0000
      7 N2         6.0018    6.3264   -1.7948 N.am      1 RES1    0.0000
      8 H2         5.7916    5.4944   -1.5990 H         1 RES1    0.0000
      9 N3        -2.7567    8.1471    5.3668 N.pl3     1 RES1    0.0000
     10 C1         0.5347    8.1841    2.7259 C.ar      1 RES1    0.0000
     11 C2        -0.3685    9.2500    2.7512 C.ar      1 RES1    0.0000
     12 H3        -0.2408    9.9899    2.1685 H         1 RES1    0.0000
     13 C3        -1.4452    9.2359    3.6170 C.ar      1 RES1    0.0000
     14 H4        -2.0608    9.9592    3.6368 H         1 RES1    0.0000
     15 C4        -1.6093    8.1465    4.4550 C.ar      1 RES1    0.0000
     16 C5        -0.7192    7.0825    4.4622 C.ar      1 RES1    0.0000
     17 H5        -0.8476    6.3517    5.0548 H         1 RES1    0.0000
     18 C6         0.3638    7.1004    3.5905 C.ar      1 RES1    0.0000
     19 H6         0.9837    6.3807    3.5827 H         1 RES1    0.0000
     20 C7         2.2806    7.2896    1.2111 C.2       1 RES1    0.0000
     21 C8         3.2587    7.7610    0.1569 C.3       1 RES1    0.0000
     22 H7         3.6032    8.6531    0.4111 H         1 RES1    0.0000
     23 H8         2.7837    7.8539   -0.7065 H         1 RES1    0.0000
     24 C9         4.4337    6.8060   -0.0216 C.3       1 RES1    0.0000
     25 H9         4.9134    6.7123    0.8397 H         1 RES1    0.0000
     26 H10        4.0939    5.9133   -0.2816 H         1 RES1    0.0000
     27 C10        5.3970    7.3049   -1.0814 C.2       1 RES1    0.0000
     28 C11        6.9517    6.5344   -2.8366 C.ar      1 RES1    0.0000
     29 C12        6.7182    7.4672   -3.8429 C.ar      1 RES1    0.0000
     30 H11        5.9277    7.9941   -3.8316 H         1 RES1    0.0000
     31 C13        7.6474    7.6241   -4.8652 C.ar      1 RES1    0.0000
     32 H12        7.4960    8.2724   -5.5425 H         1 RES1    0.0000
     33 C14        8.7943    6.8420   -4.9048 C.ar      1 RES1    0.0000
     34 H13        9.4213    6.9482   -5.6104 H         1 RES1    0.0000
     35 C15        9.0186    5.9039   -3.9054 C.ar      1 RES1    0.0000
     36 H14        9.7987    5.3628   -3.9309 H         1 RES1    0.0000
     37 C16        8.1024    5.7527   -2.8627 C.ar      1 RES1    0.0000
     38 H15        8.2638    5.1190   -2.1735 H         1 RES1    0.0000
@<TRIPOS>BOND
     1    1   20 2
     2    2   27 2
     3    3    9 2
     4    4    9 2
     5    5    6 1
     6    7    8 1
     7    9   15 1
     8   10    5 1
     9   11   10 ar
    10   12   11 1
    11   13   11 ar
    12   14   13 1
    13   15   13 ar
    14   16   15 ar
    15   17   16 1
    16   18   10 ar
    17   19   18 1
    18   20    5 1
    19   21   20 1
    20   22   21 1
    21   23   21 1
    22   24   21 1
    23   25   24 1
    24   26   24 1
    25   27    7 1
    26   28    7 1
    27   29   28 ar
    28   30   29 1
    29   31   29 ar
    30   32   31 1
    31   33   31 ar
    32   34   33 1
    33   35   33 ar
    34   36   35 1
    35   37   28 ar
    36   38   37 1
    37   16   18 ar
    38   24   27 1
    39   35   37 ar
@<TRIPOS>SUBSTRUCTURE
     1 RES1 1

@<TRIPOS>CRYSIN
   5.7585    9.8447   12.9961  79.2160  79.0140  83.7790   2 1

