# MOL2 file generated by ConQuest
# Please check atom types

@<TRIPOS>MOLECULE
SIMXAO
    53    56     1
SMALL
NO_CHARGES
****
Generated from CSD

@<TRIPOS>ATOM
      1 O1        -2.1395    3.0982    2.0417 O.2       1 RES1    0.0000
      2 O2        -0.7625    4.4655    1.1356 O.2       1 RES1    0.0000
      3 O3        -1.4267    1.0126    0.2807 O.3       1 RES1    0.0000
      4 O4         0.2088   -1.0668   -0.7794 O.2       1 RES1    0.0000
      5 O5         0.3900   -2.1359    1.0946 O.2       1 RES1    0.0000
      6 O6        -0.2978    4.6279    8.4582 O.2       1 RES1    0.0000
      7 O7         1.6783    5.1314    9.1521 O.2       1 RES1    0.0000
      8 O8         1.4496    2.0012    9.0112 O.3       1 RES1    0.0000
      9 O9         3.6426   -0.3419    6.8104 O.2       1 RES1    0.0000
     10 O10        1.6671   -0.4438    7.6896 O.2       1 RES1    0.0000
     11 N1        -1.0438    3.3850    1.6078 N.pl3     1 RES1    0.0000
     12 N2         0.3992   -1.1127    0.4306 N.pl3     1 RES1    0.0000
     13 N3         2.6495    3.8884    3.8796 N.3       1 RES1    0.0000
     14 N4         3.3443    1.7128    3.1198 N.3       1 RES1    0.0000
     15 N5         0.9115    4.5557    8.4026 N.pl3     1 RES1    0.0000
     16 N6         2.5676    0.1580    7.1229 N.pl3     1 RES1    0.0000
     17 C1        -0.0004    2.3518    1.6500 C.ar      1 RES1    0.0000
     18 C2        -0.2892    1.1536    1.0162 C.ar      1 RES1    0.0000
     19 C3        -2.4524    0.2023    0.9055 C.3       1 RES1    0.0000
     20 H1        -2.0572   -0.6363    1.2236 H         1 RES1    0.0000
     21 H2        -3.1556    0.0046    0.2516 H         1 RES1    0.0000
     22 H3        -2.8372    0.6903    1.6632 H         1 RES1    0.0000
     23 C4         0.6627    0.1536    1.1301 C.ar      1 RES1    0.0000
     24 C5         1.8457    0.2806    1.8499 C.ar      1 RES1    0.0000
     25 C6         2.8381   -0.8409    1.9569 C.3       1 RES1    0.0000
     26 H4         2.5361   -1.4804    2.6352 H         1 RES1    0.0000
     27 H5         3.7122   -0.4806    2.2141 H         1 RES1    0.0000
     28 H6         2.9132   -1.2945    1.0911 H         1 RES1    0.0000
     29 C7         2.0995    1.5375    2.4355 C.ar      1 RES1    0.0000
     30 C8         1.1871    2.5909    2.3364 C.ar      1 RES1    0.0000
     31 C9         1.4839    3.9419    2.9781 C.3       1 RES1    0.0000
     32 H7         1.6542    4.6086    2.2670 H         1 RES1    0.0000
     33 H8         0.6903    4.2397    3.4906 H         1 RES1    0.0000
     34 C10        3.7020    3.1259    3.2170 C.3       1 RES1    0.0000
     35 H9         4.5458    3.2171    3.7263 H         1 RES1    0.0000
     36 H10        3.8511    3.4908    2.3094 H         1 RES1    0.0000
     37 C11        3.3551    1.1325    4.4716 C.3       1 RES1    0.0000
     38 H11        4.2929    0.9823    4.7512 H         1 RES1    0.0000
     39 H12        2.9002    0.2536    4.4493 H         1 RES1    0.0000
     40 C12        2.6659    2.0251    5.4949 C.ar      1 RES1    0.0000
     41 C13        2.3421    3.3506    5.1678 C.ar      1 RES1    0.0000
     42 C14        1.7583    4.2225    6.1054 C.ar      1 RES1    0.0000
     43 C15        1.5342    5.6723    5.7894 C.3       1 RES1    0.0000
     44 H13        0.7706    5.7603    5.1829 H         1 RES1    0.0000
     45 H14        2.3359    6.0414    5.3630 H         1 RES1    0.0000
     46 H15        1.3513    6.1631    6.6184 H         1 RES1    0.0000
     47 C16        1.4963    3.6960    7.3599 C.ar      1 RES1    0.0000
     48 C17        1.7718    2.3930    7.7426 C.ar      1 RES1    0.0000
     49 C18        2.5801    1.7843    9.8785 C.3       1 RES1    0.0000
     50 H16        3.1349    1.0611    9.5183 H         1 RES1    0.0000
     51 H17        2.2634    1.5371   10.7737 H         1 RES1    0.0000
     52 H18        3.1108    2.6064    9.9341 H         1 RES1    0.0000
     53 C19        2.3470    1.5729    6.7802 C.ar      1 RES1    0.0000
@<TRIPOS>BOND
     1    1   11 2
     2    2   11 2
     3    3   18 1
     4    4   12 2
     5    5   12 2
     6    6   15 2
     7    7   15 2
     8    8   48 1
     9    9   16 2
    10   10   16 2
    11   11   17 1
    12   12   23 1
    13   13   31 1
    14   14   29 1
    15   15   47 1
    16   16   53 1
    17   17   18 ar
    18   18   23 ar
    19   19    3 1
    20   20   19 1
    21   21   19 1
    22   22   19 1
    23   23   24 ar
    24   24   25 1
    25   25   26 1
    26   27   25 1
    27   28   25 1
    28   29   24 ar
    29   30   17 ar
    30   31   30 1
    31   32   31 1
    32   33   31 1
    33   34   13 1
    34   35   34 1
    35   36   34 1
    36   37   14 1
    37   38   37 1
    38   39   37 1
    39   40   37 1
    40   41   13 1
    41   42   41 ar
    42   43   42 1
    43   44   43 1
    44   45   43 1
    45   46   43 1
    46   47   42 ar
    47   48   47 ar
    48   49    8 1
    49   50   49 1
    50   51   49 1
    51   52   49 1
    52   53   40 ar
    53   14   34 1
    54   29   30 ar
    55   40   41 ar
    56   48   53 ar
@<TRIPOS>SUBSTRUCTURE
     1 RES1 1

@<TRIPOS>CRYSIN
   8.6290    9.1550   26.4840  90.0000  90.0000  90.0000  19 1

