# MOL2 file generated by ConQuest
# Please check atom types

@<TRIPOS>MOLECULE
SINBEX
    39    40     1
SMALL
NO_CHARGES
****
Generated from CSD

@<TRIPOS>ATOM
      1 C1         2.5596    6.6054    6.0259 C.ar      1 RES1    0.0000
      2 C2         3.1491    7.9106    6.0152 C.ar      1 RES1    0.0000
      3 C3         3.7903    8.3415    7.2027 C.ar      1 RES1    0.0000
      4 C4         3.8194    7.4762    8.2878 C.ar      1 RES1    0.0000
      5 C5         2.6194    5.8558    7.2115 C.ar      1 RES1    0.0000
      6 C6         1.9419    6.1256    4.7686 C.2       1 RES1    0.0000
      7 C7         0.9374    4.3702    3.5506 C.3       1 RES1    0.0000
      8 H1         1.6113    4.3348    2.8541 H         1 RES1    0.0000
      9 H2         0.2199    4.9519    3.2547 H         1 RES1    0.0000
     10 C8         0.4121    3.0073    3.8246 C.3       1 RES1    0.0000
     11 H3         1.1313    2.4374    4.1050 H         1 RES1    0.0000
     12 H4         0.0132    2.6512    3.0269 H         1 RES1    0.0000
     13 H5        -0.2489    3.0535    4.5192 H         1 RES1    0.0000
     14 C9         1.9997    4.5091    7.4218 C.3       1 RES1    0.0000
     15 H6         2.4894    3.8499    6.9247 H         1 RES1    0.0000
     16 H7         1.0884    4.5254    7.1193 H         1 RES1    0.0000
     17 H8         2.0231    4.2878    8.3552 H         1 RES1    0.0000
     18 C10        4.4068    9.6262    7.2499 C.1       1 RES1    0.0000
     19 C11        4.5908    7.1244   10.5028 C.ar      1 RES1    0.0000
     20 C12        3.5063    6.7459   11.2807 C.ar      1 RES1    0.0000
     21 C13        3.6902    5.9490   12.3937 C.ar      1 RES1    0.0000
     22 H9         2.9557    5.6734   12.8939 H         1 RES1    0.0000
     23 C14        4.9516    5.5640   12.7609 C.ar      1 RES1    0.0000
     24 H10        5.0780    5.0286   13.5108 H         1 RES1    0.0000
     25 C15        6.0253    5.9728   12.0186 C.ar      1 RES1    0.0000
     26 H11        6.8839    5.7292   12.2782 H         1 RES1    0.0000
     27 C16        5.8472    6.7407   10.8920 C.ar      1 RES1    0.0000
     28 H12        6.5852    7.0014   10.3900 H         1 RES1    0.0000
     29 N1         3.2610    6.2928    8.3238 N.ar      1 RES1    0.0000
     30 N2         3.1241    8.7171    4.9526 N.3       1 RES1    0.0000
     31 H13        3.4972    9.4892    4.9873 H         1 RES1    0.0000
     32 H14        2.6622    8.3826    4.2274 H         1 RES1    0.0000
     33 N3         4.8798   10.6626    7.2110 N.1       1 RES1    0.0000
     34 O1         1.8358    6.8047    3.7669 O.2       1 RES1    0.0000
     35 O2         1.5187    4.8780    4.7863 O.3       1 RES1    0.0000
     36 O3         4.4992    7.9356    9.3718 O.3       1 RES1    0.0000
     37 N4         2.1406    7.1687   10.9450 N.pl3     1 RES1    0.0000
     38 O4         1.9761    8.2169   10.3814 O.2       1 RES1    0.0000
     39 O5         1.2467    6.4086   11.2563 O.2       1 RES1    0.0000
@<TRIPOS>BOND
     1    1    2 ar
     2    2    3 ar
     3    3    4 ar
     4    4   29 ar
     5    5    1 ar
     6    6    1 1
     7    7    8 1
     8    9    7 1
     9   10    7 1
    10   11   10 1
    11   12   10 1
    12   13   10 1
    13   14    5 1
    14   15   14 1
    15   16   14 1
    16   17   14 1
    17   18    3 1
    18   19   20 ar
    19   20   21 ar
    20   21   22 1
    21   23   21 ar
    22   24   23 1
    23   25   23 ar
    24   26   25 1
    25   27   19 ar
    26   28   27 1
    27   29    5 ar
    28   30    2 1
    29   31   30 1
    30   32   30 1
    31   33   18 3
    32   34    6 2
    33   35    6 1
    34   36    4 1
    35   37   20 1
    36   38   37 2
    37   39   37 2
    38    7   35 1
    39   19   36 1
    40   25   27 ar
@<TRIPOS>SUBSTRUCTURE
     1 RES1 1

@<TRIPOS>CRYSIN
   7.9831    8.8661   12.2797  69.0120  86.3420  88.8350   2 1

