# MOL2 file generated by ConQuest
# Please check atom types

@<TRIPOS>MOLECULE
SINHON
    30    31     1
SMALL
NO_CHARGES
****
Generated from CSD

@<TRIPOS>ATOM
      1 C1         0.6797   16.9162    4.9196 C.ar      1 RES1    0.0000
      2 N1         3.8390   10.6516    8.5648 N.pl3     1 RES1    0.0000
      3 C2         4.1096   12.8398    7.4815 C.ar      1 RES1    0.0000
      4 H1         4.0150   13.2491    8.3112 H         1 RES1    0.0000
      5 C3         4.0609   11.4673    7.3623 C.ar      1 RES1    0.0000
      6 C4         0.7406   15.5472    5.0615 C.ar      1 RES1    0.0000
      7 H2         0.0378   15.0784    5.4487 H         1 RES1    0.0000
      8 N2        -0.5243   17.6194    5.3866 N.pl3     1 RES1    0.0000
      9 C5         1.7123   17.6407    4.3582 C.ar      1 RES1    0.0000
     10 H3         1.6591   18.5656    4.2854 H         1 RES1    0.0000
     11 C6         1.8654   14.8896    4.6174 C.ar      1 RES1    0.0000
     12 H4         1.9183   13.9648    4.7110 H         1 RES1    0.0000
     13 O1        -1.3998   16.9693    5.9406 O.2       1 RES1    0.0000
     14 C7         4.4558   12.9900    5.0998 C.ar      1 RES1    0.0000
     15 C8         4.3024   13.5937    6.3442 C.ar      1 RES1    0.0000
     16 H5         4.3299   14.5205    6.4093 H         1 RES1    0.0000
     17 C9         2.9273   15.5774    4.0305 C.ar      1 RES1    0.0000
     18 O2         3.7609   11.2080    9.6385 O.2       1 RES1    0.0000
     19 C10        4.4413   11.6004    5.0315 C.ar      1 RES1    0.0000
     20 H6         4.5792   11.1819    4.2119 H         1 RES1    0.0000
     21 C11        4.1046   14.8916    3.4699 C.2       1 RES1    0.0000
     22 H7         4.4794   15.2957    2.7204 H         1 RES1    0.0000
     23 C12        4.2279   10.8298    6.1549 C.ar      1 RES1    0.0000
     24 H8         4.1978    9.9014    6.0979 H         1 RES1    0.0000
     25 C13        2.8220   16.9624    3.9090 C.ar      1 RES1    0.0000
     26 H9         3.5174   17.4383    3.5157 H         1 RES1    0.0000
     27 C14        4.7074   13.7819    3.8786 C.2       1 RES1    0.0000
     28 H10        5.3777   13.4595    3.3208 H         1 RES1    0.0000
     29 O3         3.7241    9.4502    8.4368 O.2       1 RES1    0.0000
     30 O4        -0.5944   18.8211    5.2140 O.2       1 RES1    0.0000
@<TRIPOS>BOND
     1    1    6 ar
     2    2    5 1
     3    3    4 1
     4    5    3 ar
     5    6    7 1
     6    8    1 1
     7    9    1 ar
     8   10    9 1
     9   11    6 ar
    10   12   11 1
    11   13    8 2
    12   14   15 ar
    13   15    3 ar
    14   16   15 1
    15   17   11 ar
    16   18    2 2
    17   19   14 ar
    18   20   19 1
    19   21   17 1
    20   22   21 1
    21   23    5 ar
    22   24   23 1
    23   25    9 ar
    24   26   25 1
    25   27   14 1
    26   28   27 1
    27   29    2 2
    28   30    8 2
    29   17   25 ar
    30   19   23 ar
    31   21   27 2
@<TRIPOS>SUBSTRUCTURE
     1 RES1 1

@<TRIPOS>CRYSIN
   6.8922   22.8669    8.0727  90.0000  98.4690  90.0000  14 1

