# MOL2 file generated by ConQuest
# Please check atom types

@<TRIPOS>MOLECULE
SINZEW
    33    34     1
SMALL
NO_CHARGES
****
Generated from CSD

@<TRIPOS>ATOM
      1 O1         9.7165    5.9410    2.1226 O.2       1 RES1    0.0000
      2 O2         9.8819    8.0184    1.6351 O.2       1 RES1    0.0000
      3 O3         3.1040    5.7815    7.9402 O.2       1 RES1    0.0000
      4 O4         0.1904   10.5606   10.0999 O.3       1 RES1    0.0000
      5 H1         0.7389   11.1162    9.6533 H         1 RES1    0.0000
      6 O5        -0.6862    6.0036   11.0746 O.3       1 RES1    0.0000
      7 H2        -1.2722    6.3854   11.5818 H         1 RES1    0.0000
      8 N1         9.3698    7.1058    2.2528 N.pl3     1 RES1    0.0000
      9 N2         4.5563    7.4558    6.4705 N.2       1 RES1    0.0000
     10 N3         3.5609    7.8875    7.3143 N.am      1 RES1    0.0000
     11 H3         3.3453    8.7741    7.3447 H         1 RES1    0.0000
     12 C1         8.2896    7.4216    3.1876 C.ar      1 RES1    0.0000
     13 C2         7.9870    8.7362    3.4167 C.ar      1 RES1    0.0000
     14 H4         8.4603    9.4138    2.9897 H         1 RES1    0.0000
     15 C3         6.9645    9.0341    4.2953 C.ar      1 RES1    0.0000
     16 H5         6.7452    9.9212    4.4663 H         1 RES1    0.0000
     17 C4         6.2641    8.0187    4.9221 C.ar      1 RES1    0.0000
     18 C5         6.6000    6.6942    4.6696 C.ar      1 RES1    0.0000
     19 H6         6.1324    6.0103    5.0900 H         1 RES1    0.0000
     20 C6         7.6209    6.3905    3.8008 C.ar      1 RES1    0.0000
     21 H7         7.8549    5.5066    3.6321 H         1 RES1    0.0000
     22 C7         5.1855    8.3688    5.8471 C.2       1 RES1    0.0000
     23 H8         4.9586    9.2606    5.9793 H         1 RES1    0.0000
     24 C8         2.8606    6.9745    8.0175 C.2       1 RES1    0.0000
     25 C9         1.7831    7.4983    8.9025 C.ar      1 RES1    0.0000
     26 C10        1.5164    8.8536    9.0401 C.ar      1 RES1    0.0000
     27 H9         2.0090    9.4825    8.5634 H         1 RES1    0.0000
     28 C11        0.5050    9.2560    9.8992 C.ar      1 RES1    0.0000
     29 C12       -0.2281    8.3202   10.6070 C.ar      1 RES1    0.0000
     30 H10       -0.8944    8.5964   11.1939 H         1 RES1    0.0000
     31 C13        0.0305    6.9811   10.4399 C.ar      1 RES1    0.0000
     32 C14        1.0491    6.5570    9.6003 C.ar      1 RES1    0.0000
     33 H11        1.2353    5.6512    9.5078 H         1 RES1    0.0000
@<TRIPOS>BOND
     1    1    8 2
     2    2    8 2
     3    3   24 2
     4    4    5 1
     5    6    7 1
     6    8   12 1
     7    9   10 1
     8   10   11 1
     9   12   13 ar
    10   13   14 1
    11   15   13 ar
    12   16   15 1
    13   17   15 ar
    14   18   17 ar
    15   19   18 1
    16   20   12 ar
    17   21   20 1
    18   22    9 2
    19   23   22 1
    20   24   10 1
    21   25   24 1
    22   26   25 ar
    23   27   26 1
    24   28    4 1
    25   29   28 ar
    26   30   29 1
    27   31    6 1
    28   32   25 ar
    29   33   32 1
    30   17   22 1
    31   18   20 ar
    32   26   28 ar
    33   29   31 ar
    34   31   32 ar
@<TRIPOS>SUBSTRUCTURE
     1 RES1 1

@<TRIPOS>CRYSIN
   9.6320   12.2560   11.4250  90.0000 105.3060  90.0000  14 1

