# MOL2 file generated by ConQuest
# Please check atom types

@<TRIPOS>MOLECULE
SIPBAU
    47    49     1
SMALL
NO_CHARGES
****
Generated from CSD

@<TRIPOS>ATOM
      1 O1         3.9463    1.2524    6.3688 O.3       1 RES1    0.0000
      2 O2         8.0549    1.1402   11.8395 O.2       1 RES1    0.0000
      3 O3         6.3527    1.3632   13.1381 O.2       1 RES1    0.0000
      4 N1         6.8545    1.2365   12.0264 N.pl3     1 RES1    0.0000
      5 C1         3.7984    2.2493    1.6551 C.3       1 RES1    0.0000
      6 C2         3.1523    2.5971    2.9518 C.2       1 RES1    0.0000
      7 C3         3.9560    2.2201    4.1931 C.3       1 RES1    0.0000
      8 C4         5.3430    1.6008    3.8842 C.3       1 RES1    0.0000
      9 C5         5.6160    1.4874    2.3797 C.3       1 RES1    0.0000
     10 C6         4.3967    0.8409    1.7104 C.3       1 RES1    0.0000
     11 C7         5.2614    2.7855    1.6151 C.3       1 RES1    0.0000
     12 C8         5.5090    4.1534    2.2310 C.3       1 RES1    0.0000
     13 C9         5.8386    2.8114    0.1888 C.3       1 RES1    0.0000
     14 C10        1.9977    3.2017    3.0109 C.2       1 RES1    0.0000
     15 C11        3.1033    1.3672    5.1732 C.3       1 RES1    0.0000
     16 C12        2.6968    0.0093    4.7347 C.3       1 RES1    0.0000
     17 C13        3.3178    1.2265    7.5473 C.2       1 RES1    0.0000
     18 C14        4.2875    1.1840    8.6914 C.ar      1 RES1    0.0000
     19 C15        3.7600    1.1674    9.9861 C.ar      1 RES1    0.0000
     20 C16        4.5940    1.1827   11.0844 C.ar      1 RES1    0.0000
     21 C17        5.9610    1.2026   10.8613 C.ar      1 RES1    0.0000
     22 C18        6.5133    1.2006    9.5857 C.ar      1 RES1    0.0000
     23 C19        5.6598    1.1993    8.5083 C.ar      1 RES1    0.0000
     24 O4         2.1224    1.2285    7.6884 O.2       1 RES1    0.0000
     25 H1         3.2024    2.5128    0.8524 H         1 RES1    0.0000
     26 H2         4.0238    3.0875    4.6451 H         1 RES1    0.0000
     27 H3         6.0721    1.9154    4.4944 H         1 RES1    0.0000
     28 H4         5.3635    0.6896    4.2885 H         1 RES1    0.0000
     29 H5         6.4909    1.0984    2.2062 H         1 RES1    0.0000
     30 H6         4.5551    0.5734    0.8085 H         1 RES1    0.0000
     31 H7         3.7194    0.2675    2.3035 H         1 RES1    0.0000
     32 H8         5.1872    4.1787    3.1577 H         1 RES1    0.0000
     33 H9         4.9668    4.8915    1.4950 H         1 RES1    0.0000
     34 H10        6.4804    4.3545    2.2424 H         1 RES1    0.0000
     35 H11        5.6818    2.0243   -0.3070 H         1 RES1    0.0000
     36 H12        6.9804    2.8075    0.2937 H         1 RES1    0.0000
     37 H13        5.3556    3.5973   -0.2555 H         1 RES1    0.0000
     38 H14        1.4925    3.2939    2.1585 H         1 RES1    0.0000
     39 H15        1.5542    3.3889    3.8480 H         1 RES1    0.0000
     40 H16        2.3285    1.9672    5.4059 H         1 RES1    0.0000
     41 H17        2.0895   -0.3962    5.3639 H         1 RES1    0.0000
     42 H18        3.4235   -0.4500    4.5440 H         1 RES1    0.0000
     43 H19        2.1449    0.1155    3.9681 H         1 RES1    0.0000
     44 H20        2.8695    1.1668   10.1539 H         1 RES1    0.0000
     45 H21        4.1942    1.2916   12.0073 H         1 RES1    0.0000
     46 H22        7.4554    1.1535    9.5018 H         1 RES1    0.0000
     47 H23        5.9721    1.2670    7.6293 H         1 RES1    0.0000
@<TRIPOS>BOND
     1    1   15 1
     2    2    4 2
     3    3    4 2
     4    4   21 1
     5    5    6 1
     6    6    7 1
     7    7    8 1
     8    8    9 1
     9    9   10 1
    10   10    5 1
    11   11    5 1
    12   12   11 1
    13   13   11 1
    14   14    6 2
    15   15    7 1
    16   16   15 1
    17   17    1 1
    18   18   17 1
    19   19   18 ar
    20   20   19 ar
    21   21   20 ar
    22   22   21 ar
    23   23   18 ar
    24   24   17 2
    25   25    5 1
    26   26    7 1
    27   27    8 1
    28   28    8 1
    29   29    9 1
    30   30   10 1
    31   31   10 1
    32   32   12 1
    33   33   12 1
    34   34   12 1
    35   35   13 1
    36   36   13 1
    37   37   13 1
    38   38   14 1
    39   39   14 1
    40   40   15 1
    41   41   16 1
    42   42   16 1
    43   43   16 1
    44   44   19 1
    45   45   20 1
    46   46   22 1
    47   47   23 1
    48    9   11 1
    49   22   23 ar
@<TRIPOS>SUBSTRUCTURE
     1 RES1 1

@<TRIPOS>CRYSIN
   7.0020    6.6370   19.1540  90.0000  95.4200  90.0000   4 1

