# MOL2 file generated by ConQuest
# Please check atom types

@<TRIPOS>MOLECULE
SIPQEO
    43    44     1
SMALL
NO_CHARGES
****
Generated from CSD

@<TRIPOS>ATOM
      1 O1         5.0556    3.2958    6.4670 O.3       1 RES1    0.0000
      2 O2         6.5331    1.6666    6.8359 O.2       1 RES1    0.0000
      3 O3         0.4352   -1.3075    4.3471 O.2       1 RES1    0.0000
      4 O4         1.8618   -2.8699    4.6163 O.2       1 RES1    0.0000
      5 N1         3.1273    6.0296    7.4997 N.1       1 RES1    0.0000
      6 N2         1.5361   -1.7084    4.6491 N.pl3     1 RES1    0.0000
      7 C1         4.1763    5.8557    7.1064 C.1       1 RES1    0.0000
      8 C2         5.5428    5.6506    6.5855 C.3       1 RES1    0.0000
      9 C3         5.4827    5.7967    5.0382 C.3       1 RES1    0.0000
     10 C4         6.4893    6.6390    7.2710 C.3       1 RES1    0.0000
     11 C5         5.9944    4.2587    7.0046 C.3       1 RES1    0.0000
     12 C6         5.0234    7.1789    4.6107 C.3       1 RES1    0.0000
     13 C7         6.7753    5.3872    4.3527 C.ar      1 RES1    0.0000
     14 C8         6.9015    4.1031    3.8576 C.ar      1 RES1    0.0000
     15 C9         8.0331    3.6918    3.2244 C.ar      1 RES1    0.0000
     16 C10        9.0776    4.5359    3.0376 C.ar      1 RES1    0.0000
     17 C11        8.9774    5.8317    3.4873 C.ar      1 RES1    0.0000
     18 C12        7.8317    6.2586    4.1582 C.ar      1 RES1    0.0000
     19 C13        5.4472    2.0217    6.4621 C.2       1 RES1    0.0000
     20 C14        4.4070    1.0973    5.9468 C.ar      1 RES1    0.0000
     21 C15        3.1224    1.5202    5.6030 C.ar      1 RES1    0.0000
     22 C16        2.1883    0.6047    5.1742 C.ar      1 RES1    0.0000
     23 C17        2.5428   -0.7092    5.0905 C.ar      1 RES1    0.0000
     24 C18        3.7953   -1.1584    5.4147 C.ar      1 RES1    0.0000
     25 C19        4.7281   -0.2489    5.8331 C.ar      1 RES1    0.0000
     26 H1         4.7843    5.1654    4.7209 H         1 RES1    0.0000
     27 H2         6.4184    6.5432    8.2236 H         1 RES1    0.0000
     28 H3         6.2367    7.5350    7.0444 H         1 RES1    0.0000
     29 H4         7.3847    6.4921    7.0109 H         1 RES1    0.0000
     30 H5         6.0273    4.2089    7.9739 H         1 RES1    0.0000
     31 H6         6.8854    4.0804    6.6881 H         1 RES1    0.0000
     32 H7         4.2036    7.4031    5.0312 H         1 RES1    0.0000
     33 H8         5.6935    7.8083    4.8771 H         1 RES1    0.0000
     34 H9         4.9188    7.2242    3.6665 H         1 RES1    0.0000
     35 H10        6.1623    3.4802    3.9413 H         1 RES1    0.0000
     36 H11        8.1129    2.7812    2.9023 H         1 RES1    0.0000
     37 H12        9.8562    4.2376    2.5968 H         1 RES1    0.0000
     38 H13        9.7072    6.4550    3.3297 H         1 RES1    0.0000
     39 H14        7.7582    7.1588    4.4957 H         1 RES1    0.0000
     40 H15        2.8827    2.4575    5.6992 H         1 RES1    0.0000
     41 H16        1.2981    0.8775    4.9301 H         1 RES1    0.0000
     42 H17        4.0409   -2.0879    5.3290 H         1 RES1    0.0000
     43 H18        5.6205   -0.5323    6.0598 H         1 RES1    0.0000
@<TRIPOS>BOND
     1    1   11 1
     2    2   19 2
     3    3    6 2
     4    4    6 2
     5    5    7 3
     6    6   23 1
     7    7    8 1
     8    8    9 1
     9    9   12 1
    10   10    8 1
    11   11    8 1
    12   12   32 1
    13   13    9 1
    14   14   13 ar
    15   15   14 ar
    16   16   15 ar
    17   17   16 ar
    18   18   13 ar
    19   19    1 1
    20   20   19 1
    21   21   20 ar
    22   22   21 ar
    23   23   22 ar
    24   24   23 ar
    25   25   20 ar
    26   26    9 1
    27   27   10 1
    28   28   10 1
    29   29   10 1
    30   30   11 1
    31   31   11 1
    32   33   12 1
    33   34   12 1
    34   35   14 1
    35   36   15 1
    36   37   16 1
    37   38   17 1
    38   39   18 1
    39   40   21 1
    40   41   22 1
    41   42   24 1
    42   43   25 1
    43   17   18 ar
    44   24   25 ar
@<TRIPOS>SUBSTRUCTURE
     1 RES1 1

@<TRIPOS>CRYSIN
   7.1460   17.8940    7.0510  96.6600  96.2000  81.6200   2 1

