# MOL2 file generated by ConQuest
# Please check atom types

@<TRIPOS>MOLECULE
SIPQOY
    43    43     1
SMALL
NO_CHARGES
****
Generated from CSD

@<TRIPOS>ATOM
      1 O1         6.4050   -1.2407   25.6392 O.2       1 RES1    0.0000
      2 O2         4.4752   -1.0130   26.4899 O.2       1 RES1    0.0000
      3 O3         4.2073    1.6464   19.7694 O.2       1 RES1    0.0000
      4 O4         2.1417    1.3025   20.4905 O.3       1 RES1    0.0000
      5 N1         5.2454   -0.9222   25.5696 N.pl3     1 RES1    0.0000
      6 N2        -0.9277    2.2857   21.4604 N.1       1 RES1    0.0000
      7 C1         0.1646    1.6211   19.1732 C.3       1 RES1    0.0000
      8 C2         4.7629   -0.3253   24.3053 C.ar      1 RES1    0.0000
      9 C3         2.9777    0.2813   22.8902 C.ar      1 RES1    0.0000
     10 H1         2.0658    0.3491   22.7259 H         1 RES1    0.0000
     11 C4         1.6406    1.9233   19.2793 C.3       1 RES1    0.0000
     12 H2         2.1102    1.5712   18.5055 H         1 RES1    0.0000
     13 H3         1.7823    2.8827   19.3127 H         1 RES1    0.0000
     14 C5         3.8739    0.6848   21.9320 C.ar      1 RES1    0.0000
     15 C6         5.2253    0.5880   22.1748 C.ar      1 RES1    0.0000
     16 H4         5.8352    0.8716   21.5310 H         1 RES1    0.0000
     17 C7         3.4187   -0.2240   24.0988 C.ar      1 RES1    0.0000
     18 H5         2.8145   -0.4890   24.7534 H         1 RES1    0.0000
     19 C8         3.4645    1.2586   20.6262 C.2       1 RES1    0.0000
     20 C9        -1.7265    1.9932   17.4850 C.2       1 RES1    0.0000
     21 C10       -0.4681    2.0007   20.4612 C.1       1 RES1    0.0000
     22 C11       -1.8210    1.4908   16.2580 C.2       1 RES1    0.0000
     23 H6        -1.0293    1.4484   15.7724 H         1 RES1    0.0000
     24 C12       -0.4080    2.4726   18.0002 C.3       1 RES1    0.0000
     25 H7         0.2233    2.3654   17.2597 H         1 RES1    0.0000
     26 C13        5.6749    0.0737   23.3653 C.ar      1 RES1    0.0000
     27 H8         6.5868   -0.0030   23.5299 H         1 RES1    0.0000
     28 C14       -2.9033    2.1131   18.3936 C.3       1 RES1    0.0000
     29 H9        -3.7121    2.0096   17.8858 H         1 RES1    0.0000
     30 H10       -2.8976    2.9772   18.8138 H         1 RES1    0.0000
     31 H11       -2.8589    1.4305   19.0680 H         1 RES1    0.0000
     32 C15       -0.0472    0.1124   18.9536 C.3       1 RES1    0.0000
     33 H12        0.4180   -0.3788   19.6369 H         1 RES1    0.0000
     34 H13        0.2949   -0.1362   18.0924 H         1 RES1    0.0000
     35 H14       -0.9849   -0.0886   18.9981 H         1 RES1    0.0000
     36 C16       -3.0321    0.9884   15.5652 C.3       1 RES1    0.0000
     37 H15       -3.0078    0.0298   15.5309 H         1 RES1    0.0000
     38 H16       -3.0593    1.3397   14.6728 H         1 RES1    0.0000
     39 H17       -3.8152    1.2713   16.0425 H         1 RES1    0.0000
     40 C17       -0.4295    3.9827   18.3202 C.3       1 RES1    0.0000
     41 H18       -0.7459    4.4680   17.5553 H         1 RES1    0.0000
     42 H19        0.4581    4.2760   18.5405 H         1 RES1    0.0000
     43 H20       -1.0121    4.1443   19.0648 H         1 RES1    0.0000
@<TRIPOS>BOND
     1    1    5 2
     2    2    5 2
     3    3   19 2
     4    4   11 1
     5    5    8 1
     6    6   21 3
     7    7   11 1
     8    8   17 ar
     9    9   10 1
    10   11   12 1
    11   13   11 1
    12   14    9 ar
    13   15   14 ar
    14   16   15 1
    15   17    9 ar
    16   18   17 1
    17   19    4 1
    18   20   22 2
    19   21    7 1
    20   22   23 1
    21   24    7 1
    22   25   24 1
    23   26    8 ar
    24   27   26 1
    25   28   20 1
    26   29   28 1
    27   30   28 1
    28   31   28 1
    29   32    7 1
    30   33   32 1
    31   34   32 1
    32   35   32 1
    33   36   22 1
    34   37   36 1
    35   38   36 1
    36   39   36 1
    37   40   24 1
    38   41   40 1
    39   42   40 1
    40   43   40 1
    41   14   19 1
    42   15   26 ar
    43   20   24 1
@<TRIPOS>SUBSTRUCTURE
     1 RES1 1

@<TRIPOS>CRYSIN
  14.3160    7.4430   31.7800  90.0000  90.0000  90.0000  61 1

