# MOL2 file generated by ConQuest
# Please check atom types

@<TRIPOS>MOLECULE
SIRWOG
   220   190     6
SMALL
NO_CHARGES
****
Generated from CSD

@<TRIPOS>ATOM
      1 N1         0.9342    4.9439   15.8008 N.3       1 RES1    0.0000
      2 N2         1.4498    5.7412   15.8450 Du        6 SUP6    0.0000
      3 O1         0.8880    4.6005   17.0524 O.2       1 RES1    0.0000
      4 O2         1.6324    5.8124   17.1454 Du        6 SUP6    0.0000
      5 C1         1.0747    7.3957   16.0334 C.3       1 RES1    0.0000
      6 H1         1.9622    7.4627   15.6217 H         1 RES1    0.0000
      7 H2         1.1737    7.2365   16.9942 H         1 RES1    0.0000
      8 H3         0.5835    8.2306   15.8869 H         1 RES1    0.0000
      9 C2         0.7014    8.0575   15.7659 Du        6 SUP6    0.0000
     10 H4         1.5472    8.2976   15.3285 Du        6 SUP6    0.0000
     11 H5         0.8024    8.1371   16.7360 Du        6 SUP6    0.0000
     12 H6        -0.0065    8.6606   15.4588 Du        6 SUP6    0.0000
     13 C3        -1.0800    6.2759   16.0683 C.3       1 RES1    0.0000
     14 H7        -0.9830    6.2271   17.0431 H         1 RES1    0.0000
     15 H8        -1.6018    5.5080   15.7543 H         1 RES1    0.0000
     16 H9        -1.5418    7.1053   15.8264 H         1 RES1    0.0000
     17 C4        -0.9692    6.0288   16.0288 Du        6 SUP6    0.0000
     18 H10       -0.8447    5.8989   16.9919 Du        6 SUP6    0.0000
     19 H11       -1.1606    5.1659   15.6054 Du        6 SUP6    0.0000
     20 H12       -1.7177    6.6417   15.8752 Du        6 SUP6    0.0000
     21 C5         0.3412    6.6375   15.4123 Du        6 SUP6    0.0000
     22 C6         0.3189    6.2536   15.4123 C.3       1 RES1    0.0000
     23 C7         1.9538    4.1816   15.0308 C.3       1 RES1    0.0000
     24 C8         2.0382    4.5572   15.1354 Du        6 SUP6    0.0000
     25 C9         3.2760    4.4678   15.7845 C.3       1 RES1    0.0000
     26 H13        3.1849    4.1900   16.7197 H         1 RES1    0.0000
     27 H14        3.4743    5.4256   15.7450 H         1 RES1    0.0000
     28 H15        4.0049    3.9666   15.3634 H         1 RES1    0.0000
     29 C10        3.5240    4.5265   15.5379 Du        6 SUP6    0.0000
     30 H16        3.5997    4.4315   16.5103 Du        6 SUP6    0.0000
     31 H17        3.9561    5.3600   15.2564 Du        6 SUP6    0.0000
     32 H18        3.9652    3.7669   15.1005 Du        6 SUP6    0.0000
     33 C11        1.6559    2.7505   15.1820 C.3       1 RES1    0.0000
     34 H19        0.8148    2.5411   14.7237 H         1 RES1    0.0000
     35 H20        1.5740    2.5313   16.1335 H         1 RES1    0.0000
     36 H21        2.3818    2.2228   14.7865 H         1 RES1    0.0000
     37 C12        1.2636    3.3188   15.6100 Du        6 SUP6    0.0000
     38 H22        0.3361    3.3732   15.2983 Du        6 SUP6    0.0000
     39 H23        1.2783    3.2783   16.5871 Du        6 SUP6    0.0000
     40 H24        1.6844    2.5118   15.2425 Du        6 SUP6    0.0000
     41 C13        1.9349    4.6647   13.6070 C.ar      1 RES1    0.0000
     42 C14        2.7215    3.9317   12.7509 C.ar      1 RES1    0.0000
     43 H25        3.3308    3.2964   13.1068 H         1 RES1    0.0000
     44 C15        2.6416    4.1034   11.3644 C.ar      1 RES1    0.0000
     45 H26        3.2027    3.5938   10.7921 H         1 RES1    0.0000
     46 C16        1.7649    4.9942   10.8340 C.ar      1 RES1    0.0000
     47 H27        1.7207    5.1045    9.8918 H         1 RES1    0.0000
     48 C17        0.9243    5.7565   11.6645 C.ar      1 RES1    0.0000
     49 C18       -0.0023    6.6641   11.1085 C.ar      1 RES1    0.0000
     50 H28       -0.0749    6.7548   10.1663 H         1 RES1    0.0000
     51 C19       -0.7880    7.4027   11.9204 C.ar      1 RES1    0.0000
     52 H29       -1.4186    8.0044   11.5435 H         1 RES1    0.0000
     53 C20       -0.6887    7.2965   13.2999 C.ar      1 RES1    0.0000
     54 H30       -1.2539    7.8369   13.8443 H         1 RES1    0.0000
     55 C21        0.1891    6.4435   13.9025 C.ar      1 RES1    0.0000
     56 C22        1.0103    5.6099   13.0836 C.ar      1 RES1    0.0000
     57 N3         0.8854   11.6583   20.4768 N.3       2 RES2    0.0000
     58 O3         0.7538   11.3260   21.7144 O.2       2 RES2    0.0000
     59 C23        1.0513   14.1058   20.6839 C.3       2 RES2    0.0000
     60 H31        1.9459   14.1100   20.2791 H         2 RES2    0.0000
     61 H32        1.1320   14.0053   21.6540 H         2 RES2    0.0000
     62 H33        0.5956   14.9491   20.4791 H         2 RES2    0.0000
     63 C24       -1.1563   12.9260   20.7188 C.3       2 RES2    0.0000
     64 H34       -1.0908   12.8450   21.6912 H         2 RES2    0.0000
     65 H35       -1.6608   12.1665   20.3605 H         2 RES2    0.0000
     66 H36       -1.6181   13.7609   20.4908 H         2 RES2    0.0000
     67 C25        0.2406   12.9372   20.1139 C.3       2 RES2    0.0000
     68 C26        1.9497   10.9630   19.7114 C.3       2 RES2    0.0000
     69 C27        3.3227   11.3665   20.3256 C.3       2 RES2    0.0000
     70 H37        3.3140   11.1919   21.2910 H         2 RES2    0.0000
     71 H38        3.4854   12.3201   20.1674 H         2 RES2    0.0000
     72 H39        4.0344   10.8401   19.9068 H         2 RES2    0.0000
     73 C28        1.6844    9.4579   19.9231 C.3       2 RES2    0.0000
     74 H40        0.8372    9.2121   19.4974 H         2 RES2    0.0000
     75 H41        1.6360    9.2652   20.8816 H         2 RES2    0.0000
     76 H42        2.4133    8.9385   19.5207 H         2 RES2    0.0000
     77 C29        1.9176   11.3120   18.2481 C.ar      2 RES2    0.0000
     78 C30        2.7663   10.6251   17.3897 C.ar      2 RES2    0.0000
     79 H43        3.3542    9.9619   17.7340 H         2 RES2    0.0000
     80 C31        2.7535   10.9141   15.9985 C.ar      2 RES2    0.0000
     81 H44        3.3684   10.4715   15.4239 H         2 RES2    0.0000
     82 C32        1.9042   11.7825   15.4891 C.ar      2 RES2    0.0000
     83 H45        1.8794   11.9208   14.5492 H         2 RES2    0.0000
     84 C33        1.0402   12.5058   16.3219 C.ar      2 RES2    0.0000
     85 C34        0.1828   13.4845   15.7938 C.ar      2 RES2    0.0000
     86 H46        0.1854   13.6618   14.8609 H         2 RES2    0.0000
     87 C35       -0.6537   14.1826   16.6150 C.ar      2 RES2    0.0000
     88 H47       -1.2528   14.8179   16.2405 H         2 RES2    0.0000
     89 C36       -0.6440   13.9746   18.0271 C.ar      2 RES2    0.0000
     90 H48       -1.2264   14.4800   18.5831 H         2 RES2    0.0000
     91 C37        0.1931   13.0559   18.5831 C.ar      2 RES2    0.0000
     92 C38        1.0429   12.2810   17.7363 C.ar      2 RES2    0.0000
     93 N4         0.8234   18.6393   25.1738 N.3       3 RES3    0.0000
     94 O4         0.6582   18.4606   26.4463 O.2       3 RES3    0.0000
     95 C39        0.9474   21.0533   25.0528 C.3       3 RES3    0.0000
     96 H49        1.8594   21.0421   24.6876 H         3 RES3    0.0000
     97 H50        0.9865   21.0324   26.0299 H         3 RES3    0.0000
     98 H51        0.4897   21.8687   24.7597 H         3 RES3    0.0000
     99 C40       -1.2256   19.8861   25.0877 C.3       3 RES3    0.0000
    100 H52       -1.2079   19.8749   26.0671 H         3 RES3    0.0000
    101 H53       -1.7199   19.1042   24.7620 H         3 RES3    0.0000
    102 H54       -1.6681   20.7042   24.7783 H         3 RES3    0.0000
    103 C41        0.1927   19.8470   24.5550 C.3       3 RES3    0.0000
    104 C42        1.8919   17.8071   24.6178 C.3       3 RES3    0.0000
    105 C43        3.2303   18.2232   25.2552 C.3       3 RES3    0.0000
    106 H55        3.1565   18.1757   26.2300 H         3 RES3    0.0000
    107 H56        3.4478   19.1419   24.9900 H         3 RES3    0.0000
    108 H57        3.9389   17.6186   24.9504 H         3 RES3    0.0000
    109 C44        1.5768   16.3230   24.9667 C.3       3 RES3    0.0000
    110 H58        0.8200   16.0130   24.4270 H         3 RES3    0.0000
    111 H59        1.3505   16.2518   25.9182 H         3 RES3    0.0000
    112 H60        2.3617   15.7687   24.7760 H         3 RES3    0.0000
    113 C45        1.9898   17.9398   23.1173 C.ar      3 RES3    0.0000
    114 C46        2.8640   17.1495   22.4240 C.ar      3 RES3    0.0000
    115 H61        3.4215   16.5436   22.8986 H         3 RES3    0.0000
    116 C47        2.9509   17.2137   21.0235 C.ar      3 RES3    0.0000
    117 H62        3.5882   16.6776   20.5652 H         3 RES3    0.0000
    118 C48        2.1605   18.0124   20.3419 C.ar      3 RES3    0.0000
    119 H63        2.2028   17.9984   19.3927 H         3 RES3    0.0000
    120 C49        1.2547   18.8864   20.9630 C.ar      3 RES3    0.0000
    121 C50        0.4420   19.7660   20.2442 C.ar      3 RES3    0.0000
    122 H64        0.5209   19.8093   19.2997 H         3 RES3    0.0000
    123 C51       -0.4363   20.5423   20.8583 C.ar      3 RES3    0.0000
    124 H65       -1.0243   21.0854   20.3465 H         3 RES3    0.0000
    125 C52       -0.5079   20.5674   22.2844 C.ar      3 RES3    0.0000
    126 H66       -1.1046   21.1720   22.7101 H         3 RES3    0.0000
    127 C53        0.2663   19.7353   23.0498 C.ar      3 RES3    0.0000
    128 C54        1.1649   18.8599   22.4031 C.ar      3 RES3    0.0000
    129 N5        -3.7687    8.2683   18.1039 N.3       4 RES4    0.0000
    130 N6        -4.2863    9.0153   18.1993 Du        6 SUP6    0.0000
    131 O5        -3.6929    7.9039   19.3555 O.2       4 RES4    0.0000
    132 O6        -4.4667    8.9790   19.4509 Du        6 SUP6    0.0000
    133 C55       -1.7583    9.4620   18.4273 C.3       4 RES4    0.0000
    134 H67       -1.3323    8.6160   18.1783 H         4 RES4    0.0000
    135 H68       -1.8646    9.4997   19.4020 H         4 RES4    0.0000
    136 H69       -1.1971   10.2090   18.1295 H         4 RES4    0.0000
    137 C56       -1.8345    9.8432   18.4156 Du        6 SUP6    0.0000
    138 H70       -1.3791    9.0627   18.0388 Du        6 SUP6    0.0000
    139 H71       -1.9104    9.7399   19.3857 Du        6 SUP6    0.0000
    140 H72       -1.3170   10.6516   18.2132 Du        6 SUP6    0.0000
    141 C57       -3.9262   10.7186   18.3900 C.3       4 RES4    0.0000
    142 H73       -4.0183   10.5706   19.3555 H         4 RES4    0.0000
    143 H74       -4.8151   10.7591   17.9806 H         4 RES4    0.0000
    144 H75       -3.4565   11.5633   18.2319 H         4 RES4    0.0000
    145 C58       -3.6090   11.4139   18.1667 Du        6 SUP6    0.0000
    146 H76       -3.4103   11.5703   19.1136 Du        6 SUP6    0.0000
    147 H77       -4.5660   11.5577   18.0062 Du        6 SUP6    0.0000
    148 H78       -3.0887   12.0352   17.6177 Du        6 SUP6    0.0000
    149 C59       -3.1252    9.5570   17.7666 C.3       4 RES4    0.0000
    150 C60       -3.2411    9.9661   17.7991 Du        6 SUP6    0.0000
    151 C61       -4.8408    7.5646   17.3455 C.3       4 RES4    0.0000
    152 C62       -4.9374    7.9276   17.3432 Du        6 SUP6    0.0000
    153 C63       -6.2153    7.8355   17.9457 C.3       4 RES4    0.0000
    154 H79       -6.4472    8.7793   17.8201 H         4 RES4    0.0000
    155 H80       -6.2007    7.6274   18.9042 H         4 RES4    0.0000
    156 H81       -6.8836    7.2728   17.5014 H         4 RES4    0.0000
    157 C64       -6.3526    8.1119   17.8782 Du        6 SUP6    0.0000
    158 H82       -6.9691    7.5381   17.3851 Du        6 SUP6    0.0000
    159 H83       -6.6221    9.0530   17.7643 Du        6 SUP6    0.0000
    160 H84       -6.3736    7.8843   18.8297 Du        6 SUP6    0.0000
    161 C65       -4.5804    6.0679   17.5083 C.3       4 RES4    0.0000
    162 H85       -4.5129    5.8487   18.4622 H         4 RES4    0.0000
    163 H86       -3.7417    5.8319   17.0594 H         4 RES4    0.0000
    164 H87       -5.3188    5.5625   17.1082 H         4 RES4    0.0000
    165 C66       -4.3332    6.5789   17.7759 Du        6 SUP6    0.0000
    166 H88       -3.3714    6.5761   17.5851 Du        6 SUP6    0.0000
    167 H89       -4.7676    5.8529   17.2804 Du        6 SUP6    0.0000
    168 H90       -4.4762    6.4504   18.7367 Du        6 SUP6    0.0000
    169 C67       -4.8008    8.0226   15.8845 C.ar      4 RES4    0.0000
    170 C68       -5.6197    7.3538   15.0121 C.ar      4 RES4    0.0000
    171 H91       -6.2215    6.7032   15.3518 H         4 RES4    0.0000
    172 C69       -5.5928    7.5981   13.6512 C.ar      4 RES4    0.0000
    173 H92       -6.1991    7.1444   13.0789 H         4 RES4    0.0000
    174 C70       -4.7064    8.4861   13.1301 C.ar      4 RES4    0.0000
    175 H93       -4.6651    8.6187   12.1926 H         4 RES4    0.0000
    176 C71       -3.8325    9.2233   13.9978 C.ar      4 RES4    0.0000
    177 C72       -2.9369   10.1671   13.4698 C.ar      4 RES4    0.0000
    178 H94       -2.8946   10.3207   12.5345 H         4 RES4    0.0000
    179 C73       -2.1281   10.8624   14.3235 C.ar      4 RES4    0.0000
    180 H95       -1.5090   11.4893   13.9676 H         4 RES4    0.0000
    181 C74       -2.1916   10.6726   15.7310 C.ar      4 RES4    0.0000
    182 H96       -1.6361   11.1878   16.3033 H         4 RES4    0.0000
    183 C75       -3.0425    9.7539   16.2544 C.ar      4 RES4    0.0000
    184 C76       -3.8848    8.9762   15.3937 C.ar      4 RES4    0.0000
    185 N7        -3.7137   15.0831   22.8309 N.3       5 RES5    0.0000
    186 O7        -3.5722   14.8290   24.0857 O.2       5 RES5    0.0000
    187 C77       -1.6729   16.3732   22.9451 C.3       5 RES5    0.0000
    188 H97       -1.1707   15.5983   22.6148 H         5 RES5    0.0000
    189 H98       -1.7122   16.3453   23.9245 H         5 RES5    0.0000
    190 H99       -1.2246   17.1970   22.6590 H         5 RES5    0.0000
    191 C78       -3.8917   17.5293   22.9125 C.3       5 RES5    0.0000
    192 H100      -3.9086   17.4972   23.8919 H         5 RES5    0.0000
    193 H101      -4.8090   17.4874   22.5682 H         5 RES5    0.0000
    194 H102      -3.4709   18.3642   22.6194 H         5 RES5    0.0000
    195 C79       -3.0917   16.3411   22.3751 C.3       5 RES5    0.0000
    196 C80       -4.7950   14.3124   22.1588 C.3       5 RES5    0.0000
    197 C81       -4.5274   12.8311   22.4356 C.3       5 RES5    0.0000
    198 H103      -4.4985   12.6803   23.4034 H         5 RES5    0.0000
    199 H104      -3.6704   12.5742   22.0378 H         5 RES5    0.0000
    200 H105      -5.2445   12.2921   22.0425 H         5 RES5    0.0000
    201 C82       -6.1298   14.7453   22.7985 C.3       5 RES5    0.0000
    202 H106      -6.2590   15.7073   22.6613 H         5 RES5    0.0000
    203 H107      -6.1101   14.5512   23.7593 H         5 RES5    0.0000
    204 H108      -6.8662   14.2538   22.3798 H         5 RES5    0.0000
    205 C83       -4.8089   14.5973   20.6722 C.ar      5 RES5    0.0000
    206 C84       -5.6827   13.8712   19.8882 C.ar      5 RES5    0.0000
    207 H109      -6.2682   13.2457   20.2977 H         5 RES5    0.0000
    208 C85       -5.7168   14.0430   18.4947 C.ar      5 RES5    0.0000
    209 H110      -6.3211   13.5320   17.9690 H         5 RES5    0.0000
    210 C86       -4.9148   14.9086   17.9108 C.ar      5 RES5    0.0000
    211 H111      -4.9386   14.9826   16.9640 H         5 RES5    0.0000
    212 C87       -4.0115   15.7408   18.6413 C.ar      5 RES5    0.0000
    213 C88       -3.1780   16.6539   18.0411 C.ar      5 RES5    0.0000
    214 H112      -3.2079   16.7656   17.0989 H         5 RES5    0.0000
    215 C89       -2.3103   17.4022   18.7786 C.ar      5 RES5    0.0000
    216 H113      -1.7237   18.0124   18.3482 H         5 RES5    0.0000
    217 C90       -2.2812   17.2668   20.2163 C.ar      5 RES5    0.0000
    218 H114      -1.6902   17.8071   20.7257 H         5 RES5    0.0000
    219 C91       -3.0984   16.3663   20.8583 C.ar      5 RES5    0.0000
    220 C92       -3.9651   15.5746   20.0813 C.ar      5 RES5    0.0000
@<TRIPOS>BOND
     1    1    3 1
     2    5    6 1
     3    7    5 1
     4    8    5 1
     5   13   14 1
     6   15   13 1
     7   16   13 1
     8   22    1 1
     9   23    1 1
    10   25   23 1
    11   26   25 1
    12   27   25 1
    13   28   25 1
    14   33   23 1
    15   34   33 1
    16   35   33 1
    17   36   33 1
    18   41   23 1
    19   42   41 ar
    20   43   42 1
    21   44   42 ar
    22   45   44 1
    23   46   44 ar
    24   47   46 1
    25   48   46 ar
    26   49   48 ar
    27   50   49 1
    28   51   49 ar
    29   52   51 1
    30   53   51 ar
    31   54   53 1
    32   55   22 1
    33   56   41 ar
    34   57   58 1
    35   59   60 1
    36   61   59 1
    37   62   59 1
    38   63   64 1
    39   65   63 1
    40   66   63 1
    41   67   57 1
    42   68   57 1
    43   69   68 1
    44   70   69 1
    45   71   69 1
    46   72   69 1
    47   73   68 1
    48   74   73 1
    49   75   73 1
    50   76   73 1
    51   77   68 1
    52   78   77 ar
    53   79   78 1
    54   80   78 ar
    55   81   80 1
    56   82   80 ar
    57   83   82 1
    58   84   82 ar
    59   85   84 ar
    60   86   85 1
    61   87   85 ar
    62   88   87 1
    63   89   87 ar
    64   90   89 1
    65   91   67 1
    66   92   77 ar
    67   93   94 1
    68   95   96 1
    69   97   95 1
    70   98   95 1
    71   99  100 1
    72  101   99 1
    73  102   99 1
    74  103   93 1
    75  104   93 1
    76  105  104 1
    77  106  105 1
    78  107  105 1
    79  108  105 1
    80  109  104 1
    81  110  109 1
    82  111  109 1
    83  112  109 1
    84  113  104 1
    85  114  113 ar
    86  115  114 1
    87  116  114 ar
    88  117  116 1
    89  118  116 ar
    90  119  118 1
    91  120  118 ar
    92  121  120 ar
    93  122  121 1
    94  123  121 ar
    95  124  123 1
    96  125  123 ar
    97  126  125 1
    98  127  103 1
    99  128  113 ar
   100  129  131 1
   101  133  134 1
   102  135  133 1
   103  136  133 1
   104  141  142 1
   105  143  141 1
   106  144  141 1
   107  149  129 1
   108  151  129 1
   109  153  151 1
   110  154  153 1
   111  155  153 1
   112  156  153 1
   113  161  151 1
   114  162  161 1
   115  163  161 1
   116  164  161 1
   117  169  151 1
   118  170  169 ar
   119  171  170 1
   120  172  170 ar
   121  173  172 1
   122  174  172 ar
   123  175  174 1
   124  176  174 ar
   125  177  176 ar
   126  178  177 1
   127  179  177 ar
   128  180  179 1
   129  181  179 ar
   130  182  181 1
   131  183  149 1
   132  184  169 ar
   133  185  186 1
   134  187  188 1
   135  189  187 1
   136  190  187 1
   137  191  192 1
   138  193  191 1
   139  194  191 1
   140  195  185 1
   141  196  185 1
   142  197  196 1
   143  198  197 1
   144  199  197 1
   145  200  197 1
   146  201  196 1
   147  202  201 1
   148  203  201 1
   149  204  201 1
   150  205  196 1
   151  206  205 ar
   152  207  206 1
   153  208  206 ar
   154  209  208 1
   155  210  208 ar
   156  211  210 1
   157  212  210 ar
   158  213  212 ar
   159  214  213 1
   160  215  213 ar
   161  216  215 1
   162  217  215 ar
   163  218  217 1
   164  219  195 1
   165  220  205 ar
   166    5   22 1
   167   13   22 1
   168   48   56 ar
   169   53   55 ar
   170   55   56 ar
   171   59   67 1
   172   63   67 1
   173   84   92 ar
   174   89   91 ar
   175   91   92 ar
   176   95  103 1
   177   99  103 1
   178  120  128 ar
   179  125  127 ar
   180  127  128 ar
   181  133  149 1
   182  141  149 1
   183  176  184 ar
   184  181  183 ar
   185  183  184 ar
   186  187  195 1
   187  191  195 1
   188  212  220 ar
   189  217  219 ar
   190  219  220 ar
@<TRIPOS>SUBSTRUCTURE
     1 RES1 1
     2 RES2 57
     3 RES3 93
     4 RES4 129
     5 RES5 185
     6 SUP6 2

@<TRIPOS>CRYSIN
  20.3370   13.9620   25.3850  90.0000 113.5890  90.0000   9 1

