# MOL2 file generated by ConQuest
# Please check atom types

@<TRIPOS>MOLECULE
SIRWUM
    36    38     1
SMALL
NO_CHARGES
****
Generated from CSD

@<TRIPOS>ATOM
      1 C1         7.0029    0.2235    6.5479 C.3       1 RES1    0.0000
      2 H1         6.2090   -0.3490    6.4958 H         1 RES1    0.0000
      3 H2         6.8703    1.0175    5.9885 H         1 RES1    0.0000
      4 H3         7.1468    0.4980    7.4774 H         1 RES1    0.0000
      5 C2         8.2705   -0.9879    4.5188 C.3       1 RES1    0.0000
      6 H4         9.0399   -1.5665    4.3324 H         1 RES1    0.0000
      7 H5         8.3276   -0.1806    3.9663 H         1 RES1    0.0000
      8 H6         7.4428   -1.4675    4.3118 H         1 RES1    0.0000
      9 C3         8.2756   -0.5858    6.0283 C.3       1 RES1    0.0000
     10 C4         9.5645    0.1021    6.3957 C.ar      1 RES1    0.0000
     11 C5        10.0288    1.3032    5.9227 C.ar      1 RES1    0.0000
     12 H7         9.5216    1.7921    5.2852 H         1 RES1    0.0000
     13 C6        11.2474    1.8074    6.3793 C.ar      1 RES1    0.0000
     14 C7        11.7729    3.0504    5.9200 C.ar      1 RES1    0.0000
     15 H8        11.2831    3.5627    5.2879 H         1 RES1    0.0000
     16 C8        12.9854    3.5188    6.3847 C.ar      1 RES1    0.0000
     17 H9        13.3242    4.3475    6.0667 H         1 RES1    0.0000
     18 N1         8.3939   -1.8115    6.8550 N.3       1 RES1    0.0000
     19 O1         7.4877   -2.7177    6.8550 O.2       1 RES1    0.0000
     20 C1E       10.4289   -3.2025    7.1621 C.3       1 RES1    0.0000
     21 H1E        9.8564   -3.9964    7.2142 H         1 RES1    0.0000
     22 H2E       11.2229   -3.3351    7.7215 H         1 RES1    0.0000
     23 H3E       10.7034   -3.0586    6.2326 H         1 RES1    0.0000
     24 C2E        9.2175   -1.9349    9.1912 C.3       1 RES1    0.0000
     25 H4E        8.6389   -1.1655    9.3776 H         1 RES1    0.0000
     26 H5E       10.0248   -1.8778    9.7437 H         1 RES1    0.0000
     27 H6E        8.7379   -2.7626    9.3982 H         1 RES1    0.0000
     28 C3E        9.6196   -1.9298    7.6817 C.3       1 RES1    0.0000
     29 C4E       10.3075   -0.6409    7.3143 C.ar      1 RES1    0.0000
     30 C5E       11.5086   -0.1766    7.7873 C.ar      1 RES1    0.0000
     31 H7E       11.9975   -0.6838    8.4248 H         1 RES1    0.0000
     32 C6E       12.0128    1.0420    7.3307 C.ar      1 RES1    0.0000
     33 C7E       13.2558    1.5675    7.7900 C.ar      1 RES1    0.0000
     34 H8E       13.7681    1.0777    8.4221 H         1 RES1    0.0000
     35 C8E       13.7242    2.7800    7.3253 C.ar      1 RES1    0.0000
     36 H9E       14.5529    3.1188    7.6433 H         1 RES1    0.0000
@<TRIPOS>BOND
     1    1    2 1
     2    3    1 1
     3    4    1 1
     4    5    6 1
     5    7    5 1
     6    8    5 1
     7    9    1 1
     8   10    9 1
     9   11   10 ar
    10   12   11 1
    11   13   11 ar
    12   14   13 ar
    13   15   14 1
    14   16   14 ar
    15   17   16 1
    16   18    9 1
    17   19   18 1
    18   20   21 1
    19   22   20 1
    20   23   20 1
    21   24   25 1
    22   26   24 1
    23   27   24 1
    24   28   18 1
    25   29   10 ar
    26   30   29 ar
    27   31   30 1
    28   32   13 ar
    29   33   32 ar
    30   34   33 1
    31   35   16 ar
    32   36   35 1
    33    5    9 1
    34   20   28 1
    35   24   28 1
    36   28   29 1
    37   30   32 ar
    38   33   35 ar
@<TRIPOS>SUBSTRUCTURE
     1 RES1 1

@<TRIPOS>CRYSIN
  10.2054   10.2054   13.7100  90.0000  90.0000  90.0000  96 1

