# MOL2 file generated by ConQuest
# Please check atom types

@<TRIPOS>MOLECULE
SIRXUM
    80    84     2
SMALL
NO_CHARGES
****
Generated from CSD

@<TRIPOS>ATOM
      1 O1         9.9416   -1.0777  -12.8699 O.2       1 RES1    0.0000
      2 O2         9.5769   -0.1802  -10.9304 O.2       1 RES1    0.0000
      3 N1        14.5507   -5.3098   -9.9923 N.2       1 RES1    0.0000
      4 N2        10.1869   -0.9468  -11.6710 N.pl3     1 RES1    0.0000
      5 C1        14.2570   -4.2416   -9.3601 C.2       1 RES1    0.0000
      6 C2        13.2307   -3.3441   -9.9749 C.ar      1 RES1    0.0000
      7 C3        12.7045   -3.6585  -11.2311 C.ar      1 RES1    0.0000
      8 C4        11.7304   -2.8524  -11.8030 C.ar      1 RES1    0.0000
      9 C5        11.2655   -1.7667  -11.0961 C.ar      1 RES1    0.0000
     10 C6        11.7644   -1.4255   -9.8593 C.ar      1 RES1    0.0000
     11 C7        12.7604   -2.2173   -9.3151 C.ar      1 RES1    0.0000
     12 C8        15.4283   -6.2807   -9.4409 C.ar      1 RES1    0.0000
     13 C9        15.0477   -7.0653   -8.3658 C.ar      1 RES1    0.0000
     14 C10       15.8624   -8.1157   -7.9495 C.ar      1 RES1    0.0000
     15 C11       17.0508   -8.4074   -8.5909 C.ar      1 RES1    0.0000
     16 C12       17.4173   -7.6055   -9.6558 C.ar      1 RES1    0.0000
     17 C13       16.6151   -6.5675  -10.0997 C.ar      1 RES1    0.0000
     18 C14       17.9164   -9.5616   -8.1622 C.3       1 RES1    0.0000
     19 C15       14.9035   -3.8105   -8.0743 C.ar      1 RES1    0.0000
     20 C16       14.2821   -3.9385   -6.8569 C.ar      1 RES1    0.0000
     21 C17       14.9266   -3.5142   -5.6979 C.ar      1 RES1    0.0000
     22 C18       16.1844   -2.9730   -5.7644 C.ar      1 RES1    0.0000
     23 C19       16.7863   -2.8492   -6.9705 C.ar      1 RES1    0.0000
     24 C20       16.1687   -3.2752   -8.1285 C.ar      1 RES1    0.0000
     25 O3         8.9734   -2.3027   -0.9483 O.2       2 RES2    0.0000
     26 O4         8.6285   -1.1657    0.8460 O.2       2 RES2    0.0000
     27 N3         5.7319    3.5646   -3.2694 N.2       2 RES2    0.0000
     28 N4         8.4536   -1.3633   -0.3314 N.pl3     2 RES2    0.0000
     29 C21        5.4757    2.3307   -3.4760 C.2       2 RES2    0.0000
     30 C22        6.1488    1.3358   -2.5953 C.ar      2 RES2    0.0000
     31 C23        6.2623    0.0106   -2.9697 C.ar      2 RES2    0.0000
     32 C24        7.0163   -0.8882   -2.2403 C.ar      2 RES2    0.0000
     33 C25        7.6056   -0.4372   -1.0854 C.ar      2 RES2    0.0000
     34 C26        7.4668    0.8438   -0.6516 C.ar      2 RES2    0.0000
     35 C27        6.7539    1.7532   -1.4137 C.ar      2 RES2    0.0000
     36 C28        5.1465    4.5904   -4.0509 C.ar      2 RES2    0.0000
     37 C29        3.7788    4.8181   -4.0837 C.ar      2 RES2    0.0000
     38 C30        3.2723    5.8964   -4.7752 C.ar      2 RES2    0.0000
     39 C31        4.0860    6.7918   -5.4493 C.ar      2 RES2    0.0000
     40 C32        5.4508    6.5511   -5.4002 C.ar      2 RES2    0.0000
     41 C33        5.9789    5.4811   -4.7005 C.ar      2 RES2    0.0000
     42 C34        3.5376    7.9683   -6.2063 C.3       2 RES2    0.0000
     43 C35        4.6298    1.7970   -4.6003 C.ar      2 RES2    0.0000
     44 C36        3.4457    1.1377   -4.3374 C.ar      2 RES2    0.0000
     45 C37        2.7013    0.6306   -5.3890 C.ar      2 RES2    0.0000
     46 C38        3.1252    0.7655   -6.6748 C.ar      2 RES2    0.0000
     47 C39        4.2923    1.4231   -6.9408 C.ar      2 RES2    0.0000
     48 C40        5.0456    1.9444   -5.8974 C.ar      2 RES2    0.0000
     49 H1        13.0196   -4.4294  -11.6925 H         1 RES1    0.0000
     50 H2        11.3886   -3.0509  -12.6643 H         1 RES1    0.0000
     51 H3        11.4339   -0.6643   -9.3908 H         1 RES1    0.0000
     52 H4        13.1270   -1.9819   -8.4702 H         1 RES1    0.0000
     53 H5        14.2376   -6.8942   -7.9075 H         1 RES1    0.0000
     54 H6        15.5937   -8.6477   -7.2119 H         1 RES1    0.0000
     55 H7        18.2488   -7.7732  -10.0967 H         1 RES1    0.0000
     56 H8        16.8784   -6.0532  -10.8537 H         1 RES1    0.0000
     57 H9        17.5164  -10.0015   -7.4165 H         1 RES1    0.0000
     58 H10       18.7803   -9.2436   -7.9178 H         1 RES1    0.0000
     59 H11       18.0044  -10.1800   -8.8793 H         1 RES1    0.0000
     60 H12       13.4122   -4.3155   -6.8027 H         1 RES1    0.0000
     61 H13       14.4967   -3.5987   -4.8591 H         1 RES1    0.0000
     62 H14       16.6305   -2.6891   -4.9716 H         1 RES1    0.0000
     63 H15       17.6545   -2.4580   -7.0175 H         1 RES1    0.0000
     64 H16       16.6237   -3.2028   -8.9612 H         1 RES1    0.0000
     65 H17        5.8178   -0.2917   -3.7543 H         2 RES2    0.0000
     66 H18        7.1267   -1.7918   -2.5267 H         2 RES2    0.0000
     67 H19        7.8623    1.1129    0.1739 H         2 RES2    0.0000
     68 H20        6.6780    2.6570   -1.1355 H         2 RES2    0.0000
     69 H21        3.1862    4.2295   -3.6315 H         2 RES2    0.0000
     70 H22        2.3320    6.0256   -4.7875 H         2 RES2    0.0000
     71 H23        6.0369    7.1333   -5.8616 H         2 RES2    0.0000
     72 H24        6.9151    5.3643   -4.6647 H         2 RES2    0.0000
     73 H25        2.5927    7.9768   -6.1378 H         2 RES2    0.0000
     74 H26        3.7882    7.9023   -7.1198 H         2 RES2    0.0000
     75 H27        3.8892    8.7786   -5.8411 H         2 RES2    0.0000
     76 H28        3.1417    1.0386   -3.4474 H         2 RES2    0.0000
     77 H29        1.8827    0.1844   -5.2069 H         2 RES2    0.0000
     78 H30        2.6109    0.4082   -7.3858 H         2 RES2    0.0000
     79 H31        4.5882    1.5255   -7.8359 H         2 RES2    0.0000
     80 H32        5.8546    2.4115   -6.0866 H         2 RES2    0.0000
@<TRIPOS>BOND
     1    1    4 2
     2    2    4 2
     3    3    5 2
     4    4    9 1
     5    5    6 1
     6    6    7 ar
     7    7    8 ar
     8    8    9 ar
     9    9   10 ar
    10   10   11 ar
    11   11    6 ar
    12   12    3 1
    13   13   12 ar
    14   14   13 ar
    15   15   14 ar
    16   16   15 ar
    17   17   12 ar
    18   18   15 1
    19   19    5 1
    20   20   19 ar
    21   21   20 ar
    22   22   21 ar
    23   23   22 ar
    24   24   19 ar
    25   25   28 2
    26   26   28 2
    27   27   29 2
    28   28   33 1
    29   29   30 1
    30   30   31 ar
    31   31   32 ar
    32   32   33 ar
    33   33   34 ar
    34   34   35 ar
    35   35   30 ar
    36   36   27 1
    37   37   36 ar
    38   38   37 ar
    39   39   38 ar
    40   40   39 ar
    41   41   36 ar
    42   42   39 1
    43   43   29 1
    44   44   43 ar
    45   45   44 ar
    46   46   45 ar
    47   47   46 ar
    48   48   43 ar
    49   49    7 1
    50   50    8 1
    51   51   10 1
    52   52   11 1
    53   53   13 1
    54   54   14 1
    55   55   16 1
    56   56   17 1
    57   57   18 1
    58   58   18 1
    59   59   18 1
    60   60   20 1
    61   61   21 1
    62   62   22 1
    63   63   23 1
    64   64   24 1
    65   65   31 1
    66   66   32 1
    67   67   34 1
    68   68   35 1
    69   69   37 1
    70   70   38 1
    71   71   40 1
    72   72   41 1
    73   73   42 1
    74   74   42 1
    75   75   42 1
    76   76   44 1
    77   77   45 1
    78   78   46 1
    79   79   47 1
    80   80   48 1
    81   16   17 ar
    82   23   24 ar
    83   40   41 ar
    84   47   48 ar
@<TRIPOS>SUBSTRUCTURE
     1 RES1 1
     2 RES2 25

@<TRIPOS>CRYSIN
  11.6170   14.4570   11.2860 104.8900 105.1400 104.3400   2 1

