# MOL2 file generated by ConQuest
# Please check atom types

@<TRIPOS>MOLECULE
SIRXOG
   120   126     3
SMALL
NO_CHARGES
****
Generated from CSD

@<TRIPOS>ATOM
      1 N1         3.2288    3.1834    5.4972 N.2       1 RES1    0.0000
      2 C1         4.3963    3.2021    6.0153 C.2       1 RES1    0.0000
      3 C2         4.6816    3.6657    7.4131 C.ar      1 RES1    0.0000
      4 C3         5.2129    2.7922    8.3453 C.ar      1 RES1    0.0000
      5 C4         5.4794    3.2268    9.6309 C.ar      1 RES1    0.0000
      6 C5         5.2148    4.5204    9.9500 C.ar      1 RES1    0.0000
      7 C6         4.7222    5.4168    9.0453 C.ar      1 RES1    0.0000
      8 C7         4.4453    4.9744    7.7745 C.ar      1 RES1    0.0000
      9 N2         5.4940    4.9933   11.3238 N.pl3     1 RES1    0.0000
     10 O1         5.0830    6.0467   11.6749 O.2       1 RES1    0.0000
     11 O2         6.1690    4.3014   11.9918 O.2       1 RES1    0.0000
     12 C8         2.0663    3.5125    6.2590 C.ar      1 RES1    0.0000
     13 C9         1.3190    4.6182    5.9158 C.ar      1 RES1    0.0000
     14 C10        0.1249    4.8717    6.5701 C.ar      1 RES1    0.0000
     15 C11       -0.3500    4.0362    7.5435 C.ar      1 RES1    0.0000
     16 C12        0.4010    2.9404    7.8694 C.ar      1 RES1    0.0000
     17 C13        1.6110    2.6727    7.2552 C.ar      1 RES1    0.0000
     18 C14       -1.6938    4.2690    8.2252 C.3       1 RES1    0.0000
     19 C15        5.5379    2.8099    5.1540 C.ar      1 RES1    0.0000
     20 C16        6.8420    3.1750    5.4903 C.ar      1 RES1    0.0000
     21 C17        7.8894    2.8739    4.6359 C.ar      1 RES1    0.0000
     22 C18        7.6628    2.2111    3.4623 C.ar      1 RES1    0.0000
     23 C19        6.3803    1.8242    3.1283 C.ar      1 RES1    0.0000
     24 C20        5.3279    2.1128    3.9656 C.ar      1 RES1    0.0000
     25 N3         1.5870    1.3168    1.2250 N.2       2 RES2    0.0000
     26 C21        2.4244    2.2211    0.9151 C.2       2 RES2    0.0000
     27 C22        2.2438    3.6739    1.2205 C.ar      2 RES2    0.0000
     28 C23        1.2150    4.4043    0.6440 C.ar      2 RES2    0.0000
     29 C24        1.0396    5.7305    0.9551 C.ar      2 RES2    0.0000
     30 C25        1.8765    6.3152    1.8633 C.ar      2 RES2    0.0000
     31 C26        2.9016    5.6218    2.4558 C.ar      2 RES2    0.0000
     32 C27        3.0896    4.3088    2.1126 C.ar      2 RES2    0.0000
     33 N4         1.6767    7.7205    2.2282 N.pl3     2 RES2    0.0000
     34 O3         0.8987    8.3836    1.5750 O.2       2 RES2    0.0000
     35 O4         2.2734    8.1670    3.1787 O.2       2 RES2    0.0000
     36 C28        0.4071    1.6404    1.9616 C.ar      2 RES2    0.0000
     37 C29       -0.8312    1.4252    1.3760 C.ar      2 RES2    0.0000
     38 C30       -1.9785    1.6854    2.0943 C.ar      2 RES2    0.0000
     39 C31       -1.9357    2.1248    3.3983 C.ar      2 RES2    0.0000
     40 C32       -0.6990    2.3080    3.9805 C.ar      2 RES2    0.0000
     41 C33        0.4667    2.0652    3.2736 C.ar      2 RES2    0.0000
     42 C34       -3.2059    2.3870    4.1669 C.3       2 RES2    0.0000
     43 C35        3.6589    1.8173    0.1944 C.ar      2 RES2    0.0000
     44 C36        4.3747    2.7289   -0.5548 C.ar      2 RES2    0.0000
     45 C37        5.5108    2.3388   -1.2525 C.ar      2 RES2    0.0000
     46 C38        5.9335    1.0410   -1.1896 C.ar      2 RES2    0.0000
     47 C39        5.2401    0.1328   -0.4461 C.ar      2 RES2    0.0000
     48 C40        4.0995    0.5047    0.2425 C.ar      2 RES2    0.0000
     49 N5         1.0379   -3.3073    1.6745 N.2       3 RES3    0.0000
     50 C41        2.2650   -3.2106    1.9994 C.2       3 RES3    0.0000
     51 C42        2.7438   -2.6959    3.3216 C.ar      3 RES3    0.0000
     52 C43        3.3405   -3.5565    4.2321 C.ar      3 RES3    0.0000
     53 C44        3.8086   -3.0791    5.4400 C.ar      3 RES3    0.0000
     54 C45        3.6883   -1.7473    5.7054 C.ar      3 RES3    0.0000
     55 C46        3.0909   -0.8589    4.8303 C.ar      3 RES3    0.0000
     56 C47        2.6180   -1.3595    3.6339 C.ar      3 RES3    0.0000
     57 N6         4.2102   -1.2334    6.9876 N.pl3     3 RES3    0.0000
     58 O5         4.7571   -2.0183    7.7402 O.2       3 RES3    0.0000
     59 O6         4.0646   -0.0564    7.2335 O.2       3 RES3    0.0000
     60 C48       -0.0175   -3.0588    2.5953 C.ar      3 RES3    0.0000
     61 C49       -0.3150   -3.9561    3.5927 C.ar      3 RES3    0.0000
     62 C50       -1.4559   -3.7912    4.3556 C.ar      3 RES3    0.0000
     63 C51       -2.3104   -2.7256    4.1578 C.ar      3 RES3    0.0000
     64 C52       -1.9839   -1.8304    3.1764 C.ar      3 RES3    0.0000
     65 C53       -0.8623   -1.9892    2.3894 C.ar      3 RES3    0.0000
     66 C54       -3.5679   -2.5841    4.9847 C.3       3 RES3    0.0000
     67 C55        3.2959   -3.6109    1.0077 C.ar      3 RES3    0.0000
     68 C56        2.9312   -4.3601   -0.0972 C.ar      3 RES3    0.0000
     69 C57        3.8780   -4.7200   -1.0363 C.ar      3 RES3    0.0000
     70 C58        5.1765   -4.3303   -0.8956 C.ar      3 RES3    0.0000
     71 C59        5.5544   -3.5915    0.1853 C.ar      3 RES3    0.0000
     72 C60        4.6183   -3.2239    1.1472 C.ar      3 RES3    0.0000
     73 H1         5.3835    1.8968    8.1165 H         1 RES1    0.0000
     74 H2         5.8566    2.6565   10.2715 H         1 RES1    0.0000
     75 H3         4.5781    6.3059    9.3175 H         1 RES1    0.0000
     76 H4         4.0909    5.5909    7.1546 H         1 RES1    0.0000
     77 H5         1.6498    5.2047    5.2387 H         1 RES1    0.0000
     78 H6        -0.4314    5.6121    6.3642 H         1 RES1    0.0000
     79 H7         0.0381    2.3784    8.5592 H         1 RES1    0.0000
     80 H8         2.1379    1.9034    7.4714 H         1 RES1    0.0000
     81 H9        -2.0516    5.0735    7.8980 H         1 RES1    0.0000
     82 H10       -1.5629    4.3412    9.1757 H         1 RES1    0.0000
     83 H11       -2.2554    3.5417    8.0399 H         1 RES1    0.0000
     84 H12        7.0009    3.6134    6.3196 H         1 RES1    0.0000
     85 H13        8.7642    3.1134    4.8990 H         1 RES1    0.0000
     86 H14        8.3804    2.0475    2.8847 H         1 RES1    0.0000
     87 H15        6.2276    1.3709    2.3128 H         1 RES1    0.0000
     88 H16        4.4534    1.8186    3.7563 H         1 RES1    0.0000
     89 H17        0.6323    3.9816    0.0206 H         2 RES2    0.0000
     90 H18        0.3538    6.2592    0.5307 H         2 RES2    0.0000
     91 H19        3.4563    6.0474    3.1032 H         2 RES2    0.0000
     92 H20        3.8294    3.8225    2.4649 H         2 RES2    0.0000
     93 H21       -0.8756    1.1202    0.4815 H         2 RES2    0.0000
     94 H22       -2.8170    1.5646    1.6894 H         2 RES2    0.0000
     95 H23       -0.6600    2.5938    4.8784 H         2 RES2    0.0000
     96 H24        1.3156    2.1920    3.6785 H         2 RES2    0.0000
     97 H25       -2.9938    2.6875    5.0236 H         2 RES2    0.0000
     98 H26       -3.7109    1.5873    4.2001 H         2 RES2    0.0000
     99 H27       -3.7163    3.0555    3.7002 H         2 RES2    0.0000
    100 H28        4.0713    3.6278   -0.5879 H         2 RES2    0.0000
    101 H29        5.9880    2.9640   -1.7912 H         2 RES2    0.0000
    102 H30        6.7265    0.7720   -1.6391 H         2 RES2    0.0000
    103 H31        5.5584   -0.7570   -0.3992 H         2 RES2    0.0000
    104 H32        3.6005   -0.1276    0.7515 H         2 RES2    0.0000
    105 H33        3.4419   -4.4732    4.0136 H         3 RES3    0.0000
    106 H34        4.2710   -3.6246    5.9501 H         3 RES3    0.0000
    107 H35        3.0060    0.0594    5.0625 H         3 RES3    0.0000
    108 H36        2.2038   -0.7637    3.0174 H         3 RES3    0.0000
    109 H37        0.2538   -4.6909    3.7574 H         3 RES3    0.0000
    110 H38       -1.6701   -4.4080    5.0522 H         3 RES3    0.0000
    111 H39       -2.5540   -1.0941    3.0403 H         3 RES3    0.0000
    112 H40       -0.6467   -1.3711    1.7077 H         3 RES3    0.0000
    113 H41       -4.0408   -1.7966    4.6874 H         3 RES3    0.0000
    114 H42       -3.3395   -2.5050    5.8758 H         3 RES3    0.0000
    115 H43       -4.1269   -3.3378    4.8303 H         3 RES3    0.0000
    116 H44        2.0291   -4.6078   -0.2070 H         3 RES3    0.0000
    117 H45        3.6193   -5.2602   -1.7866 H         3 RES3    0.0000
    118 H46        5.8148   -4.5460   -1.5602 H         3 RES3    0.0000
    119 H47        6.4612   -3.3388    0.2699 H         3 RES3    0.0000
    120 H48        4.8968   -2.7104    1.8964 H         3 RES3    0.0000
@<TRIPOS>BOND
     1    1    2 2
     2    2    3 1
     3    3    4 ar
     4    4    5 ar
     5    5    6 ar
     6    6    7 ar
     7    7    8 ar
     8    8    3 ar
     9    9    6 1
    10   10    9 2
    11   11    9 2
    12   12    1 1
    13   13   12 ar
    14   14   13 ar
    15   15   14 ar
    16   16   15 ar
    17   17   12 ar
    18   18   15 1
    19   19    2 1
    20   20   19 ar
    21   21   20 ar
    22   22   21 ar
    23   23   22 ar
    24   24   19 ar
    25   25   26 2
    26   26   27 1
    27   27   28 ar
    28   28   29 ar
    29   29   30 ar
    30   30   31 ar
    31   31   32 ar
    32   32   27 ar
    33   33   30 1
    34   34   33 2
    35   35   33 2
    36   36   25 1
    37   37   36 ar
    38   38   37 ar
    39   39   38 ar
    40   40   39 ar
    41   41   36 ar
    42   42   39 1
    43   43   26 1
    44   44   43 ar
    45   45   44 ar
    46   46   45 ar
    47   47   46 ar
    48   48   43 ar
    49   49   50 2
    50   50   51 1
    51   51   52 ar
    52   52   53 ar
    53   53   54 ar
    54   54   55 ar
    55   55   56 ar
    56   56   51 ar
    57   57   54 1
    58   58   57 2
    59   59   57 2
    60   60   49 1
    61   61   60 ar
    62   62   61 ar
    63   63   62 ar
    64   64   63 ar
    65   65   60 ar
    66   66   63 1
    67   67   50 1
    68   68   67 ar
    69   69   68 ar
    70   70   69 ar
    71   71   70 ar
    72   72   67 ar
    73   73    4 1
    74   74    5 1
    75   75    7 1
    76   76    8 1
    77   77   13 1
    78   78   14 1
    79   79   16 1
    80   80   17 1
    81   81   18 1
    82   82   18 1
    83   83   18 1
    84   84   20 1
    85   85   21 1
    86   86   22 1
    87   87   23 1
    88   88   24 1
    89   89   28 1
    90   90   29 1
    91   91   31 1
    92   92   32 1
    93   93   37 1
    94   94   38 1
    95   95   40 1
    96   96   41 1
    97   97   42 1
    98   98   42 1
    99   99   42 1
   100  100   44 1
   101  101   45 1
   102  102   46 1
   103  103   47 1
   104  104   48 1
   105  105   52 1
   106  106   53 1
   107  107   55 1
   108  108   56 1
   109  109   61 1
   110  110   62 1
   111  111   64 1
   112  112   65 1
   113  113   66 1
   114  114   66 1
   115  115   66 1
   116  116   68 1
   117  117   69 1
   118  118   70 1
   119  119   71 1
   120  120   72 1
   121   16   17 ar
   122   23   24 ar
   123   40   41 ar
   124   47   48 ar
   125   64   65 ar
   126   71   72 ar
@<TRIPOS>SUBSTRUCTURE
     1 RES1 1
     2 RES2 25
     3 RES3 49

@<TRIPOS>CRYSIN
  14.7390   15.0330   12.4870 106.8000 106.0200  90.4400   2 1

