# MOL2 file generated by ConQuest
# Please check atom types

@<TRIPOS>MOLECULE
SIRXAS
    37    38     1
SMALL
NO_CHARGES
****
Generated from CSD

@<TRIPOS>ATOM
      1 O1        -0.7030    7.5618    7.7225 O.2       1 RES1    0.0000
      2 O2         0.2677    7.2036    5.8128 O.2       1 RES1    0.0000
      3 O3         2.5534    3.1335    8.9195 O.2       1 RES1    0.0000
      4 O4         4.6399    3.2814    8.3839 O.2       1 RES1    0.0000
      5 O5         2.3915    0.6320    7.9041 O.2       1 RES1    0.0000
      6 O6         2.5136    0.5757    5.7336 O.2       1 RES1    0.0000
      7 O7         5.1257    1.3608    6.3950 O.2       1 RES1    0.0000
      8 O8         4.9104    3.1960    5.2737 O.2       1 RES1    0.0000
      9 N1         0.1029    6.9914    6.9994 N.pl3     1 RES1    0.0000
     10 N2         3.4847    3.0112    8.1498 N.pl3     1 RES1    0.0000
     11 N3         2.6226    1.0985    6.8340 N.pl3     1 RES1    0.0000
     12 N4         4.5203    2.3607    6.0550 N.pl3     1 RES1    0.0000
     13 C1         2.1483    3.5622    6.0597 C.3       1 RES1    0.0000
     14 C2         2.8089    4.9309    6.2576 C.2       1 RES1    0.0000
     15 C3         2.2739    5.9149    6.9400 C.2       1 RES1    0.0000
     16 C4         0.9970    5.8674    7.6689 C.3       1 RES1    0.0000
     17 C5         0.2348    4.5559    7.4582 C.ar      1 RES1    0.0000
     18 C6        -1.0365    4.4371    8.0054 C.ar      1 RES1    0.0000
     19 C7        -1.7926    3.2963    7.8448 C.ar      1 RES1    0.0000
     20 C8        -1.2754    2.2586    7.1030 C.ar      1 RES1    0.0000
     21 C9        -0.0294    2.3572    6.5464 C.ar      1 RES1    0.0000
     22 C10        0.7791    3.4918    6.7246 C.ar      1 RES1    0.0000
     23 C11        3.1566    2.5570    6.7397 C.3       1 RES1    0.0000
     24 C12        2.0050    3.3043    4.5576 C.3       1 RES1    0.0000
     25 C13        1.1693    6.2283    9.1233 C.3       1 RES1    0.0000
     26 H1         3.7034    5.0823    5.8384 H         1 RES1    0.0000
     27 H2         2.7814    6.7758    6.9679 H         1 RES1    0.0000
     28 H3        -1.4381    5.2011    8.5981 H         1 RES1    0.0000
     29 H4        -2.6979    3.2242    8.2605 H         1 RES1    0.0000
     30 H5        -1.8133    1.4250    6.9714 H         1 RES1    0.0000
     31 H6         0.3146    1.5984    5.9933 H         1 RES1    0.0000
     32 H7         1.3593    3.9600    4.1628 H         1 RES1    0.0000
     33 H8         2.8959    3.4090    4.1128 H         1 RES1    0.0000
     34 H9         1.6672    2.3748    4.4062 H         1 RES1    0.0000
     35 H10        1.7308    5.5338    9.5751 H         1 RES1    0.0000
     36 H11        1.6177    7.1182    9.1955 H         1 RES1    0.0000
     37 H12        0.2716    6.2688    9.5658 H         1 RES1    0.0000
@<TRIPOS>BOND
     1    1    9 2
     2    2    9 2
     3    3   10 2
     4    4   10 2
     5    5   11 2
     6    6   11 2
     7    7   12 2
     8    8   12 2
     9    9   16 1
    10   10   23 1
    11   11   23 1
    12   12   23 1
    13   13   14 1
    14   14   15 2
    15   15   16 1
    16   16   17 1
    17   17   18 ar
    18   18   19 ar
    19   19   20 ar
    20   20   21 ar
    21   21   22 ar
    22   22   13 1
    23   23   13 1
    24   24   13 1
    25   25   16 1
    26   26   14 1
    27   27   15 1
    28   28   18 1
    29   29   19 1
    30   30   20 1
    31   31   21 1
    32   32   24 1
    33   33   24 1
    34   34   24 1
    35   35   25 1
    36   36   25 1
    37   37   25 1
    38   17   22 ar
@<TRIPOS>SUBSTRUCTURE
     1 RES1 1

@<TRIPOS>CRYSIN
  14.8900    8.8020   12.2470  90.0000 108.0500  90.0000  14 1

