# MOL2 file generated by ConQuest
# Please check atom types

@<TRIPOS>MOLECULE
SIRXUM01
    40    42     1
SMALL
NO_CHARGES
****
Generated from CSD

@<TRIPOS>ATOM
      1 O1        -3.6936    5.4512    7.8187 O.2       1 RES1    0.0000
      2 O2        -2.7613    5.2728    9.6765 O.2       1 RES1    0.0000
      3 N1         1.2605    1.6922    4.9054 N.2       1 RES1    0.0000
      4 N2        -2.8525    5.0068    8.5120 N.pl3     1 RES1    0.0000
      5 C1         1.2375    1.8060    6.1831 C.2       1 RES1    0.0000
      6 C2         0.1801    2.6208    6.8028 C.ar      1 RES1    0.0000
      7 C3         0.1065    2.8388    8.1838 C.ar      1 RES1    0.0000
      8 C4        -0.8556    3.6244    8.7441 C.ar      1 RES1    0.0000
      9 C5        -1.7915    4.1753    7.9121 C.ar      1 RES1    0.0000
     10 C6        -1.7903    3.9833    6.5552 C.ar      1 RES1    0.0000
     11 C7        -0.7841    3.2081    6.0020 C.ar      1 RES1    0.0000
     12 C8         2.2594    0.9265    4.2631 C.ar      1 RES1    0.0000
     13 C9         2.3211   -0.4424    4.4088 C.ar      1 RES1    0.0000
     14 C10        3.2935   -1.1727    3.7127 C.ar      1 RES1    0.0000
     15 C11        4.1988   -0.5769    2.8821 C.ar      1 RES1    0.0000
     16 C12        4.1244    0.8023    2.7322 C.ar      1 RES1    0.0000
     17 C13        3.1696    1.5399    3.4028 C.ar      1 RES1    0.0000
     18 C14        5.2257   -1.3688    2.1436 C.3       1 RES1    0.0000
     19 C15        2.2873    1.1988    7.0745 C.ar      1 RES1    0.0000
     20 C16        1.9638    0.1106    7.8569 C.ar      1 RES1    0.0000
     21 C17        2.9284   -0.4747    8.6507 C.ar      1 RES1    0.0000
     22 C18        4.1615    0.0522    8.7115 C.ar      1 RES1    0.0000
     23 C19        4.5020    1.1445    7.9630 C.ar      1 RES1    0.0000
     24 C20        3.5477    1.7214    7.1254 C.ar      1 RES1    0.0000
     25 H1         0.7508    2.4205    8.7441 H         1 RES1    0.0000
     26 H2        -0.8722    3.7872    9.6779 H         1 RES1    0.0000
     27 H3        -2.4682    4.3714    6.0133 H         1 RES1    0.0000
     28 H4        -0.7510    3.0777    5.0653 H         1 RES1    0.0000
     29 H5         1.7066   -0.8868    4.9804 H         1 RES1    0.0000
     30 H6         3.3291   -2.1179    3.8202 H         1 RES1    0.0000
     31 H7         4.7422    1.2415    2.1648 H         1 RES1    0.0000
     32 H8         3.1335    2.4831    3.2826 H         1 RES1    0.0000
     33 H9         5.7616   -0.7825    1.6271 H         1 RES1    0.0000
     34 H10        4.7947   -1.9927    1.5705 H         1 RES1    0.0000
     35 H11        5.7755   -1.8258    2.7732 H         1 RES1    0.0000
     36 H12        1.0749   -0.2400    7.8527 H         1 RES1    0.0000
     37 H13        2.7285   -1.2520    9.1544 H         1 RES1    0.0000
     38 H14        4.8135   -0.3443    9.2817 H         1 RES1    0.0000
     39 H15        5.3783    1.5024    8.0083 H         1 RES1    0.0000
     40 H16        3.7771    2.4726    6.5934 H         1 RES1    0.0000
@<TRIPOS>BOND
     1    1    4 2
     2    2    4 2
     3    3    5 2
     4    4    9 1
     5    5    6 1
     6    6    7 ar
     7    7    8 ar
     8    8    9 ar
     9    9   10 ar
    10   10   11 ar
    11   11    6 ar
    12   12    3 1
    13   13   12 ar
    14   14   13 ar
    15   15   14 ar
    16   16   15 ar
    17   17   12 ar
    18   18   15 1
    19   19    5 1
    20   20   19 ar
    21   21   20 ar
    22   22   21 ar
    23   23   22 ar
    24   24   19 ar
    25   25    7 1
    26   26    8 1
    27   27   10 1
    28   28   11 1
    29   29   13 1
    30   30   14 1
    31   31   16 1
    32   32   17 1
    33   33   18 1
    34   34   18 1
    35   35   18 1
    36   36   20 1
    37   37   21 1
    38   38   22 1
    39   39   23 1
    40   40   24 1
    41   16   17 ar
    42   23   24 ar
@<TRIPOS>SUBSTRUCTURE
     1 RES1 1

@<TRIPOS>CRYSIN
  11.6830   10.4330   14.1660  90.0000  92.8100  90.0000  14 1

