# MOL2 file generated by ConQuest
# Please check atom types

@<TRIPOS>MOLECULE
SISGUW
    51    53     1
SMALL
NO_CHARGES
****
Generated from CSD

@<TRIPOS>ATOM
      1 C1        -2.4117    0.7956   10.2464 C.3       1 RES1    0.0000
      2 C2        -2.8574    1.9879   11.0874 C.2       1 RES1    0.0000
      3 C3        -1.8193    2.9741   11.5429 C.3       1 RES1    0.0000
      4 C4        -0.6699    3.1447   10.5500 C.3       1 RES1    0.0000
      5 C5         1.2913    1.6738    9.9771 C.ar      1 RES1    0.0000
      6 C6         1.8440    0.4329    9.7363 C.ar      1 RES1    0.0000
      7 C7         1.0477   -0.6776    9.7007 C.ar      1 RES1    0.0000
      8 C8        -0.3248   -0.5749    9.8715 C.ar      1 RES1    0.0000
      9 C9        -0.9000    0.6729   10.0910 C.ar      1 RES1    0.0000
     10 C10       -0.0975    1.8027   10.1859 C.ar      1 RES1    0.0000
     11 C11        3.4044    2.7997    9.9320 C.3       1 RES1    0.0000
     12 C12       -3.9612   -0.3071    6.7886 C.3       1 RES1    0.0000
     13 C13       -3.1629   -0.4121    8.0863 C.3       1 RES1    0.0000
     14 C14       -3.2132    0.8658    8.9178 C.3       1 RES1    0.0000
     15 C15       -2.7691    2.0458    8.0377 C.3       1 RES1    0.0000
     16 C16       -3.5704    2.1299    6.7305 C.3       1 RES1    0.0000
     17 C17       -3.4463    0.8365    5.9535 C.3       1 RES1    0.0000
     18 C18       -4.7403   -1.8112    5.1125 C.3       1 RES1    0.0000
     19 C19       -6.4257   -2.9093    6.3165 C.3       1 RES1    0.0000
     20 N1        -3.7761   -1.5519    8.8799 N.pl3     1 RES1    0.0000
     21 O1        -4.0192    2.1152   11.3887 O.2       1 RES1    0.0000
     22 O2         1.9850    2.8429   10.0032 O.3       1 RES1    0.0000
     23 O3        -3.8229   -1.5889    6.1623 O.3       1 RES1    0.0000
     24 O4        -3.0544   -2.5042    9.1361 O.2       1 RES1    0.0000
     25 O5        -4.9475   -1.4570    9.1859 O.2       1 RES1    0.0000
     26 O6        -6.0504   -1.7903    5.5360 O.3       1 RES1    0.0000
     27 H1        -2.6418   -0.1312   10.7517 H         1 RES1    0.0000
     28 H2        -2.2938    3.9318   11.6959 H         1 RES1    0.0000
     29 H3        -1.4063    2.6238   12.4776 H         1 RES1    0.0000
     30 H4         0.1069    3.7528   10.9901 H         1 RES1    0.0000
     31 H5        -1.0458    3.6293    9.6604 H         1 RES1    0.0000
     32 H6         2.9021    0.6181    9.6165 H         1 RES1    0.0000
     33 H7         1.2182   -1.7325    9.5418 H         1 RES1    0.0000
     34 H8        -1.1520   -1.2694    9.8905 H         1 RES1    0.0000
     35 H9         3.8013    3.8029    9.9676 H         1 RES1    0.0000
     36 H10        3.7000    2.3282    9.0056 H         1 RES1    0.0000
     37 H11        3.7896    2.2302   10.7647 H         1 RES1    0.0000
     38 H12       -5.0066   -0.0833    6.9381 H         1 RES1    0.0000
     39 H13       -2.1211   -0.5826    7.8574 H         1 RES1    0.0000
     40 H14       -4.2385    1.0179    9.2215 H         1 RES1    0.0000
     41 H15       -2.9019    2.9656    8.5881 H         1 RES1    0.0000
     42 H16       -1.7232    1.9177    7.7992 H         1 RES1    0.0000
     43 H17       -3.1913    2.9425    6.1291 H         1 RES1    0.0000
     44 H18       -4.6108    2.3089    6.9618 H         1 RES1    0.0000
     45 H19       -4.0215    0.9060    5.0425 H         1 RES1    0.0000
     46 H20       -2.4078    0.6613    5.7127 H         1 RES1    0.0000
     47 H21       -4.5306   -2.7689    4.6606 H         1 RES1    0.0000
     48 H22       -4.6144   -1.0302    4.3771 H         1 RES1    0.0000
     49 H23       -7.4600   -2.8020    6.6071 H         1 RES1    0.0000
     50 H24       -5.8022   -2.9116    7.1978 H         1 RES1    0.0000
     51 H25       -6.2968   -3.8392    5.7815 H         1 RES1    0.0000
@<TRIPOS>BOND
     1    1    2 1
     2    2    3 1
     3    3    4 1
     4    4   10 1
     5    5    6 ar
     6    6    7 ar
     7    7    8 ar
     8    8    9 ar
     9    9    1 1
    10   10    5 ar
    11   11   22 1
    12   12   13 1
    13   13   14 1
    14   14    1 1
    15   15   14 1
    16   16   15 1
    17   17   12 1
    18   18   23 1
    19   19   26 1
    20   20   13 1
    21   21    2 2
    22   22    5 1
    23   23   12 1
    24   24   20 2
    25   25   20 2
    26   26   18 1
    27   27    1 1
    28   28    3 1
    29   29    3 1
    30   30    4 1
    31   31    4 1
    32   32    6 1
    33   33    7 1
    34   34    8 1
    35   35   11 1
    36   36   11 1
    37   37   11 1
    38   38   12 1
    39   39   13 1
    40   40   14 1
    41   41   15 1
    42   42   15 1
    43   43   16 1
    44   44   16 1
    45   45   17 1
    46   46   17 1
    47   47   18 1
    48   48   18 1
    49   49   19 1
    50   50   19 1
    51   51   19 1
    52    9   10 ar
    53   16   17 1
@<TRIPOS>SUBSTRUCTURE
     1 RES1 1

@<TRIPOS>CRYSIN
  10.1620    7.7170   12.4710  90.0000 107.9800  90.0000   4 1

