# MOL2 file generated by ConQuest
# Please check atom types

@<TRIPOS>MOLECULE
SITHEK
    44    46     2
SMALL
NO_CHARGES
****
Generated from CSD

@<TRIPOS>ATOM
      1 C1         3.4029    1.6698    3.2268 C.ar      1 RES1    0.0000
      2 C2         2.0180    1.7745    3.0703 C.ar      1 RES1    0.0000
      3 H1         1.4544    1.7969    3.8094 H         1 RES1    0.0000
      4 C3         1.5106    1.8444    1.7968 C.ar      1 RES1    0.0000
      5 C4         2.3361    1.8265    0.6827 C.ar      1 RES1    0.0000
      6 C5         3.7075    1.7124    0.8653 C.ar      1 RES1    0.0000
      7 H2         4.2715    1.6880    0.1263 H         1 RES1    0.0000
      8 C6         4.2345    1.6363    2.1291 C.ar      1 RES1    0.0000
      9 H3         5.1541    1.5614    2.2452 H         1 RES1    0.0000
     10 C7         5.1803    1.3060    4.9564 C.2       1 RES1    0.0000
     11 H4         5.9032    1.1435    4.3935 H         1 RES1    0.0000
     12 C8         3.9655    1.5870    6.6110 C.2       1 RES1    0.0000
     13 H5         3.7025    1.6553    7.5003 H         1 RES1    0.0000
     14 N1         3.9230    1.5756    4.5336 N.pl3     1 RES1    0.0000
     15 N2         3.1260    1.7577    5.6228 N.2       1 RES1    0.0000
     16 N3         5.2409    1.3052    6.2599 N.2       1 RES1    0.0000
     17 N4         0.0366    1.8367    1.6723 N.pl3     1 RES1    0.0000
     18 N5         1.8006    1.9761   -0.6683 N.pl3     1 RES1    0.0000
     19 O1        -0.5446    2.8586    1.8925 O.2       1 RES1    0.0000
     20 O2        -0.4794    0.7817    1.4140 O.2       1 RES1    0.0000
     21 O3         0.6566    2.3508   -0.7977 O.2       1 RES1    0.0000
     22 O4         2.5378    1.7553   -1.5964 O.2       1 RES1    0.0000
     23 C9         9.6906    5.1282    2.0851 C.ar      2 RES2    0.0000
     24 C10        8.3093    5.0284    2.2440 C.ar      2 RES2    0.0000
     25 H6         7.7447    5.0109    1.5055 H         2 RES2    0.0000
     26 C11        7.8057    4.9569    3.5155 C.ar      2 RES2    0.0000
     27 C12        8.6332    4.9716    4.6311 C.ar      2 RES2    0.0000
     28 C13       10.0041    5.0673    4.4493 C.ar      2 RES2    0.0000
     29 H7        10.5685    5.0708    5.1885 H         2 RES2    0.0000
     30 C14       10.5327    5.1558    3.1943 C.ar      2 RES2    0.0000
     31 H8        11.4520    5.2342    3.0797 H         2 RES2    0.0000
     32 N6        11.5339    5.5708   -0.9267 N.2       2 RES2    0.0000
     33 N7         9.4217    5.0737   -0.3130 N.2       2 RES2    0.0000
     34 N8        10.2196    5.2371    0.7885 N.pl3     2 RES2    0.0000
     35 C15       11.4688    5.5338    0.3734 C.2       2 RES2    0.0000
     36 H9        12.1881    5.6916    0.9405 H         2 RES2    0.0000
     37 C16       10.2541    5.2829   -1.2922 C.2       2 RES2    0.0000
     38 H10        9.9912    5.2383   -2.1832 H         2 RES2    0.0000
     39 N9         6.3340    4.9709    3.6373 N.pl3     2 RES2    0.0000
     40 N10        8.1068    4.8406    5.9784 N.pl3     2 RES2    0.0000
     41 O5         5.8185    6.0351    3.8676 O.2       2 RES2    0.0000
     42 O6         5.7447    3.9452    3.4412 O.2       2 RES2    0.0000
     43 O7         8.8466    5.0184    6.9079 O.2       2 RES2    0.0000
     44 O8         6.9479    4.5062    6.1236 O.2       2 RES2    0.0000
@<TRIPOS>BOND
     1    1    2 ar
     2    2    3 1
     3    4    2 ar
     4    5    4 ar
     5    6    5 ar
     6    7    6 1
     7    8    1 ar
     8    9    8 1
     9   10   11 1
    10   12   13 1
    11   14    1 1
    12   15   12 2
    13   16   10 2
    14   17    4 1
    15   18    5 1
    16   19   17 2
    17   20   17 2
    18   21   18 2
    19   22   18 2
    20   23   24 ar
    21   24   25 1
    22   26   24 ar
    23   27   26 ar
    24   28   27 ar
    25   29   28 1
    26   30   23 ar
    27   31   30 1
    28   32   35 2
    29   33   34 1
    30   34   23 1
    31   35   34 1
    32   36   35 1
    33   37   32 1
    34   38   37 1
    35   39   26 1
    36   40   27 1
    37   41   39 2
    38   42   39 2
    39   43   40 2
    40   44   40 2
    41    6    8 ar
    42   10   14 1
    43   12   16 1
    44   14   15 1
    45   28   30 ar
    46   33   37 2
@<TRIPOS>SUBSTRUCTURE
     1 RES1 1
     2 RES2 23

@<TRIPOS>CRYSIN
  12.5970   13.6130   11.2770  90.0000  90.0460  90.0000  14 1

