# MOL2 file generated by ConQuest
# Please check atom types

@<TRIPOS>MOLECULE
SITKAI
    27    28     1
SMALL
NO_CHARGES
****
Generated from CSD

@<TRIPOS>ATOM
      1 O1         2.0663    4.7244   12.0941 O.3       1 RES1    0.0000
      2 O2         3.5062    6.8601   12.7019 O.2       1 RES1    0.0000
      3 O3         4.8723    6.3991   14.2818 O.2       1 RES1    0.0000
      4 N1        -0.1321    3.5667    6.9036 N.1       1 RES1    0.0000
      5 N2         0.4763    6.3695    9.5601 N.1       1 RES1    0.0000
      6 N3         3.8211    6.2409   13.6976 N.pl3     1 RES1    0.0000
      7 C1         0.4032    3.2823    7.8555 C.1       1 RES1    0.0000
      8 C2         0.8231    5.3117    9.7835 C.1       1 RES1    0.0000
      9 C3         1.0626    2.9491    9.0981 C.ar      1 RES1    0.0000
     10 C4         1.2483    3.9590   10.0542 C.ar      1 RES1    0.0000
     11 C5         1.8575    3.6498   11.2590 C.ar      1 RES1    0.0000
     12 C6         2.2938    2.3602   11.5158 C.ar      1 RES1    0.0000
     13 H1         2.7194    2.1589   12.3181 H         1 RES1    0.0000
     14 C7         2.0911    1.3815   10.5752 C.ar      1 RES1    0.0000
     15 H2         2.3786    0.5145   10.7477 H         1 RES1    0.0000
     16 C8         1.4680    1.6635    9.3727 C.ar      1 RES1    0.0000
     17 H3         1.3232    0.9860    8.7526 H         1 RES1    0.0000
     18 C9         2.0013    4.5455   13.4790 C.ar      1 RES1    0.0000
     19 C10        2.8763    5.2957   14.2649 C.ar      1 RES1    0.0000
     20 C11        2.8441    5.1383   15.6460 C.ar      1 RES1    0.0000
     21 H4         3.4344    5.6217   16.1776 H         1 RES1    0.0000
     22 C12        1.9602    4.2842   16.2259 C.ar      1 RES1    0.0000
     23 H5         1.9546    4.1707   17.1486 H         1 RES1    0.0000
     24 C13        1.0898    3.7121   14.0762 C.ar      1 RES1    0.0000
     25 H6         0.4861    3.2303   13.5565 H         1 RES1    0.0000
     26 C14        1.0747    3.5923   15.4398 C.ar      1 RES1    0.0000
     27 H7         0.4512    3.0298   15.8400 H         1 RES1    0.0000
@<TRIPOS>BOND
     1    1   11 1
     2    2    6 2
     3    3    6 2
     4    4    7 3
     5    5    8 3
     6    6   19 1
     7    7    9 1
     8    8   10 1
     9    9   10 ar
    10   10   11 ar
    11   11   12 ar
    12   12   13 1
    13   14   12 ar
    14   15   14 1
    15   16    9 ar
    16   17   16 1
    17   18    1 1
    18   19   18 ar
    19   20   19 ar
    20   21   20 1
    21   22   20 ar
    22   23   22 1
    23   24   18 ar
    24   25   24 1
    25   26   22 ar
    26   27   26 1
    27   14   16 ar
    28   24   26 ar
@<TRIPOS>SUBSTRUCTURE
     1 RES1 1

@<TRIPOS>CRYSIN
   8.0814    7.9899   19.0680  90.0000  95.9440  90.0000 231 1

