# MOL2 file generated by ConQuest
# Please check atom types

@<TRIPOS>MOLECULE
SITPUI
    26    27     1
SMALL
NO_CHARGES
****
Generated from CSD

@<TRIPOS>ATOM
      1 N1         8.9324    8.8843   10.1838 N.pl3     1 RES1    0.0000
      2 O1         4.7724   11.0307    9.8795 O.3       1 RES1    0.0000
      3 C1         6.7851    9.8748    9.9567 C.ar      1 RES1    0.0000
      4 C2         7.2771    8.0603    8.5498 C.ar      1 RES1    0.0000
      5 C3         7.6625    8.9308    9.5768 C.ar      1 RES1    0.0000
      6 C4         5.5223   10.0567    9.3900 C.ar      1 RES1    0.0000
      7 N2         7.1706   10.8890   11.0039 N.pl3     1 RES1    0.0000
      8 C5         3.4213   11.1661    9.4224 C.3       1 RES1    0.0000
      9 H1         3.4171   11.5580    8.5452 H         1 RES1    0.0000
     10 H2         2.9335   11.7296   10.0278 H         1 RES1    0.0000
     11 H3         3.0064   10.3007    9.3869 H         1 RES1    0.0000
     12 C6         5.1775    9.1707    8.3614 C.ar      1 RES1    0.0000
     13 H4         4.3506    9.2524    7.9413 H         1 RES1    0.0000
     14 N3         8.1279    7.0357    8.0664 N.pl3     1 RES1    0.0000
     15 C7         6.0339    8.1968    7.9706 C.ar      1 RES1    0.0000
     16 H5         5.7774    7.6085    7.2973 H         1 RES1    0.0000
     17 O2         9.0431    6.6366    8.7104 O.2       1 RES1    0.0000
     18 O3         7.0388   10.5003   12.1297 O.2       1 RES1    0.0000
     19 O4         7.5785   11.9012   10.6610 O.2       1 RES1    0.0000
     20 O5         7.9176    6.5890    7.0054 O.2       1 RES1    0.0000
     21 N4        10.0116    9.3547    9.5537 N.2       1 RES1    0.0000
     22 N5        10.5793    8.5080   11.5305 N.2       1 RES1    0.0000
     23 C8         9.3052    8.3725   11.3405 C.2       1 RES1    0.0000
     24 H6         8.7264    7.9662   11.9444 H         1 RES1    0.0000
     25 C9        10.9605    9.1500   10.4077 C.2       1 RES1    0.0000
     26 H7        11.8365    9.4240   10.2610 H         1 RES1    0.0000
@<TRIPOS>BOND
     1    1    5 1
     2    2    6 1
     3    3    5 ar
     4    4    5 ar
     5    6    3 ar
     6    7    3 1
     7    8    2 1
     8    9    8 1
     9   10    8 1
    10   11    8 1
    11   12    6 ar
    12   13   12 1
    13   14    4 1
    14   15    4 ar
    15   16   15 1
    16   17   14 2
    17   18    7 2
    18   19    7 2
    19   20   14 2
    20   21    1 1
    21   22   23 2
    22   23    1 1
    23   24   23 1
    24   25   21 2
    25   26   25 1
    26   12   15 ar
    27   22   25 1
@<TRIPOS>SUBSTRUCTURE
     1 RES1 1

@<TRIPOS>CRYSIN
  14.0160   10.3390   15.4440  90.0000  90.0000  90.0000  61 1

