# MOL2 file generated by ConQuest
# Please check atom types

@<TRIPOS>MOLECULE
SITPOC
    24    25     1
SMALL
NO_CHARGES
****
Generated from CSD

@<TRIPOS>ATOM
      1 N1        10.8226    6.4839   11.0870 N.pl3     1 RES1    0.0000
      2 N2         9.8639    5.6323    8.6062 N.pl3     1 RES1    0.0000
      3 H1         9.5442    5.3551    7.8584 H         1 RES1    0.0000
      4 H2         9.3329    5.8758    9.2369 H         1 RES1    0.0000
      5 N3        15.3742    6.1301    9.4362 N.pl3     1 RES1    0.0000
      6 O1        16.1366    5.6155    8.6309 O.2       1 RES1    0.0000
      7 C1        13.0598    6.2916   10.2358 C.ar      1 RES1    0.0000
      8 H3        13.3751    6.6156   11.0491 H         1 RES1    0.0000
      9 C2        11.7250    6.1362   10.0262 C.ar      1 RES1    0.0000
     10 N4        10.5900    7.7874   11.3890 N.2       1 RES1    0.0000
     11 O2        15.7457    6.7572   10.4108 O.2       1 RES1    0.0000
     12 N5        11.7625    4.7386    6.5435 N.pl3     1 RES1    0.0000
     13 N6         9.5341    6.4387   12.8396 N.2       1 RES1    0.0000
     14 C3        13.9469    5.9608    9.2178 C.ar      1 RES1    0.0000
     15 C4        13.5103    5.4470    8.0339 C.ar      1 RES1    0.0000
     16 H4        14.1195    5.1928    7.3784 H         1 RES1    0.0000
     17 O3        12.6268    4.3435    5.7858 O.2       1 RES1    0.0000
     18 O4        10.5761    4.6422    6.2630 O.2       1 RES1    0.0000
     19 C5        12.1498    5.3076    7.8156 C.ar      1 RES1    0.0000
     20 C6        10.1938    5.7058   11.9711 C.2       1 RES1    0.0000
     21 H5        10.2187    4.7762   11.9722 H         1 RES1    0.0000
     22 C7        11.1733    5.6836    8.7864 C.ar      1 RES1    0.0000
     23 C8         9.8133    7.6946   12.4393 C.2       1 RES1    0.0000
     24 H6         9.4777    8.4427   12.8784 H         1 RES1    0.0000
@<TRIPOS>BOND
     1    1    9 1
     2    2    3 1
     3    4    2 1
     4    5    6 2
     5    7    8 1
     6    9    7 ar
     7   10    1 1
     8   11    5 2
     9   12   17 2
    10   13   20 2
    11   14    5 1
    12   15   14 ar
    13   16   15 1
    14   18   12 2
    15   19   12 1
    16   20    1 1
    17   21   20 1
    18   22    2 1
    19   23   10 2
    20   24   23 1
    21    7   14 ar
    22    9   22 ar
    23   13   23 1
    24   15   19 ar
    25   19   22 ar
@<TRIPOS>SUBSTRUCTURE
     1 RES1 1

@<TRIPOS>CRYSIN
  17.0340    7.6578   15.3845  90.0000  90.0000  90.0000  60 1

