# MOL2 file generated by ConQuest
# Please check atom types

@<TRIPOS>MOLECULE
SITQUJ
    26    27     1
SMALL
NO_CHARGES
****
Generated from CSD

@<TRIPOS>ATOM
      1 O1         3.2821    5.2955    1.2049 O.3       1 RES1    0.0000
      2 N1         1.1799    8.7144   -2.7131 N.pl3     1 RES1    0.0000
      3 N2         3.3902    8.1176    1.5654 N.pl3     1 RES1    0.0000
      4 C1         2.2482    8.3638   -0.5387 C.ar      1 RES1    0.0000
      5 H1         2.2645    9.2860   -0.4226 H         1 RES1    0.0000
      6 O2         0.9235    8.2340   -3.8107 O.2       1 RES1    0.0000
      7 C2         1.6400    6.4483   -1.8905 C.ar      1 RES1    0.0000
      8 H2         1.2827    6.0964   -2.6734 H         1 RES1    0.0000
      9 C3         2.1395    5.6284   -0.8933 C.ar      1 RES1    0.0000
     10 C4         1.6945    7.8094   -1.6737 C.ar      1 RES1    0.0000
     11 O3         1.0531    9.8909   -2.4246 O.2       1 RES1    0.0000
     12 C5         2.7815    7.5179    0.4295 C.ar      1 RES1    0.0000
     13 N3         4.6568    8.6448    3.2802 N.2       1 RES1    0.0000
     14 C6         2.7098    6.1194    0.2815 C.ar      1 RES1    0.0000
     15 N4         2.0532    4.1739   -1.1565 N.pl3     1 RES1    0.0000
     16 O4         2.1749    3.8149   -2.3170 O.2       1 RES1    0.0000
     17 C7         3.8512    9.6611    2.8926 C.2       1 RES1    0.0000
     18 H3         3.8494   10.4836    3.3268 H         1 RES1    0.0000
     19 N5         3.0777    9.4144    1.8730 N.2       1 RES1    0.0000
     20 O5         1.8633    3.4242   -0.2267 O.2       1 RES1    0.0000
     21 C8         4.3389    7.6949    2.4260 C.2       1 RES1    0.0000
     22 H4         4.7181    6.8458    2.4177 H         1 RES1    0.0000
     23 C9         2.4629    4.9470    2.3504 C.3       1 RES1    0.0000
     24 H5         1.7700    4.3411    2.0756 H         1 RES1    0.0000
     25 H6         2.0668    5.7416    2.7141 H         1 RES1    0.0000
     26 H7         3.0092    4.5270    3.0188 H         1 RES1    0.0000
@<TRIPOS>BOND
     1    1   14 1
     2    2    6 2
     3    3   12 1
     4    4    5 1
     5    7    8 1
     6    9    7 ar
     7   10    2 1
     8   11    2 2
     9   12    4 ar
    10   13   17 1
    11   14    9 ar
    12   15    9 1
    13   16   15 2
    14   17   18 1
    15   19    3 1
    16   20   15 2
    17   21    3 1
    18   22   21 1
    19   23    1 1
    20   24   23 1
    21   25   23 1
    22   26   23 1
    23    4   10 ar
    24    7   10 ar
    25   12   14 ar
    26   13   21 2
    27   17   19 2
@<TRIPOS>SUBSTRUCTURE
     1 RES1 1

@<TRIPOS>CRYSIN
   7.6629    8.7248    9.0375  66.9980  85.0000  85.6960   2 1

