# MOL2 file generated by ConQuest
# Please check atom types

@<TRIPOS>MOLECULE
SITQIX
    75    78     3
SMALL
NO_CHARGES
****
Generated from CSD

@<TRIPOS>ATOM
      1 N1         4.5091    9.2245   -0.2376 N.pl3     1 RES1    0.0000
      2 C1         4.7471    9.2742    1.1628 C.ar      1 RES1    0.0000
      3 C2         5.2448    9.3189    3.9369 C.ar      1 RES1    0.0000
      4 C3         5.6947    8.4443    1.6994 C.ar      1 RES1    0.0000
      5 H1         6.1867    7.8676    1.1614 H         1 RES1    0.0000
      6 N2         3.5238   11.0852    4.1118 N.pl3     1 RES1    0.0000
      7 C4         4.0310   10.1267    1.9704 C.ar      1 RES1    0.0000
      8 H2         3.3748   10.6812    1.6153 H         1 RES1    0.0000
      9 C5         4.3160   10.1373    3.3268 C.ar      1 RES1    0.0000
     10 N3         5.3836    8.5595   -1.0453 N.2       1 RES1    0.0000
     11 C6         5.8972    8.4874    3.0531 C.ar      1 RES1    0.0000
     12 N4         6.8912    7.5203    3.5791 N.pl3     1 RES1    0.0000
     13 O1         2.3502   11.1836    3.8594 O.2       1 RES1    0.0000
     14 C7         3.4999    9.6976   -0.9639 C.2       1 RES1    0.0000
     15 H3         2.7834   10.1818   -0.6221 H         1 RES1    0.0000
     16 N5         3.6555    9.3880   -2.2227 N.2       1 RES1    0.0000
     17 C8         4.8063    8.6970   -2.2041 C.2       1 RES1    0.0000
     18 H4         5.1715    8.3341   -2.9784 H         1 RES1    0.0000
     19 O2         4.1057   11.7437    4.9501 O.2       1 RES1    0.0000
     20 C9         5.4806    9.2551    5.4334 C.3       1 RES1    0.0000
     21 H5         5.9369   10.0486    5.7191 H         1 RES1    0.0000
     22 H6         6.0154    8.4848    5.6403 H         1 RES1    0.0000
     23 H7         4.6369    9.1900    5.8873 H         1 RES1    0.0000
     24 O3         8.0254    7.7977    3.5003 O.2       1 RES1    0.0000
     25 O4         6.5208    6.4775    3.9649 O.2       1 RES1    0.0000
     26 N6         8.3597   -1.3392   13.0655 N.pl3     2 RES2    0.0000
     27 N7         5.9050    0.0145    9.1260 N.pl3     2 RES2    0.0000
     28 C10        6.1251    0.1823   10.5731 C.ar      2 RES2    0.0000
     29 C11        7.3746   -0.5320   12.4594 C.ar      2 RES2    0.0000
     30 N8         8.4858   -1.3346   14.4232 N.2       2 RES2    0.0000
     31 C12        5.4116    1.1321   11.2766 C.ar      2 RES2    0.0000
     32 C13        7.0900   -0.6458   11.1164 C.ar      2 RES2    0.0000
     33 H8         7.5371   -1.2658   10.5878 H         2 RES2    0.0000
     34 O5         6.8427   -0.2952    8.4451 O.2       2 RES2    0.0000
     35 N9         9.9691   -2.7433   13.4833 N.2       2 RES2    0.0000
     36 C14        5.7599    1.1735   12.6183 C.ar      2 RES2    0.0000
     37 C15        6.6993    0.3919   13.2217 C.ar      2 RES2    0.0000
     38 H9         6.8796    0.4811   14.1295 H         2 RES2    0.0000
     39 C16        9.2403   -2.1850   12.5449 C.2       2 RES2    0.0000
     40 H10        9.3301   -2.3591   11.6357 H         2 RES2    0.0000
     41 N10        5.1004    2.1448   13.5020 N.pl3     2 RES2    0.0000
     42 C17        9.4581   -2.1894   14.5900 C.2       2 RES2    0.0000
     43 H11        9.7799   -2.4023   15.4364 H         2 RES2    0.0000
     44 C18        4.4097    2.1037   10.6812 C.3       2 RES2    0.0000
     45 H12        4.6939    2.3561    9.7988 H         2 RES2    0.0000
     46 H13        4.3546    2.8857   11.2352 H         2 RES2    0.0000
     47 H14        3.5481    1.6840   10.6318 H         2 RES2    0.0000
     48 O6         4.8314    0.2103    8.6721 O.2       2 RES2    0.0000
     49 O7         5.6821    3.1336   13.7837 O.2       2 RES2    0.0000
     50 O8         3.9987    1.9420   13.8411 O.2       2 RES2    0.0000
     51 N11       -1.0255    6.9195    7.7429 N.pl3     3 RES3    0.0000
     52 C19       -0.4234    5.8900    6.9940 C.ar      3 RES3    0.0000
     53 C20       -0.2913    4.6504    5.0115 C.ar      3 RES3    0.0000
     54 N12        2.2555    3.3886    7.3491 N.pl3     3 RES3    0.0000
     55 C21        0.7462    3.8450    5.4441 C.ar      3 RES3    0.0000
     56 N13       -1.9238    7.7518    7.1595 N.2       3 RES3    0.0000
     57 N14       -0.7983    4.4897    3.6231 N.pl3     3 RES3    0.0000
     58 C22       -0.8900    5.6319    5.7244 C.ar      3 RES3    0.0000
     59 H15       -1.5978    6.1189    5.3666 H         3 RES3    0.0000
     60 C23        0.6043    5.1478    7.4973 C.ar      3 RES3    0.0000
     61 H16        0.9359    5.3250    8.3477 H         3 RES3    0.0000
     62 C24        1.1489    4.1330    6.7350 C.ar      3 RES3    0.0000
     63 C25       -0.8980    7.2634    9.0378 C.2       3 RES3    0.0000
     64 H17       -0.3392    6.8323    9.6439 H         3 RES3    0.0000
     65 O9         2.9132    3.9282    8.1861 O.2       3 RES3    0.0000
     66 N15       -1.6579    8.2756    9.3302 N.2       3 RES3    0.0000
     67 C26       -2.2454    8.5369    8.1487 C.2       3 RES3    0.0000
     68 H18       -2.8463    9.2390    8.0433 H         3 RES3    0.0000
     69 O10        2.4293    2.2552    7.0180 O.2       3 RES3    0.0000
     70 C27        1.3318    2.7618    4.5576 C.3       3 RES3    0.0000
     71 H19        2.2904    2.8062    4.5897 H         3 RES3    0.0000
     72 H20        1.0359    2.8944    3.6539 H         3 RES3    0.0000
     73 H21        1.0392    1.9017    4.8660 H         3 RES3    0.0000
     74 O11       -1.7513    3.8124    3.4336 O.2       3 RES3    0.0000
     75 O12       -0.2349    5.0537    2.7447 O.2       3 RES3    0.0000
@<TRIPOS>BOND
     1    1    2 1
     2    2    4 ar
     3    3    9 ar
     4    4    5 1
     5    6    9 1
     6    7    2 ar
     7    8    7 1
     8    9    7 ar
     9   10    1 1
    10   11    3 ar
    11   12   11 1
    12   13    6 2
    13   14    1 1
    14   15   14 1
    15   16   14 2
    16   17   10 2
    17   18   17 1
    18   19    6 2
    19   20    3 1
    20   21   20 1
    21   22   20 1
    22   23   20 1
    23   24   12 2
    24   25   12 2
    25   26   29 1
    26   27   28 1
    27   28   31 ar
    28   29   32 ar
    29   30   26 1
    30   31   36 ar
    31   32   28 ar
    32   33   32 1
    33   34   27 2
    34   35   39 2
    35   36   37 ar
    36   37   29 ar
    37   38   37 1
    38   39   26 1
    39   40   39 1
    40   41   36 1
    41   42   30 2
    42   43   42 1
    43   44   31 1
    44   45   44 1
    45   46   44 1
    46   47   44 1
    47   48   27 2
    48   49   41 2
    49   50   41 2
    50   51   52 1
    51   52   58 ar
    52   53   55 ar
    53   54   62 1
    54   55   62 ar
    55   56   51 1
    56   57   53 1
    57   58   53 ar
    58   59   58 1
    59   60   52 ar
    60   61   60 1
    61   62   60 ar
    62   63   51 1
    63   64   63 1
    64   65   54 2
    65   66   63 2
    66   67   56 2
    67   68   67 1
    68   69   54 2
    69   70   55 1
    70   71   70 1
    71   72   70 1
    72   73   70 1
    73   74   57 2
    74   75   57 2
    75    4   11 ar
    76   16   17 1
    77   35   42 1
    78   66   67 1
@<TRIPOS>SUBSTRUCTURE
     1 RES1 1
     2 RES2 26
     3 RES3 51

@<TRIPOS>CRYSIN
  10.3897   11.3847   13.9450 103.0270  99.6370  93.3540   2 1

