# MOL2 file generated by ConQuest
# Please check atom types

@<TRIPOS>MOLECULE
SITQAP
    25    26     1
SMALL
NO_CHARGES
****
Generated from CSD

@<TRIPOS>ATOM
      1 O1         4.8724   -1.5878    9.8147 O.2       1 RES1    0.0000
      2 C1         3.3616   -0.1666    8.8260 C.ar      1 RES1    0.0000
      3 N1         4.5999   -0.4319    9.5590 N.pl3     1 RES1    0.0000
      4 O2         1.0306    3.1338    6.7061 O.2       1 RES1    0.0000
      5 N2         0.7970   -2.0980    7.0885 N.pl3     1 RES1    0.0000
      6 C2         1.7952    1.3358    7.9428 C.ar      1 RES1    0.0000
      7 C3         1.0297    0.3266    7.3650 C.ar      1 RES1    0.0000
      8 C4         1.5144   -0.9701    7.5805 C.ar      1 RES1    0.0000
      9 O3         5.2952    0.5091    9.8759 O.2       1 RES1    0.0000
     10 C5         2.6688   -1.2269    8.2863 C.ar      1 RES1    0.0000
     11 H1         2.9746   -2.0983    8.3964 H         1 RES1    0.0000
     12 O4         1.4444    3.4414    8.7883 O.2       1 RES1    0.0000
     13 N3        -0.1418   -4.0581    6.9567 N.2       1 RES1    0.0000
     14 C6         2.9359    1.1329    8.6816 C.ar      1 RES1    0.0000
     15 H2         3.3989    1.8419    9.0665 H         1 RES1    0.0000
     16 N4         1.3795    2.7402    7.7963 N.pl3     1 RES1    0.0000
     17 C7         0.3946   -3.1811    7.7606 C.2       1 RES1    0.0000
     18 H3         0.4855   -3.2952    8.6790 H         1 RES1    0.0000
     19 N5         0.5167   -2.2653    5.7649 N.2       1 RES1    0.0000
     20 C8        -0.2321    0.5780    6.5970 C.3       1 RES1    0.0000
     21 H4        -0.6702    1.3567    6.9473 H         1 RES1    0.0000
     22 H5        -0.8137   -0.1808    6.6793 H         1 RES1    0.0000
     23 H6        -0.0201    0.7196    5.6717 H         1 RES1    0.0000
     24 C9        -0.0383   -3.4443    5.7590 C.2       1 RES1    0.0000
     25 H7        -0.3448   -3.8403    4.9747 H         1 RES1    0.0000
@<TRIPOS>BOND
     1    1    3 2
     2    2    3 1
     3    3    9 2
     4    4   16 2
     5    5    8 1
     6    6    7 ar
     7    7    8 ar
     8    8   10 ar
     9   10    2 ar
    10   11   10 1
    11   12   16 2
    12   13   17 2
    13   14    2 ar
    14   15   14 1
    15   16    6 1
    16   17    5 1
    17   18   17 1
    18   19    5 1
    19   20    7 1
    20   21   20 1
    21   22   20 1
    22   23   20 1
    23   24   13 1
    24   25   24 1
    25    6   14 ar
    26   19   24 2
@<TRIPOS>SUBSTRUCTURE
     1 RES1 1

@<TRIPOS>CRYSIN
   6.3837    8.1740   11.0500  96.4280 106.4310 104.7800   2 1

