# MOL2 file generated by ConQuest
# Please check atom types

@<TRIPOS>MOLECULE
SIVKOZ
    68    70     1
SMALL
NO_CHARGES
****
Generated from CSD

@<TRIPOS>ATOM
      1 O1         0.1710   -0.5092   -2.7796 O.3       1 RES1    0.0000
      2 O2         2.1530    1.3158   -1.6754 O.3       1 RES1    0.0000
      3 O3         4.5279    3.4271    3.7377 O.2       1 RES1    0.0000
      4 O4         5.0174    3.7045    1.6489 O.2       1 RES1    0.0000
      5 N1         2.2728    1.9473    1.9641 N.3       1 RES1    0.0000
      6 N2         4.2526    3.7668    2.5970 N.pl3     1 RES1    0.0000
      7 C1        -2.0542   -1.2373   -3.2311 C.3       1 RES1    0.0000
      8 H1        -2.3862   -0.3313   -3.1269 H         1 RES1    0.0000
      9 H2        -2.5966   -1.6661   -3.9109 H         1 RES1    0.0000
     10 C2        -0.6364   -1.1576   -3.7478 C.3       1 RES1    0.0000
     11 H3        -0.2958   -2.0498   -3.9163 H         1 RES1    0.0000
     12 H4        -0.6163   -0.6608   -4.5813 H         1 RES1    0.0000
     13 C3         1.5355   -0.4500   -3.1583 C.3       1 RES1    0.0000
     14 H5         1.6553    0.2037   -3.8640 H         1 RES1    0.0000
     15 H6         1.8256   -1.3147   -3.4891 H         1 RES1    0.0000
     16 C4         2.3458   -0.0624   -1.9583 C.3       1 RES1    0.0000
     17 H7         2.0746   -0.5944   -1.1949 H         1 RES1    0.0000
     18 H8         3.2854   -0.2334   -2.1284 H         1 RES1    0.0000
     19 C5         2.6913    1.7099   -0.4226 C.3       1 RES1    0.0000
     20 H9         2.7646    2.6766   -0.4001 H         1 RES1    0.0000
     21 H10        3.5846    1.3418   -0.3316 H         1 RES1    0.0000
     22 C6         1.8407    1.2469    0.7526 C.3       1 RES1    0.0000
     23 H11        0.9058    1.4379    0.5785 H         1 RES1    0.0000
     24 H12        1.9385    0.2893    0.8723 H         1 RES1    0.0000
     25 C7         1.9203    3.3296    2.0079 C.ar      1 RES1    0.0000
     26 C8         0.6461    3.8232    1.7410 C.ar      1 RES1    0.0000
     27 H13       -0.0353    3.2369    1.5031 H         1 RES1    0.0000
     28 C9         0.3843    5.1839    1.8268 C.ar      1 RES1    0.0000
     29 H14       -0.4714    5.4983    1.6418 H         1 RES1    0.0000
     30 C10        1.3734    6.0759    2.1827 C.ar      1 RES1    0.0000
     31 H15        1.1791    6.9834    2.2456 H         1 RES1    0.0000
     32 C11        2.6565    5.6223    2.4460 C.ar      1 RES1    0.0000
     33 H16        3.3349    6.2124    2.6835 H         1 RES1    0.0000
     34 C12        2.8947    4.2637    2.3429 C.ar      1 RES1    0.0000
     35 O1B       -0.1710    0.5092    2.7796 O.3       1 RES1    0.0000
     36 O2B       -2.1530   -1.3158    1.6754 O.3       1 RES1    0.0000
     37 O3B       -4.5279   -3.4271   -3.7377 O.2       1 RES1    0.0000
     38 O4B       -5.0174   -3.7045   -1.6489 O.2       1 RES1    0.0000
     39 N1B       -2.2728   -1.9473   -1.9641 N.3       1 RES1    0.0000
     40 N2B       -4.2526   -3.7668   -2.5970 N.pl3     1 RES1    0.0000
     41 C1B        2.0542    1.2373    3.2311 C.3       1 RES1    0.0000
     42 H1B        2.3862    0.3313    3.1269 H         1 RES1    0.0000
     43 H2B        2.5966    1.6661    3.9109 H         1 RES1    0.0000
     44 C2B        0.6364    1.1576    3.7478 C.3       1 RES1    0.0000
     45 H3B        0.2958    2.0498    3.9163 H         1 RES1    0.0000
     46 H4B        0.6163    0.6608    4.5813 H         1 RES1    0.0000
     47 C3B       -1.5355    0.4500    3.1583 C.3       1 RES1    0.0000
     48 H5B       -1.6553   -0.2037    3.8640 H         1 RES1    0.0000
     49 H6B       -1.8256    1.3147    3.4891 H         1 RES1    0.0000
     50 C4B       -2.3458    0.0624    1.9583 C.3       1 RES1    0.0000
     51 H7B       -2.0746    0.5944    1.1949 H         1 RES1    0.0000
     52 H8B       -3.2854    0.2334    2.1284 H         1 RES1    0.0000
     53 C5B       -2.6913   -1.7099    0.4226 C.3       1 RES1    0.0000
     54 H9B       -2.7646   -2.6766    0.4001 H         1 RES1    0.0000
     55 H10B      -3.5846   -1.3418    0.3316 H         1 RES1    0.0000
     56 C6B       -1.8407   -1.2469   -0.7526 C.3       1 RES1    0.0000
     57 H11B      -0.9058   -1.4379   -0.5785 H         1 RES1    0.0000
     58 H12B      -1.9385   -0.2893   -0.8723 H         1 RES1    0.0000
     59 C7B       -1.9203   -3.3296   -2.0079 C.ar      1 RES1    0.0000
     60 C8B       -0.6461   -3.8232   -1.7410 C.ar      1 RES1    0.0000
     61 H13B       0.0353   -3.2369   -1.5031 H         1 RES1    0.0000
     62 C9B       -0.3843   -5.1839   -1.8268 C.ar      1 RES1    0.0000
     63 H14B       0.4714   -5.4983   -1.6418 H         1 RES1    0.0000
     64 C10B      -1.3734   -6.0759   -2.1827 C.ar      1 RES1    0.0000
     65 H15B      -1.1791   -6.9834   -2.2456 H         1 RES1    0.0000
     66 C11B      -2.6565   -5.6223   -2.4460 C.ar      1 RES1    0.0000
     67 H16B      -3.3349   -6.2124   -2.6835 H         1 RES1    0.0000
     68 C12B      -2.8947   -4.2637   -2.3429 C.ar      1 RES1    0.0000
@<TRIPOS>BOND
     1    1   10 1
     2    2   16 1
     3    3    6 2
     4    4    6 2
     5    5   22 1
     6    6   34 1
     7    7    8 1
     8    9    7 1
     9   10    7 1
    10   11   10 1
    11   12   10 1
    12   13    1 1
    13   14   13 1
    14   15   13 1
    15   16   13 1
    16   17   16 1
    17   18   16 1
    18   19    2 1
    19   20   19 1
    20   21   19 1
    21   22   19 1
    22   23   22 1
    23   24   22 1
    24   25    5 1
    25   26   25 ar
    26   27   26 1
    27   28   26 ar
    28   29   28 1
    29   30   28 ar
    30   31   30 1
    31   32   30 ar
    32   33   32 1
    33   34   25 ar
    34   35   44 1
    35   36   50 1
    36   37   40 2
    37   38   40 2
    38   39    7 1
    39   40   68 1
    40   41    5 1
    41   42   41 1
    42   43   41 1
    43   44   41 1
    44   45   44 1
    45   46   44 1
    46   47   35 1
    47   48   47 1
    48   49   47 1
    49   50   47 1
    50   51   50 1
    51   52   50 1
    52   53   36 1
    53   54   53 1
    54   55   53 1
    55   56   39 1
    56   57   56 1
    57   58   56 1
    58   59   39 1
    59   60   59 ar
    60   61   60 1
    61   62   60 ar
    62   63   62 1
    63   64   62 ar
    64   65   64 1
    65   66   64 ar
    66   67   66 1
    67   68   59 ar
    68   32   34 ar
    69   53   56 1
    70   66   68 ar
@<TRIPOS>SUBSTRUCTURE
     1 RES1 1

@<TRIPOS>CRYSIN
   7.8791    8.7413   18.0281  90.0000  91.4360  90.0000  14 1

