# MOL2 file generated by ConQuest
# Please check atom types

@<TRIPOS>MOLECULE
SIVMAL
   126   136     3
SMALL
NO_CHARGES
****
Generated from CSD

@<TRIPOS>ATOM
      1 C1         1.3252    0.3884    4.8575 C.ar      1 RES1    0.0000
      2 C2         0.7404    0.6161    6.0984 C.ar      1 RES1    0.0000
      3 C3        -0.6162    1.2034    6.2486 C.ar      1 RES1    0.0000
      4 C4        -1.1568    2.0643    5.2859 C.ar      1 RES1    0.0000
      5 C5        -2.4085    2.6268    5.4263 C.ar      1 RES1    0.0000
      6 C6        -3.1583    2.3245    6.5391 C.ar      1 RES1    0.0000
      7 C7        -2.6416    1.5631    7.5337 C.ar      1 RES1    0.0000
      8 C8        -1.3518    0.9872    7.4205 C.ar      1 RES1    0.0000
      9 C9        -0.7279    0.2525    8.5284 C.ar      1 RES1    0.0000
     10 C10       -1.5019   -0.1971    9.6043 C.ar      1 RES1    0.0000
     11 C11       -0.9464   -0.8265   10.6851 C.ar      1 RES1    0.0000
     12 C12        0.3999   -1.0599   10.6900 C.ar      1 RES1    0.0000
     13 C13        1.1866   -0.6754    9.6289 C.ar      1 RES1    0.0000
     14 C14        0.6494    0.0000    8.5161 C.ar      1 RES1    0.0000
     15 C15        1.4606    0.3119    7.3121 C.ar      1 RES1    0.0000
     16 C16        2.8634    0.2124    7.2334 C.ar      1 RES1    0.0000
     17 C17        3.5044    0.1454    5.9679 C.ar      1 RES1    0.0000
     18 C18        4.9301    0.0555    5.8300 C.ar      1 RES1    0.0000
     19 C19        5.5048   -0.2296    4.6384 C.ar      1 RES1    0.0000
     20 C20        4.7267   -0.4783    3.4887 C.ar      1 RES1    0.0000
     21 C21        3.3766   -0.2908    3.5699 C.ar      1 RES1    0.0000
     22 C22        2.7300    0.0708    4.7861 C.ar      1 RES1    0.0000
     23 C23        0.5254    0.4171    3.5921 C.ar      1 RES1    0.0000
     24 C24        0.8649    1.2570    2.5383 C.ar      1 RES1    0.0000
     25 C25        0.0515    1.3565    1.4230 C.ar      1 RES1    0.0000
     26 C26       -1.0871    0.5874    1.3713 C.ar      1 RES1    0.0000
     27 C27       -1.4160   -0.2985    2.3660 C.ar      1 RES1    0.0000
     28 C28       -0.5965   -0.3846    3.4690 C.ar      1 RES1    0.0000
     29 N1        -2.0007    0.7481    0.2142 N.pl3     1 RES1    0.0000
     30 O1        -1.6850    1.5325   -0.6623 O.2       1 RES1    0.0000
     31 O2        -3.0123    0.0555    0.1847 O.2       1 RES1    0.0000
     32 C29        3.7436    0.2105    8.4348 C.ar      1 RES1    0.0000
     33 C30        4.6051   -0.8361    8.7056 C.ar      1 RES1    0.0000
     34 C31        5.5149   -0.7863    9.7471 C.ar      1 RES1    0.0000
     35 C32        5.5575    0.3367   10.4980 C.ar      1 RES1    0.0000
     36 C33        4.7211    1.4043   10.2936 C.ar      1 RES1    0.0000
     37 C34        3.8116    1.3105    9.2670 C.ar      1 RES1    0.0000
     38 N2         6.5588    0.4305   11.6034 N.pl3     1 RES1    0.0000
     39 O3         7.2108   -0.5682   11.8373 O.2       1 RES1    0.0000
     40 O4         6.6509    1.4789   12.2017 O.2       1 RES1    0.0000
     41 C35        6.9594   -0.3826    4.3331 Du        3 SUP3    0.0000
     42 C36        5.4075   -0.9757    2.3118 C.3       1 RES1    0.0000
     43 C37        6.8723    4.9896   11.3744 C.ar      2 RES2    0.0000
     44 C38        7.3154    4.9628   10.0647 C.ar      2 RES2    0.0000
     45 C39        8.6975    4.6012    9.6978 C.ar      2 RES2    0.0000
     46 C40        9.4679    3.7556   10.5201 C.ar      2 RES2    0.0000
     47 C41       10.7181    3.3213   10.1385 C.ar      2 RES2    0.0000
     48 C42       11.2390    3.7097    8.9223 C.ar      2 RES2    0.0000
     49 C43       10.4842    4.4941    8.0778 C.ar      2 RES2    0.0000
     50 C44        9.2120    4.9456    8.4471 C.ar      2 RES2    0.0000
     51 C45        8.3629    5.6784    7.5042 C.ar      2 RES2    0.0000
     52 C46        8.8954    6.3021    6.3766 C.ar      2 RES2    0.0000
     53 C47        8.1193    6.9143    5.4336 C.ar      2 RES2    0.0000
     54 C48        6.7718    6.9487    5.6306 C.ar      2 RES2    0.0000
     55 C49        6.2180    6.3652    6.7311 C.ar      2 RES2    0.0000
     56 C50        6.9706    5.7128    7.6987 C.ar      2 RES2    0.0000
     57 C51        6.3997    5.2116    8.9789 C.ar      2 RES2    0.0000
     58 C52        5.0296    5.0776    9.2276 C.ar      2 RES2    0.0000
     59 C53        4.5677    4.8423   10.5571 C.ar      2 RES2    0.0000
     60 C54        3.1625    4.7352   10.8624 C.ar      2 RES2    0.0000
     61 C55        2.7230    4.6567   12.1426 C.ar      2 RES2    0.0000
     62 C56        3.6073    4.7428   13.2283 C.ar      2 RES2    0.0000
     63 C57        4.9342    4.8921   12.9895 C.ar      2 RES2    0.0000
     64 C58        5.4658    4.9418   11.6600 C.ar      2 RES2    0.0000
     65 C59        7.8406    5.2326   12.4897 C.ar      2 RES2    0.0000
     66 C60        8.5887    6.4054   12.4356 C.ar      2 RES2    0.0000
     67 C61        9.5225    6.6943   13.3958 C.ar      2 RES2    0.0000
     68 C62        9.7083    5.8219   14.4298 C.ar      2 RES2    0.0000
     69 C63        8.9849    4.6644   14.5357 C.ar      2 RES2    0.0000
     70 C64        8.0438    4.3544   13.5632 C.ar      2 RES2    0.0000
     71 N3        10.7151    6.1069   15.4638 N.pl3     2 RES2    0.0000
     72 O5        10.7898    5.4163   16.4240 O.2       2 RES2    0.0000
     73 O6        11.4754    7.0616   15.2398 O.2       2 RES2    0.0000
     74 C65        4.0379    5.0164    8.1345 C.ar      2 RES2    0.0000
     75 C66        4.0892    3.9718    7.2186 C.ar      2 RES2    0.0000
     76 C67        3.2254    3.8972    6.1525 C.ar      2 RES2    0.0000
     77 C68        2.3019    4.8959    5.9876 C.ar      2 RES2    0.0000
     78 C69        2.1886    5.9347    6.8813 C.ar      2 RES2    0.0000
     79 C70        3.0508    5.9749    7.9597 C.ar      2 RES2    0.0000
     80 C71        1.3473    4.6433   12.7162 Du        3 SUP3    0.0000
     81 C72        2.9902    4.6720   14.5381 C.3       2 RES2    0.0000
     82 N4         1.3904    4.8251    4.8329 N.pl3     2 RES2    0.0000
     83 O7         1.5133    3.9087    4.0475 O.2       2 RES2    0.0000
     84 O8         0.5399    5.6822    4.7172 O.2       2 RES2    0.0000
     85 H1        -0.6399    2.2710    4.5055 H         1 RES1    0.0000
     86 H2        -2.7522    3.2199    4.7541 H         1 RES1    0.0000
     87 H3        -4.0567    2.6517    6.6129 H         1 RES1    0.0000
     88 H4        -3.1581    1.4100    8.3290 H         1 RES1    0.0000
     89 H5        -2.4522   -0.0593    9.5846 H         1 RES1    0.0000
     90 H6        -1.4919   -1.1001   11.4262 H         1 RES1    0.0000
     91 H7         0.8018   -1.4999   11.4409 H         1 RES1    0.0000
     92 H8         2.1268   -0.8705    9.6486 H         1 RES1    0.0000
     93 H9         5.4873    0.2028    6.5982 H         1 RES1    0.0000
     94 H10        2.8440   -0.4056    2.7796 H         1 RES1    0.0000
     95 H11        1.6726    1.7735    2.5826 H         1 RES1    0.0000
     96 H12        0.2795    1.9457    0.7017 H         1 RES1    0.0000
     97 H13       -2.1999   -0.8475    2.2921 H         1 RES1    0.0000
     98 H14       -0.8075   -1.0121    4.1632 H         1 RES1    0.0000
     99 H15        4.5704   -1.6224    8.1542 H         1 RES1    0.0000
    100 H16        6.0984   -1.5267    9.9317 H         1 RES1    0.0000
    101 H17        4.7680    2.1868   10.8476 H         1 RES1    0.0000
    102 H18        3.1993    2.0356    9.1242 H         1 RES1    0.0000
    103 H19        5.6266   -1.9017    2.4349 H         1 RES1    0.0000
    104 H20        6.2134   -0.4726    2.1715 H         1 RES1    0.0000
    105 H21        4.8356   -0.8820    1.5461 H         1 RES1    0.0000
    106 H22        9.1130    3.4744   11.3671 H         2 RES2    0.0000
    107 H23       11.2265    2.7493   10.7196 H         2 RES2    0.0000
    108 H24       12.1210    3.4342    8.6638 H         2 RES2    0.0000
    109 H25       10.8396    4.7390    7.2186 H         2 RES2    0.0000
    110 H26        9.8486    6.3021    6.2584 H         2 RES2    0.0000
    111 H27        8.5127    7.3103    4.6532 H         2 RES2    0.0000
    112 H28        6.2077    7.3888    4.9905 H         2 RES2    0.0000
    113 H29        5.2650    6.4092    6.8444 H         2 RES2    0.0000
    114 H30        2.5312    4.6682   10.1434 H         2 RES2    0.0000
    115 H31        5.5364    4.9686   13.7330 H         2 RES2    0.0000
    116 H32        8.4473    7.0214   11.7117 H         2 RES2    0.0000
    117 H33       10.0391    7.5017   13.3440 H         2 RES2    0.0000
    118 H34        9.1243    4.0732   15.2792 H         2 RES2    0.0000
    119 H35        7.5356    3.5413   13.6272 H         2 RES2    0.0000
    120 H36        4.7477    3.2831    7.3343 H         2 RES2    0.0000
    121 H37        3.2677    3.1606    5.5370 H         2 RES2    0.0000
    122 H38        1.5260    6.6158    6.7582 H         2 RES2    0.0000
    123 H39        2.9645    6.6828    8.6022 H         2 RES2    0.0000
    124 H40        3.4140    5.3015   15.1265 H         2 RES2    0.0000
    125 H41        3.0932    3.7862   14.8926 H         2 RES2    0.0000
    126 H42        2.0569    4.8806   14.4643 H         2 RES2    0.0000
@<TRIPOS>BOND
     1    1    2 ar
     2    2    3 1
     3    3    4 ar
     4    4    5 ar
     5    5    6 ar
     6    6    7 ar
     7    7    8 ar
     8    8    3 ar
     9    9    8 1
    10   10    9 ar
    11   11   10 ar
    12   12   11 ar
    13   13   12 ar
    14   14    9 ar
    15   15    2 ar
    16   16   15 ar
    17   17   16 ar
    18   18   17 ar
    19   19   18 ar
    20   20   19 ar
    21   21   20 ar
    22   22    1 ar
    23   23    1 1
    24   24   23 ar
    25   25   24 ar
    26   26   25 ar
    27   27   26 ar
    28   28   23 ar
    29   29   26 1
    30   30   29 2
    31   31   29 2
    32   32   16 1
    33   33   32 ar
    34   34   33 ar
    35   35   34 ar
    36   36   35 ar
    37   37   32 ar
    38   38   35 1
    39   39   38 2
    40   40   38 2
    41   42   20 1
    42   43   44 ar
    43   44   45 1
    44   45   46 ar
    45   46   47 ar
    46   47   48 ar
    47   48   49 ar
    48   49   50 ar
    49   50   45 ar
    50   51   50 1
    51   52   51 ar
    52   53   52 ar
    53   54   53 ar
    54   55   54 ar
    55   56   51 ar
    56   57   44 ar
    57   58   57 ar
    58   59   58 ar
    59   60   59 ar
    60   61   60 ar
    61   62   61 ar
    62   63   62 ar
    63   64   43 ar
    64   65   43 1
    65   66   65 ar
    66   67   66 ar
    67   68   67 ar
    68   69   68 ar
    69   70   65 ar
    70   71   68 1
    71   72   71 2
    72   73   71 2
    73   74   58 1
    74   75   74 ar
    75   76   75 ar
    76   77   76 ar
    77   78   77 ar
    78   79   74 ar
    79   81   62 1
    80   82   77 1
    81   83   82 2
    82   84   82 2
    83   85    4 1
    84   86    5 1
    85   87    6 1
    86   88    7 1
    87   89   10 1
    88   90   11 1
    89   91   12 1
    90   92   13 1
    91   93   18 1
    92   94   21 1
    93   95   24 1
    94   96   25 1
    95   97   27 1
    96   98   28 1
    97   99   33 1
    98  100   34 1
    99  101   36 1
   100  102   37 1
   101  103   42 1
   102  104   42 1
   103  105   42 1
   104  106   46 1
   105  107   47 1
   106  108   48 1
   107  109   49 1
   108  110   52 1
   109  111   53 1
   110  112   54 1
   111  113   55 1
   112  114   60 1
   113  115   63 1
   114  116   66 1
   115  117   67 1
   116  118   69 1
   117  119   70 1
   118  120   75 1
   119  121   76 1
   120  122   78 1
   121  123   79 1
   122  124   81 1
   123  125   81 1
   124  126   81 1
   125   13   14 ar
   126   14   15 1
   127   17   22 ar
   128   21   22 ar
   129   27   28 ar
   130   36   37 ar
   131   55   56 ar
   132   56   57 1
   133   59   64 ar
   134   63   64 ar
   135   69   70 ar
   136   78   79 ar
@<TRIPOS>SUBSTRUCTURE
     1 RES1 1
     2 RES2 43
     3 SUP3 41

@<TRIPOS>CRYSIN
  11.2300   19.1320   24.6450  90.0000  92.5800  90.0000 231 1

