# MOL2 file generated by ConQuest
# Please check atom types

@<TRIPOS>MOLECULE
SIVNAO
    49    54     1
SMALL
NO_CHARGES
****
Generated from CSD

@<TRIPOS>ATOM
      1 O1         2.4553   13.4758    7.7862 O.2       1 RES1    0.0000
      2 O2         0.4839   12.6272    7.5182 O.2       1 RES1    0.0000
      3 O3         0.4594    7.6179   12.0114 O.3       1 RES1    0.0000
      4 H1        -0.2495    7.2212   12.1222 H         1 RES1    0.0000
      5 O4         1.1300    6.0850   10.5075 O.3       1 RES1    0.0000
      6 O5         4.9208    6.5976   12.5990 O.2       1 RES1    0.0000
      7 C1         1.4610    6.7073   11.7573 C.3       1 RES1    0.0000
      8 N1         1.6150   12.5867    7.9145 N.pl3     1 RES1    0.0000
      9 C2         2.0560   11.3549    8.5952 C.ar      1 RES1    0.0000
     10 C3         1.1820   10.3257    8.7324 C.ar      1 RES1    0.0000
     11 H2         0.3066   10.4057    8.4291 H         1 RES1    0.0000
     12 C4         1.6110    9.1633    9.3250 C.ar      1 RES1    0.0000
     13 H3         1.0205    8.4499    9.4131 H         1 RES1    0.0000
     14 C5         2.8981    9.0364    9.7918 C.ar      1 RES1    0.0000
     15 C6         3.4097    7.7550   10.3920 C.3       1 RES1    0.0000
     16 H4         4.3732    7.8707   10.5254 H         1 RES1    0.0000
     17 C7         2.8138    7.4187   11.7510 C.3       1 RES1    0.0000
     18 H5         2.7244    8.2513   12.2606 H         1 RES1    0.0000
     19 C8         3.7252    6.4847   12.5273 C.2       1 RES1    0.0000
     20 C9         2.9152    5.4738   13.1715 C.ar      1 RES1    0.0000
     21 C10        3.3100    4.4911   14.0624 C.ar      1 RES1    0.0000
     22 H6         4.1992    4.4052   14.3216 H         1 RES1    0.0000
     23 C11        2.3456    3.6520   14.5494 C.ar      1 RES1    0.0000
     24 H7         2.5760    2.9812   15.1508 H         1 RES1    0.0000
     25 C12        2.1093    5.8128    9.6018 C.ar      1 RES1    0.0000
     26 C13        1.8618    4.7243    8.7500 C.ar      1 RES1    0.0000
     27 H8         1.0805    4.2275    8.8368 H         1 RES1    0.0000
     28 C14        2.7677    4.4089    7.8050 C.ar      1 RES1    0.0000
     29 H9         2.6061    3.6803    7.2489 H         1 RES1    0.0000
     30 C15        3.9478    5.1458    7.6352 C.ar      1 RES1    0.0000
     31 C16        4.9046    4.8082    6.6663 C.ar      1 RES1    0.0000
     32 H10        4.7580    4.0695    6.1190 H         1 RES1    0.0000
     33 C17        6.0274    5.5269    6.5090 C.ar      1 RES1    0.0000
     34 H11        6.6481    5.2867    5.8598 H         1 RES1    0.0000
     35 C18        6.2583    6.6310    7.3219 C.ar      1 RES1    0.0000
     36 H12        7.0314    7.1348    7.2061 H         1 RES1    0.0000
     37 C19        5.3710    6.9796    8.2769 C.ar      1 RES1    0.0000
     38 H13        5.5459    7.7182    8.8154 H         1 RES1    0.0000
     39 C20        4.1846    6.2471    8.4757 C.ar      1 RES1    0.0000
     40 C21        3.2355    6.5747    9.4710 C.ar      1 RES1    0.0000
     41 C22        1.6129    5.6131   12.7853 C.ar      1 RES1    0.0000
     42 C23        0.6510    4.7702   13.2835 C.ar      1 RES1    0.0000
     43 H14       -0.2407    4.8599   13.0344 H         1 RES1    0.0000
     44 C24        1.0460    3.7949   14.1555 C.ar      1 RES1    0.0000
     45 H15        0.4073    3.2087   14.4927 H         1 RES1    0.0000
     46 C25        3.7412   10.1222    9.6509 C.ar      1 RES1    0.0000
     47 H16        4.6126   10.0636    9.9705 H         1 RES1    0.0000
     48 C26        3.3285   11.2788    9.0532 C.ar      1 RES1    0.0000
     49 H17        3.9091   11.9998    8.9639 H         1 RES1    0.0000
@<TRIPOS>BOND
     1    1    8 2
     2    2    8 2
     3    3    4 1
     4    5    7 1
     5    6   19 2
     6    7    3 1
     7    8    9 1
     8    9   10 ar
     9   10   11 1
    10   12   10 ar
    11   13   12 1
    12   14   12 ar
    13   15   14 1
    14   16   15 1
    15   17    7 1
    16   18   17 1
    17   19   17 1
    18   20   19 1
    19   21   20 ar
    20   22   21 1
    21   23   21 ar
    22   24   23 1
    23   25    5 1
    24   26   25 ar
    25   27   26 1
    26   28   26 ar
    27   29   28 1
    28   30   28 ar
    29   31   30 ar
    30   32   31 1
    31   33   31 ar
    32   34   33 1
    33   35   33 ar
    34   36   35 1
    35   37   35 ar
    36   38   37 1
    37   39   30 ar
    38   40   15 1
    39   41    7 1
    40   42   41 ar
    41   43   42 1
    42   44   23 ar
    43   45   44 1
    44   46   14 ar
    45   47   46 1
    46   48    9 ar
    47   49   48 1
    48   15   17 1
    49   20   41 ar
    50   25   40 ar
    51   37   39 ar
    52   39   40 ar
    53   42   44 ar
    54   46   48 ar
@<TRIPOS>SUBSTRUCTURE
     1 RES1 1

@<TRIPOS>CRYSIN
   6.9370   11.6380   13.0190  75.5350  89.8740  76.1650   2 1

