# MOL2 file generated by ConQuest
# Please check atom types

@<TRIPOS>MOLECULE
SIVPOC
    45    48     1
SMALL
NO_CHARGES
****
Generated from CSD

@<TRIPOS>ATOM
      1 O1         8.9211    8.0876   19.2675 O.3       1 RES1    0.0000
      2 N1         9.4788    7.6865   17.9212 N.3       1 RES1    0.0000
      3 C1         8.1878    8.3103   18.0673 C.3       1 RES1    0.0000
      4 C2         6.8618    7.6249   18.0009 C.3       1 RES1    0.0000
      5 C3         5.8757    8.3198   18.9222 C.3       1 RES1    0.0000
      6 C4         5.7749    9.8090   18.6018 C.3       1 RES1    0.0000
      7 C5         7.1532   10.4787   18.5869 C.3       1 RES1    0.0000
      8 C6         8.1360    9.7727   17.6555 C.3       1 RES1    0.0000
      9 C7         9.5674    6.2019   17.8199 C.3       1 RES1    0.0000
     10 C8         9.7633    5.9240   16.3474 C.ar      1 RES1    0.0000
     11 C9         8.7484    5.3791   15.5820 C.ar      1 RES1    0.0000
     12 C10        8.8817    5.2259   14.2224 C.ar      1 RES1    0.0000
     13 C11       10.0363    5.6223   13.6015 C.ar      1 RES1    0.0000
     14 C12       11.0569    6.1719   14.3320 C.ar      1 RES1    0.0000
     15 C13       10.9242    6.3046   15.7049 C.ar      1 RES1    0.0000
     16 C14       10.7156    5.7376   18.7014 C.3       1 RES1    0.0000
     17 C15        7.8809    9.9401   16.1515 C.ar      1 RES1    0.0000
     18 C16        8.6537    9.2168   15.2434 C.ar      1 RES1    0.0000
     19 C17        8.4812    9.3558   13.8854 C.ar      1 RES1    0.0000
     20 C18        7.5245   10.2133   13.3890 C.ar      1 RES1    0.0000
     21 C19        6.7488   10.9272   14.2589 C.ar      1 RES1    0.0000
     22 C20        6.9280   10.7945   15.6318 C.ar      1 RES1    0.0000
     23 H1         6.9132    6.7120   18.3279 H         1 RES1    0.0000
     24 H2         6.4662    7.7544   17.0662 H         1 RES1    0.0000
     25 H3         6.2737    8.2282   19.9050 H         1 RES1    0.0000
     26 H4         4.9830    7.7702   18.8923 H         1 RES1    0.0000
     27 H5         5.1625   10.2655   19.2908 H         1 RES1    0.0000
     28 H6         5.2602    9.9654   17.7302 H         1 RES1    0.0000
     29 H7         7.5291   10.5023   19.4900 H         1 RES1    0.0000
     30 H8         7.0291   11.4973   18.2781 H         1 RES1    0.0000
     31 H9         8.9692   10.1075   17.7635 H         1 RES1    0.0000
     32 H10        8.6096    5.7171   18.1287 H         1 RES1    0.0000
     33 H11        7.9455    5.1011   16.0037 H         1 RES1    0.0000
     34 H12        8.1980    4.8642   13.6795 H         1 RES1    0.0000
     35 H13       10.1122    5.5276   12.7166 H         1 RES1    0.0000
     36 H14       11.8818    6.5857   13.9451 H         1 RES1    0.0000
     37 H15       11.6697    6.6804   16.2195 H         1 RES1    0.0000
     38 H16       10.8899    4.7537   18.5271 H         1 RES1    0.0000
     39 H17       11.5503    6.1909   18.4109 H         1 RES1    0.0000
     40 H18       10.5264    5.8908   19.6560 H         1 RES1    0.0000
     41 H19        9.4148    8.6862   15.5887 H         1 RES1    0.0000
     42 H20        9.0616    8.8915   13.2977 H         1 RES1    0.0000
     43 H21        7.4779   10.2970   12.3514 H         1 RES1    0.0000
     44 H22        6.0586   11.5605   13.9285 H         1 RES1    0.0000
     45 H23        6.3991   11.4025   16.2195 H         1 RES1    0.0000
@<TRIPOS>BOND
     1    1    2 1
     2    2    3 1
     3    3    1 1
     4    4    3 1
     5    5    4 1
     6    6    5 1
     7    7    6 1
     8    8    3 1
     9    9    2 1
    10   10    9 1
    11   11   10 ar
    12   12   11 ar
    13   13   12 ar
    14   14   13 ar
    15   15   10 ar
    16   16    9 1
    17   17    8 1
    18   18   17 ar
    19   19   18 ar
    20   20   19 ar
    21   21   20 ar
    22   22   17 ar
    23   23    4 1
    24   24    4 1
    25   25    5 1
    26   26    5 1
    27   27    6 1
    28   28    6 1
    29   29    7 1
    30   30    7 1
    31   31    8 1
    32   32    9 1
    33   33   11 1
    34   34   12 1
    35   35   13 1
    36   36   14 1
    37   37   15 1
    38   38   16 1
    39   39   16 1
    40   40   16 1
    41   41   18 1
    42   42   19 1
    43   43   20 1
    44   44   21 1
    45   45   22 1
    46    7    8 1
    47   14   15 ar
    48   21   22 ar
@<TRIPOS>SUBSTRUCTURE
     1 RES1 1

@<TRIPOS>CRYSIN
  12.5790   15.7930   16.6260  90.0000  93.1200  90.0000  15 1

