# MOL2 file generated by ConQuest
# Please check atom types

@<TRIPOS>MOLECULE
SIVPES
    38    40     1
SMALL
NO_CHARGES
****
Generated from CSD

@<TRIPOS>ATOM
      1 O1         3.8370    0.4073    2.9696 O.3       1 RES1    0.0000
      2 N1         4.6393    1.3690    3.8004 N.3       1 RES1    0.0000
      3 C1         4.8930   -0.0262    3.8098 C.3       1 RES1    0.0000
      4 C2         6.1615   -0.4040    3.0654 C.3       1 RES1    0.0000
      5 C3         7.2934   -0.5643    4.0744 C.3       1 RES1    0.0000
      6 C4         6.9649   -1.5473    5.1847 C.3       1 RES1    0.0000
      7 C5         5.6855   -1.1318    5.9071 C.3       1 RES1    0.0000
      8 C6         4.5341   -0.9519    4.9507 C.3       1 RES1    0.0000
      9 C7         5.9967   -1.6470    2.1931 C.3       1 RES1    0.0000
     10 C8         3.7687    1.9594    4.8486 C.3       1 RES1    0.0000
     11 C9         3.0000    3.1158    4.1992 C.3       1 RES1    0.0000
     12 C10        4.6751    2.4305    5.9691 C.ar      1 RES1    0.0000
     13 C11        5.8406    3.0962    5.7265 C.ar      1 RES1    0.0000
     14 C12        6.6700    3.4887    6.7551 C.ar      1 RES1    0.0000
     15 C13        6.3144    3.2745    8.0318 C.ar      1 RES1    0.0000
     16 C14        5.1326    2.6137    8.3106 C.ar      1 RES1    0.0000
     17 C15        4.3119    2.1655    7.2859 C.ar      1 RES1    0.0000
     18 H1         6.3729    0.3615    2.5103 H         1 RES1    0.0000
     19 H2         8.0589   -0.8914    3.5868 H         1 RES1    0.0000
     20 H3         7.5092    0.2797    4.4434 H         1 RES1    0.0000
     21 H4         6.8576   -2.4305    4.8470 H         1 RES1    0.0000
     22 H5         7.6891   -1.5685    5.8325 H         1 RES1    0.0000
     23 H6         5.4329   -1.7763    6.5619 H         1 RES1    0.0000
     24 H7         5.8287   -0.2895    6.3609 H         1 RES1    0.0000
     25 H8         3.7784   -0.5626    5.4155 H         1 RES1    0.0000
     26 H9         4.2717   -1.7893    4.6044 H         1 RES1    0.0000
     27 H10        5.7473   -2.4027    2.6760 H         1 RES1    0.0000
     28 H11        5.2887   -1.4900    1.5084 H         1 RES1    0.0000
     29 H12        6.7925   -1.8286    1.6835 H         1 RES1    0.0000
     30 H13        3.1529    1.2758    5.1658 H         1 RES1    0.0000
     31 H14        3.6136    3.7750    3.9213 H         1 RES1    0.0000
     32 H15        2.4785    2.8116    3.4831 H         1 RES1    0.0000
     33 H16        2.4156    3.5035    4.8706 H         1 RES1    0.0000
     34 H17        6.1040    3.2745    4.8251 H         1 RES1    0.0000
     35 H18        7.5135    3.9353    6.5808 H         1 RES1    0.0000
     36 H19        6.9096    3.6081    8.7377 H         1 RES1    0.0000
     37 H20        4.8681    2.4730    9.2292 H         1 RES1    0.0000
     38 H21        3.5171    1.7108    7.5026 H         1 RES1    0.0000
@<TRIPOS>BOND
     1    1    2 1
     2    2    3 1
     3    3    1 1
     4    4    3 1
     5    5    4 1
     6    6    5 1
     7    7    6 1
     8    8    3 1
     9    9    4 1
    10   10    2 1
    11   11   10 1
    12   12   10 1
    13   13   12 ar
    14   14   13 ar
    15   15   14 ar
    16   16   15 ar
    17   17   12 ar
    18   18    4 1
    19   19    5 1
    20   20    5 1
    21   21    6 1
    22   22    6 1
    23   23    7 1
    24   24    7 1
    25   25    8 1
    26   26    8 1
    27   27    9 1
    28   28    9 1
    29   29    9 1
    30   30   10 1
    31   31   11 1
    32   32   11 1
    33   33   11 1
    34   34   13 1
    35   35   14 1
    36   36   15 1
    37   37   16 1
    38   38   17 1
    39    7    8 1
    40   16   17 ar
@<TRIPOS>SUBSTRUCTURE
     1 RES1 1

@<TRIPOS>CRYSIN
  10.8420   16.3560    7.8520  90.0000  90.0000  90.0000  19 1

