# MOL2 file generated by ConQuest
# Please check atom types

@<TRIPOS>MOLECULE
SIVPUI
    37    40     1
SMALL
NO_CHARGES
****
Generated from CSD

@<TRIPOS>ATOM
      1 O1         8.3679    0.3557    7.4966 O.3       1 RES1    0.0000
      2 O2         4.4416    1.2232    6.5797 O.3       1 RES1    0.0000
      3 O3         7.0949   -2.2713    6.6138 O.2       1 RES1    0.0000
      4 N1         5.6209    0.4799    6.8501 N.2       1 RES1    0.0000
      5 C1         7.3623    0.1120    8.4717 C.3       1 RES1    0.0000
      6 C2         6.0054    0.6436    8.0386 C.2       1 RES1    0.0000
      7 C3         5.4518    1.4913    9.1357 C.3       1 RES1    0.0000
      8 C4         6.1842    2.8528    8.9664 C.3       1 RES1    0.0000
      9 C5         7.6559    2.4906    9.2764 C.3       1 RES1    0.0000
     10 C6         7.5611    0.9992    9.7393 C.3       1 RES1    0.0000
     11 C7         6.1840    0.9484   10.3923 C.3       1 RES1    0.0000
     12 C8         7.3730   -1.3850    8.8818 C.3       1 RES1    0.0000
     13 C9         7.5877   -2.3306    7.7011 C.2       1 RES1    0.0000
     14 C10        8.5930   -3.3534    8.1793 C.3       1 RES1    0.0000
     15 C11        9.9423   -2.5950    8.1518 C.3       1 RES1    0.0000
     16 C12        9.8486   -1.6438    9.3479 C.3       1 RES1    0.0000
     17 C13        8.4300   -1.8837    9.9031 C.3       1 RES1    0.0000
     18 C14        8.3069   -3.4023    9.6557 C.3       1 RES1    0.0000
     19 H1         8.0242    0.2070    6.5742 H         1 RES1    0.0000
     20 H2         4.2468    1.0350    5.6068 H         1 RES1    0.0000
     21 H3         4.4674    1.5243    9.1577 H         1 RES1    0.0000
     22 H4         5.8425    3.5190    9.5975 H         1 RES1    0.0000
     23 H5         6.0911    3.1897    8.0474 H         1 RES1    0.0000
     24 H6         8.0143    3.0579    9.9932 H         1 RES1    0.0000
     25 H7         8.2205    2.5781    8.4761 H         1 RES1    0.0000
     26 H8         8.3257    0.7245   10.2791 H         1 RES1    0.0000
     27 H9         5.9052    0.0376   10.6419 H         1 RES1    0.0000
     28 H10        6.0993    1.5431   11.1696 H         1 RES1    0.0000
     29 H11        6.4794   -1.4113    9.3006 H         1 RES1    0.0000
     30 H12        8.5824   -4.2058    7.6956 H         1 RES1    0.0000
     31 H13       10.0485   -2.0982    7.3108 H         1 RES1    0.0000
     32 H14       10.6996   -3.2179    8.2562 H         1 RES1    0.0000
     33 H15        9.9575   -0.7151    9.0588 H         1 RES1    0.0000
     34 H16       10.5319   -1.8630   10.0262 H         1 RES1    0.0000
     35 H17        8.3035   -1.4960   10.7958 H         1 RES1    0.0000
     36 H18        8.9688   -3.9236   10.1471 H         1 RES1    0.0000
     37 H19        7.4097   -3.7448    9.8503 H         1 RES1    0.0000
@<TRIPOS>BOND
     1    1    5 1
     2    2    4 1
     3    3   13 2
     4    4    6 2
     5    5    6 1
     6    6    7 1
     7    7    8 1
     8    8    9 1
     9    9   10 1
    10   10    5 1
    11   11    7 1
    12   12    5 1
    13   13   12 1
    14   14   13 1
    15   15   14 1
    16   16   15 1
    17   17   12 1
    18   18   14 1
    19   19    1 1
    20   20    2 1
    21   21    7 1
    22   22    8 1
    23   23    8 1
    24   24    9 1
    25   25    9 1
    26   26   10 1
    27   27   11 1
    28   28   11 1
    29   29   12 1
    30   30   14 1
    31   31   15 1
    32   32   15 1
    33   33   16 1
    34   34   16 1
    35   35   17 1
    36   36   18 1
    37   37   18 1
    38   10   11 1
    39   16   17 1
    40   17   18 1
@<TRIPOS>SUBSTRUCTURE
     1 RES1 1

@<TRIPOS>CRYSIN
  12.1330    9.4090   11.1780  90.0000 100.4200  90.0000  14 1

