# MOL2 file generated by ConQuest
# Please check atom types

@<TRIPOS>MOLECULE
SIVREU
    33    36     1
SMALL
NO_CHARGES
****
Generated from CSD

@<TRIPOS>ATOM
      1 O1        12.6829   -0.5512    3.8341 O.3       1 RES1    0.0000
      2 O2        14.9585   -0.5214    0.2281 O.3       1 RES1    0.0000
      3 O3        10.5212    1.4704    4.8377 O.2       1 RES1    0.0000
      4 N1        13.8288   -0.4538    1.1014 N.2       1 RES1    0.0000
      5 C1        12.9370    0.6475    3.1151 C.3       1 RES1    0.0000
      6 C2        13.9797    0.4319    1.9985 C.2       1 RES1    0.0000
      7 C3        15.1257    1.3881    2.2744 C.3       1 RES1    0.0000
      8 C4        15.7433    0.8722    3.5691 C.2       1 RES1    0.0000
      9 C5        14.8946    1.1061    4.5336 C.2       1 RES1    0.0000
     10 C6        13.6685    1.7591    3.9427 C.3       1 RES1    0.0000
     11 C7        14.3347    2.5783    2.8284 C.3       1 RES1    0.0000
     12 C8        11.5646    1.1445    2.6176 C.3       1 RES1    0.0000
     13 C9        10.4970    1.0001    3.7320 C.2       1 RES1    0.0000
     14 C10        9.3723    0.1651    3.1346 C.3       1 RES1    0.0000
     15 C11        8.7778    1.1019    2.1093 C.2       1 RES1    0.0000
     16 C12        9.6397    1.2383    1.1426 C.2       1 RES1    0.0000
     17 C13       10.8536    0.3862    1.4641 C.3       1 RES1    0.0000
     18 C14       10.1730   -0.7638    2.2223 C.3       1 RES1    0.0000
     19 H1        13.3155   -0.7614    4.3664 H         1 RES1    0.0000
     20 H2        14.6911   -1.1634   -0.3041 H         1 RES1    0.0000
     21 H3        15.7297    1.5715    1.5423 H         1 RES1    0.0000
     22 H4        16.6141    0.4446    3.6712 H         1 RES1    0.0000
     23 H5        15.0285    0.8893    5.4742 H         1 RES1    0.0000
     24 H6        13.1081    2.2659    4.5619 H         1 RES1    0.0000
     25 H7        14.9098    3.2952    3.1716 H         1 RES1    0.0000
     26 H8        13.6942    2.9480    2.1940 H         1 RES1    0.0000
     27 H9        11.6389    2.0892    2.3678 H         1 RES1    0.0000
     28 H10        8.7473   -0.2558    3.7581 H         1 RES1    0.0000
     29 H11        7.9045    1.5349    2.1723 H         1 RES1    0.0000
     30 H12        9.5312    1.7968    0.3476 H         1 RES1    0.0000
     31 H13       11.4150    0.1279    0.6951 H         1 RES1    0.0000
     32 H14       10.7979   -1.3339    2.7154 H         1 RES1    0.0000
     33 H15        9.6019   -1.3217    1.6510 H         1 RES1    0.0000
@<TRIPOS>BOND
     1    1    5 1
     2    2    4 1
     3    3   13 2
     4    4    6 2
     5    5    6 1
     6    6    7 1
     7    7    8 1
     8    8    9 2
     9    9   10 1
    10   10    5 1
    11   11    7 1
    12   12    5 1
    13   13   12 1
    14   14   13 1
    15   15   14 1
    16   16   15 2
    17   17   12 1
    18   18   14 1
    19   19    1 1
    20   20    2 1
    21   21    7 1
    22   22    8 1
    23   23    9 1
    24   24   10 1
    25   25   11 1
    26   26   11 1
    27   27   12 1
    28   28   14 1
    29   29   15 1
    30   30   16 1
    31   31   17 1
    32   32   18 1
    33   33   18 1
    34   10   11 1
    35   16   17 1
    36   17   18 1
@<TRIPOS>SUBSTRUCTURE
     1 RES1 1

@<TRIPOS>CRYSIN
  18.1650    6.0910   22.2640  90.0000 102.6550  90.0000  15 1

