# MOL2 file generated by ConQuest
# Please check atom types

@<TRIPOS>MOLECULE
SIVXEB
    46    48     2
SMALL
USER_CHARGES
****
Generated from CSD

@<TRIPOS>ATOM
      1 O1        -0.1017    3.8956    1.3608 O.3       1 RES1    0.0000
      2 O2         1.8059    1.5754    3.1316 O.2       1 RES1   -1.0000
      3 O3        -1.7620    2.7364    0.4018 O.2       1 RES1    0.0000
      4 N1         0.9296    2.1390    2.3912 N.pl3     1 RES1    1.0000
      5 C1        -0.1018    1.6176    1.7636 C.2       1 RES1    0.0000
      6 C2         0.9909    3.6258    2.2494 C.3       1 RES1    0.0000
      7 H1         0.8276    4.0619    3.1343 H         1 RES1    0.0000
      8 C3        -0.7805    2.7342    1.0878 C.2       1 RES1    0.0000
      9 C4         2.2814    4.0887    1.6867 C.3       1 RES1    0.0000
     10 H2         2.4492    3.6320    0.8362 H         1 RES1    0.0000
     11 H3         3.0037    3.8836    2.3167 H         1 RES1    0.0000
     12 H4         2.2435    5.0561    1.5364 H         1 RES1    0.0000
     13 C5        -0.5199    0.2166    1.7816 C.ar      1 RES1    0.0000
     14 C6         0.3180   -0.7908    2.2523 C.ar      1 RES1    0.0000
     15 H5         1.1960   -0.5803    2.5487 H         1 RES1    0.0000
     16 C7        -0.1303   -2.0988    2.2881 C.ar      1 RES1    0.0000
     17 H6         0.4453   -2.7803    2.6160 H         1 RES1    0.0000
     18 C8        -1.3893   -2.4315    1.8585 C.ar      1 RES1    0.0000
     19 H7        -1.6778   -3.3365    1.8757 H         1 RES1    0.0000
     20 C9        -2.2351   -1.4389    1.4018 C.ar      1 RES1    0.0000
     21 H8        -3.1132   -1.6623    1.1168 H         1 RES1    0.0000
     22 C10       -1.8121   -0.1217    1.3561 C.ar      1 RES1    0.0000
     23 H9        -2.3983    0.5544    1.0366 H         1 RES1    0.0000
     24 O4         3.4664    8.9614    8.5587 O.3       2 RES2    0.0000
     25 O5         1.5616    6.6330   10.3212 O.2       2 RES2   -1.0000
     26 O6         5.1159    7.8024    7.5724 O.2       2 RES2    0.0000
     27 N2         2.4342    7.2044    9.5766 N.pl3     2 RES2    1.0000
     28 C11        3.4584    6.6760    8.9401 C.2       2 RES2    0.0000
     29 C12        2.3773    8.6825    9.4332 C.3       2 RES2    0.0000
     30 H10        2.5346    9.1159   10.3207 H         2 RES2    0.0000
     31 C13        4.1401    7.8062    8.2719 C.2       2 RES2    0.0000
     32 C14        1.0744    9.1424    8.8674 C.3       2 RES2    0.0000
     33 H11        1.1095   10.1096    8.7113 H         2 RES2    0.0000
     34 H12        0.3540    8.9403    9.5002 H         2 RES2    0.0000
     35 H13        0.9049    8.6801    8.0197 H         2 RES2    0.0000
     36 C15        3.8689    5.2827    8.9374 C.ar      2 RES2    0.0000
     37 C16        3.0189    4.2611    9.3834 C.ar      2 RES2    0.0000
     38 H14        2.1415    4.4706    9.6806 H         2 RES2    0.0000
     39 C17        3.4524    2.9530    9.3914 C.ar      2 RES2    0.0000
     40 H15        2.8660    2.2716    9.6993 H         2 RES2    0.0000
     41 C18        4.7130    2.6117    8.9654 C.ar      2 RES2    0.0000
     42 H16        4.9934    1.7034    8.9690 H         2 RES2    0.0000
     43 C19        5.5715    3.6128    8.5294 C.ar      2 RES2    0.0000
     44 H17        6.4496    3.3885    8.2445 H         2 RES2    0.0000
     45 C20        5.1613    4.9252    8.5083 C.ar      2 RES2    0.0000
     46 H18        5.7569    5.5979    8.2001 H         2 RES2    0.0000
@<TRIPOS>BOND
     1    1    6 1
     2    2    4 1
     3    3    8 2
     4    4    5 2
     5    5    8 1
     6    6    4 1
     7    7    6 1
     8    8    1 1
     9    9    6 1
    10   10    9 1
    11   11    9 1
    12   12    9 1
    13   13    5 1
    14   14   13 ar
    15   15   14 1
    16   16   14 ar
    17   17   16 1
    18   18   16 ar
    19   19   18 1
    20   20   18 ar
    21   21   20 1
    22   22   13 ar
    23   23   22 1
    24   24   29 1
    25   25   27 1
    26   26   31 2
    27   27   28 2
    28   28   31 1
    29   29   27 1
    30   30   29 1
    31   31   24 1
    32   32   29 1
    33   33   32 1
    34   34   32 1
    35   35   32 1
    36   36   28 1
    37   37   36 ar
    38   38   37 1
    39   39   37 ar
    40   40   39 1
    41   41   39 ar
    42   42   41 1
    43   43   41 ar
    44   44   43 1
    45   45   36 ar
    46   46   45 1
    47   20   22 ar
    48   43   45 ar
@<TRIPOS>SUBSTRUCTURE
     1 RES1 1
     2 RES2 24

@<TRIPOS>CRYSIN
   6.6394    9.5228   14.3291  87.7820  89.9770  89.7630   2 1

