# MOL2 file generated by ConQuest
# Please check atom types

@<TRIPOS>MOLECULE
SIYYUU
    54    54     1
SMALL
NO_CHARGES
****
Generated from CSD

@<TRIPOS>ATOM
      1 O1         3.6216    4.9920    7.6987 O.3       1 RES1    0.0000
      2 O2         3.7172    6.6191    5.5392 O.3       1 RES1    0.0000
      3 O3         4.3926    8.6071    6.0475 O.2       1 RES1    0.0000
      4 O4         2.2703    2.3683    5.7881 O.3       1 RES1    0.0000
      5 O5         0.0766    2.0996    5.7075 O.2       1 RES1    0.0000
      6 O6         3.4394    2.1740    8.2178 O.3       1 RES1    0.0000
      7 O7         2.0511    0.5144    8.6904 O.2       1 RES1    0.0000
      8 O8         2.6268    3.8081   10.9855 O.3       1 RES1    0.0000
      9 O9         3.9696    2.0196   11.3093 O.2       1 RES1    0.0000
     10 O10        2.8370    6.5919   10.5679 O.3       1 RES1    0.0000
     11 O11        4.1237    8.2119   11.3741 O.2       1 RES1    0.0000
     12 N1         2.6191    5.6536    5.6707 N.3       1 RES1    0.0000
     13 C1         3.2218    4.5267    6.4156 C.3       1 RES1    0.0000
     14 C2         2.1217    3.4626    6.6866 C.3       1 RES1    0.0000
     15 C3         2.3213    3.0900    8.1331 C.3       1 RES1    0.0000
     16 C4         2.7635    4.4307    8.7198 C.3       1 RES1    0.0000
     17 C5         3.5698    4.3804   10.0159 C.3       1 RES1    0.0000
     18 C6         3.9895    5.7495   10.4981 C.3       1 RES1    0.0000
     19 C7         3.5137    7.8206    6.1760 C.2       1 RES1    0.0000
     20 C8         2.2109    8.0121    6.9215 C.3       1 RES1    0.0000
     21 C9         2.3434    5.2348    4.3083 C.3       1 RES1    0.0000
     22 C10        1.1332    1.7222    5.3863 C.2       1 RES1    0.0000
     23 C11        1.4558    0.5789    4.5438 C.3       1 RES1    0.0000
     24 C12        3.1736    0.8886    8.5010 C.2       1 RES1    0.0000
     25 C13        4.4043    0.0543    8.5383 C.3       1 RES1    0.0000
     26 C14        2.9524    2.5935   11.5469 C.2       1 RES1    0.0000
     27 C15        1.8572    2.1450   12.4670 C.3       1 RES1    0.0000
     28 C16        3.0781    7.8277   11.0458 C.2       1 RES1    0.0000
     29 C17        1.7793    8.6749   11.0339 C.3       1 RES1    0.0000
     30 H1         4.0535    4.1239    5.8392 H         1 RES1    0.0000
     31 H2         1.1020    3.8140    6.5230 H         1 RES1    0.0000
     32 H3         1.4567    2.6331    8.6159 H         1 RES1    0.0000
     33 H4         1.8650    4.9950    8.9765 H         1 RES1    0.0000
     34 H5         4.4920    3.8151    9.8811 H         1 RES1    0.0000
     35 H6         4.4394    5.6657   11.4872 H         1 RES1    0.0000
     36 H7         4.7122    6.1759    9.8042 H         1 RES1    0.0000
     37 H8         1.4041    7.8837    6.2038 H         1 RES1    0.0000
     38 H9         2.1544    7.2307    7.6798 H         1 RES1    0.0000
     39 H10        2.0521    8.9651    7.4256 H         1 RES1    0.0000
     40 H11        3.2691    4.9308    3.8251 H         1 RES1    0.0000
     41 H12        1.6467    4.3951    4.3217 H         1 RES1    0.0000
     42 H13        1.8972    6.0653    3.7601 H         1 RES1    0.0000
     43 H14        1.9946    0.9286    3.6675 H         1 RES1    0.0000
     44 H15        2.0794   -0.1129    5.1081 H         1 RES1    0.0000
     45 H16        0.5486    0.0631    4.2252 H         1 RES1    0.0000
     46 H17        4.8925    0.1040    7.5655 H         1 RES1    0.0000
     47 H18        5.0737    0.4483    9.3017 H         1 RES1    0.0000
     48 H19        4.1899   -0.9917    8.7676 H         1 RES1    0.0000
     49 H20        1.7286    2.8865   13.2549 H         1 RES1    0.0000
     50 H21        0.9335    2.0476   11.9011 H         1 RES1    0.0000
     51 H22        2.1174    1.1854   12.9101 H         1 RES1    0.0000
     52 H23        1.4090    8.7515   10.0131 H         1 RES1    0.0000
     53 H24        1.0290    8.1892   11.6587 H         1 RES1    0.0000
     54 H25        1.9751    9.6756   11.4222 H         1 RES1    0.0000
@<TRIPOS>BOND
     1    1   13 1
     2    2   12 1
     3    3   19 2
     4    4   14 1
     5    5   22 2
     6    6   15 1
     7    7   24 2
     8    8   17 1
     9    9   26 2
    10   10   18 1
    11   11   28 2
    12   12   13 1
    13   13   14 1
    14   14   15 1
    15   15   16 1
    16   16    1 1
    17   17   16 1
    18   18   17 1
    19   19    2 1
    20   20   19 1
    21   21   12 1
    22   22    4 1
    23   23   22 1
    24   24    6 1
    25   25   24 1
    26   26    8 1
    27   27   26 1
    28   28   10 1
    29   29   28 1
    30   30   13 1
    31   31   14 1
    32   32   15 1
    33   33   16 1
    34   34   17 1
    35   35   18 1
    36   36   18 1
    37   37   20 1
    38   38   20 1
    39   39   20 1
    40   40   21 1
    41   41   21 1
    42   42   21 1
    43   43   23 1
    44   44   23 1
    45   45   23 1
    46   46   25 1
    47   47   25 1
    48   48   25 1
    49   49   27 1
    50   50   27 1
    51   51   27 1
    52   52   29 1
    53   53   29 1
    54   54   29 1
@<TRIPOS>SUBSTRUCTURE
     1 RES1 1

@<TRIPOS>CRYSIN
   9.7440   11.0680   19.7070  90.0000  90.0000  90.0000  19 1

