# MOL2 file generated by ConQuest
# Please check atom types

@<TRIPOS>MOLECULE
SIZDAI
    43    44     1
SMALL
NO_CHARGES
****
Generated from CSD

@<TRIPOS>ATOM
      1 N1         3.4219    7.8977   16.9082 N.2       1 RES1    0.0000
      2 N2         2.6050    6.7917   12.5917 N.2       1 RES1    0.0000
      3 O1         4.3615    8.3387   15.9524 O.3       1 RES1    0.0000
      4 O2         3.6215    7.3749   13.3662 O.3       1 RES1    0.0000
      5 O3         2.0890    6.2985   18.5087 O.3       1 RES1    0.0000
      6 H1         2.6132    6.4970   17.9112 H         1 RES1    0.0000
      7 O4        -0.8459    8.1627   21.5763 O.3       1 RES1    0.0000
      8 O5         0.8152    5.0329   11.7394 O.3       1 RES1    0.0000
      9 H2         1.3907    5.3204   12.2491 H         1 RES1    0.0000
     10 O6        -0.9959    4.3934    9.9204 O.3       1 RES1    0.0000
     11 H3        -0.7360    4.0026   10.5924 H         1 RES1    0.0000
     12 C1         4.9316    7.1979   15.3067 C.3       1 RES1    0.0000
     13 H4         5.2471    6.5789   15.9850 H         1 RES1    0.0000
     14 H5         5.6989    7.4823   14.7874 H         1 RES1    0.0000
     15 C2         3.9778    6.4868   14.4111 C.3       1 RES1    0.0000
     16 H6         4.3936    5.6908   14.0455 H         1 RES1    0.0000
     17 H7         3.1882    6.2218   14.9072 H         1 RES1    0.0000
     18 C3         2.8392    8.8738   17.4658 C.2       1 RES1    0.0000
     19 H8         3.0588    9.7383   17.2026 H         1 RES1    0.0000
     20 C4         1.8559    8.6927   18.4867 C.ar      1 RES1    0.0000
     21 C5         1.5144    7.4301   19.0040 C.ar      1 RES1    0.0000
     22 C6         0.6020    7.2961   20.0087 C.ar      1 RES1    0.0000
     23 H9         0.3893    6.4510   20.3331 H         1 RES1    0.0000
     24 C7        -0.0005    8.4042   20.5380 C.ar      1 RES1    0.0000
     25 C8         0.2593    9.6637   20.0287 C.ar      1 RES1    0.0000
     26 H10       -0.1840   10.4126   20.3564 H         1 RES1    0.0000
     27 C9         1.1860    9.7762   19.0307 C.ar      1 RES1    0.0000
     28 H11        1.3767   10.6244   18.6996 H         1 RES1    0.0000
     29 C10       -1.5169    9.2493   22.1751 C.3       1 RES1    0.0000
     30 H12       -0.8810    9.8089   22.6252 H         1 RES1    0.0000
     31 H13       -2.1592    8.9198   22.8082 H         1 RES1    0.0000
     32 H14       -1.9680    9.7588   21.4974 H         1 RES1    0.0000
     33 C11        2.3203    7.4843   11.5608 C.2       1 RES1    0.0000
     34 H15        2.7956    8.2701   11.4141 H         1 RES1    0.0000
     35 C12        1.3139    7.1211   10.6210 C.ar      1 RES1    0.0000
     36 C13        0.6099    5.9261   10.7338 C.ar      1 RES1    0.0000
     37 C14       -0.3422    5.5844    9.8063 C.ar      1 RES1    0.0000
     38 C15       -0.6534    6.4356    8.7833 C.ar      1 RES1    0.0000
     39 H16       -1.3181    6.2126    8.1738 H         1 RES1    0.0000
     40 C16        0.0290    7.6296    8.6665 C.ar      1 RES1    0.0000
     41 H17       -0.1826    8.2098    7.9709 H         1 RES1    0.0000
     42 C17        1.0215    7.9785    9.5637 C.ar      1 RES1    0.0000
     43 H18        1.4883    8.7756    9.4613 H         1 RES1    0.0000
@<TRIPOS>BOND
     1    1    3 1
     2    2    4 1
     3    3   12 1
     4    4   15 1
     5    5    6 1
     6    7   24 1
     7    8    9 1
     8   10   11 1
     9   12   13 1
    10   14   12 1
    11   15   12 1
    12   16   15 1
    13   17   15 1
    14   18    1 2
    15   19   18 1
    16   20   18 1
    17   21    5 1
    18   22   21 ar
    19   23   22 1
    20   24   22 ar
    21   25   24 ar
    22   26   25 1
    23   27   20 ar
    24   28   27 1
    25   29    7 1
    26   30   29 1
    27   31   29 1
    28   32   29 1
    29   33    2 2
    30   34   33 1
    31   35   33 1
    32   36    8 1
    33   37   10 1
    34   38   37 ar
    35   39   38 1
    36   40   38 ar
    37   41   40 1
    38   42   35 ar
    39   43   42 1
    40   20   21 ar
    41   25   27 ar
    42   35   36 ar
    43   36   37 ar
    44   40   42 ar
@<TRIPOS>SUBSTRUCTURE
     1 RES1 1

@<TRIPOS>CRYSIN
   4.8429   10.2315   33.2910  90.0000  92.1540  90.0000 231 1

