# MOL2 file generated by ConQuest
# Please check atom types

@<TRIPOS>MOLECULE
SNQUOX
    20    21     1
SMALL
NO_CHARGES
****
Generated from CSD

@<TRIPOS>ATOM
      1 C1         3.0168    6.7656    0.1616 C.2       1 RES1    0.0000
      2 C2         1.8755    7.7110    0.0862 C.2       1 RES1    0.0000
      3 C3         0.9960    7.7916    1.2265 C.2       1 RES1    0.0000
      4 C4         1.1846    7.0270    2.2944 C.2       1 RES1    0.0000
      5 C5         2.4061    5.2818    3.5625 C.ar      1 RES1    0.0000
      6 C6         3.4260    4.3634    3.6625 C.ar      1 RES1    0.0000
      7 C7         4.3302    4.2012    2.6145 C.ar      1 RES1    0.0000
      8 C8         4.1988    4.9760    1.4758 C.ar      1 RES1    0.0000
      9 C9         3.1797    5.9111    1.3542 C.ar      1 RES1    0.0000
     10 C10        2.2576    6.0594    2.4114 C.ar      1 RES1    0.0000
     11 N1         3.9358    6.6303   -0.7664 N.2       1 RES1    0.0000
     12 O1         3.7957    7.3884   -1.8897 O.3       1 RES1    0.0000
     13 O2         1.7194    8.4181   -0.9310 O.2       1 RES1    0.0000
     14 H1         0.3704    8.3690    1.1541 H         1 RES1    0.0000
     15 H2         0.5896    7.0900    3.0162 H         1 RES1    0.0000
     16 H3         1.7549    5.4218    4.2780 H         1 RES1    0.0000
     17 H4         3.4956    3.7999    4.4011 H         1 RES1    0.0000
     18 H5         5.1122    3.5218    2.7392 H         1 RES1    0.0000
     19 H6         4.7877    4.8750    0.7540 H         1 RES1    0.0000
     20 H7         3.2514    7.8500   -1.8620 H         1 RES1    0.0000
@<TRIPOS>BOND
     1    1    2 1
     2    2    3 1
     3    3    4 2
     4    4   10 1
     5    5    6 ar
     6    6    7 ar
     7    7    8 ar
     8    8    9 ar
     9    9    1 1
    10   10    5 ar
    11   11    1 2
    12   12   11 1
    13   13    2 2
    14   14    3 1
    15   15    4 1
    16   16    5 1
    17   17    6 1
    18   18    7 1
    19   19    8 1
    20   20   12 1
    21    9   10 ar
@<TRIPOS>SUBSTRUCTURE
     1 RES1 1

@<TRIPOS>CRYSIN
   5.5440    9.2680   15.5290  90.0000  97.7100  90.0000 231 1

