# MOL2 file generated by ConQuest
# Please check atom types

@<TRIPOS>MOLECULE
SNQUOX02
    20    21     1
SMALL
NO_CHARGES
****
Generated from CSD

@<TRIPOS>ATOM
      1 C1         4.0864    2.0730    7.4707 C.2       1 RES1    0.0000
      2 C2         5.2171    3.0238    7.5601 C.2       1 RES1    0.0000
      3 C3         6.1185    3.1207    6.4384 C.2       1 RES1    0.0000
      4 C4         5.9531    2.3432    5.3569 C.2       1 RES1    0.0000
      5 C5         4.8779    1.3788    5.2345 C.ar      1 RES1    0.0000
      6 C6         4.7464    0.6009    4.0741 C.ar      1 RES1    0.0000
      7 C7         3.7247   -0.3191    3.9578 C.ar      1 RES1    0.0000
      8 C8         2.8171   -0.4850    4.9990 C.ar      1 RES1    0.0000
      9 C9         2.9264    0.2813    6.1441 C.ar      1 RES1    0.0000
     10 C10        3.9474    1.2263    6.2790 C.ar      1 RES1    0.0000
     11 H1         6.8596    3.7574    6.5056 H         1 RES1    0.0000
     12 H2         6.5670    2.3981    4.5885 H         1 RES1    0.0000
     13 H3         5.3746    0.7586    3.3492 H         1 RES1    0.0000
     14 H4         3.6611   -0.8608    3.1426 H         1 RES1    0.0000
     15 H5         2.0877   -1.1502    4.9266 H         1 RES1    0.0000
     16 H6         2.2791    0.1369    6.9019 H         1 RES1    0.0000
     17 H7         4.1068    3.2224    9.3897 H         1 RES1    0.0000
     18 N1         3.1636    1.9422    8.3881 N.2       1 RES1    0.0000
     19 O1         5.3611    3.7328    8.5794 O.2       1 RES1    0.0000
     20 O2         3.2815    2.7026    9.5115 O.3       1 RES1    0.0000
@<TRIPOS>BOND
     1    1    2 1
     2    2    3 1
     3    3    4 2
     4    4    5 1
     5    5    6 ar
     6    6    7 ar
     7    7    8 ar
     8    8    9 ar
     9    9   10 ar
    10   10    1 1
    11   11    3 1
    12   12    4 1
    13   13    6 1
    14   14    7 1
    15   15    8 1
    16   16    9 1
    17   17   20 1
    18   18    1 2
    19   19    2 2
    20   20   18 1
    21    5   10 ar
@<TRIPOS>SUBSTRUCTURE
     1 RES1 1

@<TRIPOS>CRYSIN
   5.4490    9.1287   15.4620  90.0000  98.2980  90.0000 231 1

