# MOL2 file generated by ConQuest
# Please check atom types

@<TRIPOS>MOLECULE
SOBCIW
    63    64     1
SMALL
NO_CHARGES
****
Generated from CSD

@<TRIPOS>ATOM
      1 O1         1.6955    0.3233   -2.1180 O.2       1 RES1    0.0000
      2 O2         1.2333    0.0700   -0.0239 O.2       1 RES1    0.0000
      3 O3         2.2262    6.7418    1.0353 O.3       1 RES1    0.0000
      4 O4         2.1987    7.5998    3.5628 O.3       1 RES1    0.0000
      5 O5         0.5694    6.0529    3.7820 O.2       1 RES1    0.0000
      6 O6         2.7822   10.3096    3.0169 O.3       1 RES1    0.0000
      7 O7         2.4138   11.3304    1.0326 O.2       1 RES1    0.0000
      8 O8        -0.4771    9.6265    4.3756 O.3       1 RES1    0.0000
      9 O9        -0.4853    9.2661    6.5937 O.2       1 RES1    0.0000
     10 O10        0.2806   12.3153    3.8644 O.3       1 RES1    0.0000
     11 O11        2.0974   13.6119    3.5845 O.2       1 RES1    0.0000
     12 N1         1.4871    0.7758   -0.9961 N.pl3     1 RES1    0.0000
     13 N2         0.5798    7.2056   -0.4398 N.3       1 RES1    0.0000
     14 C1         1.9039    4.4001   -1.7170 C.ar      1 RES1    0.0000
     15 H1         2.1123    4.9654   -2.4520 H         1 RES1    0.0000
     16 C2         1.8317    3.0260   -1.9019 C.ar      1 RES1    0.0000
     17 H2         1.9776    2.6406   -2.7575 H         1 RES1    0.0000
     18 C3         1.5414    2.2338   -0.8091 C.ar      1 RES1    0.0000
     19 C4         1.3070    2.7504    0.4528 C.ar      1 RES1    0.0000
     20 H3         1.1098    2.1794    1.1868 H         1 RES1    0.0000
     21 C5         1.3695    4.1312    0.6151 C.ar      1 RES1    0.0000
     22 H4         1.2035    4.5137    1.4695 H         1 RES1    0.0000
     23 C6         1.6717    4.9519   -0.4592 C.ar      1 RES1    0.0000
     24 C7         1.8191    6.4488   -0.2954 C.3       1 RES1    0.0000
     25 H5         2.5016    6.7926   -0.9412 H         1 RES1    0.0000
     26 C8         0.1161    7.2972   -1.8200 C.3       1 RES1    0.0000
     27 H6         0.8344    7.6518   -2.3839 H         1 RES1    0.0000
     28 H7        -0.6594    7.8950   -1.8658 H         1 RES1    0.0000
     29 H8        -0.1392    6.4057   -2.1383 H         1 RES1    0.0000
     30 C9         0.9594    8.5185    0.1121 C.3       1 RES1    0.0000
     31 H9         0.1719    8.9926    0.4788 H         1 RES1    0.0000
     32 H10        1.3881    9.0858   -0.5758 H         1 RES1    0.0000
     33 C10        1.9568    8.1473    1.2281 C.3       1 RES1    0.0000
     34 H11        2.7993    8.6751    1.1228 H         1 RES1    0.0000
     35 C11        1.3889    8.3444    2.6291 C.3       1 RES1    0.0000
     36 H12        0.4481    8.0071    2.6584 H         1 RES1    0.0000
     37 C12        1.6948    6.4103    3.9822 C.2       1 RES1    0.0000
     38 C13        2.7323    5.6255    4.7005 C.3       1 RES1    0.0000
     39 H13        2.3111    4.8690    5.1599 H         1 RES1    0.0000
     40 H14        3.1789    6.1988    5.3580 H         1 RES1    0.0000
     41 H15        3.3925    5.2907    4.0577 H         1 RES1    0.0000
     42 C14        1.4149    9.8173    3.0243 C.3       1 RES1    0.0000
     43 H16        0.8693   10.3445    2.3715 H         1 RES1    0.0000
     44 C15        3.1640   11.0567    1.9323 C.2       1 RES1    0.0000
     45 C16        4.6035   11.4374    2.0429 C.3       1 RES1    0.0000
     46 H17        4.9101   11.8085    1.1888 H         1 RES1    0.0000
     47 H18        5.1349   10.6445    2.2642 H         1 RES1    0.0000
     48 H19        4.7107   12.1101    2.7471 H         1 RES1    0.0000
     49 C17        0.8946   10.0683    4.4363 C.3       1 RES1    0.0000
     50 H20        1.4023    9.5043    5.0877 H         1 RES1    0.0000
     51 C18       -1.0539    9.2323    5.5304 C.2       1 RES1    0.0000
     52 C19       -2.4659    8.7968    5.2998 C.3       1 RES1    0.0000
     53 H21       -2.7264    8.1540    5.9917 H         1 RES1    0.0000
     54 H22       -2.5381    8.3767    4.4169 H         1 RES1    0.0000
     55 H23       -3.0583    9.5769    5.3395 H         1 RES1    0.0000
     56 C20        0.9646   11.5166    4.8528 C.3       1 RES1    0.0000
     57 H24        0.5366   11.6348    5.7378 H         1 RES1    0.0000
     58 H25        1.9099   11.8022    4.9225 H         1 RES1    0.0000
     59 C21        0.9557   13.3477    3.3110 C.2       1 RES1    0.0000
     60 C22        0.1072   14.0464    2.3019 C.3       1 RES1    0.0000
     61 H26        0.3573   14.9940    2.2642 H         1 RES1    0.0000
     62 H27       -0.8358   13.9674    2.5572 H         1 RES1    0.0000
     63 H28        0.2426   13.6373    1.4221 H         1 RES1    0.0000
@<TRIPOS>BOND
     1    1   12 2
     2    2   12 2
     3    3   24 1
     4    4   35 1
     5    5   37 2
     6    6   42 1
     7    7   44 2
     8    8   49 1
     9    9   51 2
    10   10   56 1
    11   11   59 2
    12   12   18 1
    13   13   24 1
    14   14   15 1
    15   16   14 ar
    16   17   16 1
    17   18   16 ar
    18   19   18 ar
    19   20   19 1
    20   21   19 ar
    21   22   21 1
    22   23   14 ar
    23   24   23 1
    24   25   24 1
    25   26   13 1
    26   27   26 1
    27   28   26 1
    28   29   26 1
    29   30   13 1
    30   31   30 1
    31   32   30 1
    32   33    3 1
    33   34   33 1
    34   35   33 1
    35   36   35 1
    36   37    4 1
    37   38   37 1
    38   39   38 1
    39   40   38 1
    40   41   38 1
    41   42   35 1
    42   43   42 1
    43   44    6 1
    44   45   44 1
    45   46   45 1
    46   47   45 1
    47   48   45 1
    48   49   42 1
    49   50   49 1
    50   51    8 1
    51   52   51 1
    52   53   52 1
    53   54   52 1
    54   55   52 1
    55   56   49 1
    56   57   56 1
    57   58   56 1
    58   59   10 1
    59   60   59 1
    60   61   60 1
    61   62   60 1
    62   63   60 1
    63   21   23 ar
    64   30   33 1
@<TRIPOS>SUBSTRUCTURE
     1 RES1 1

@<TRIPOS>CRYSIN
   7.4430   15.7931   20.6396  90.0000  90.0000  90.0000  19 1

