# MOL2 file generated by ConQuest
# Please check atom types

@<TRIPOS>MOLECULE
SOBDOD
    56    58     2
SMALL
NO_CHARGES
****
Generated from CSD

@<TRIPOS>ATOM
      1 C1        -3.0706   10.7863   -2.6850 C.ar      1 RES1    0.0000
      2 C2        -1.7886   11.1384   -2.7710 C.ar      1 RES1    0.0000
      3 H1        -1.5741   11.8866   -3.2774 H         1 RES1    0.0000
      4 C3        -0.7993   10.4721   -2.1671 C.ar      1 RES1    0.0000
      5 H2         0.0815   10.7484   -2.2588 H         1 RES1    0.0000
      6 C4        -1.1317    9.3308   -1.3797 C.ar      1 RES1    0.0000
      7 C5        -2.4375    8.9954   -1.3052 C.ar      1 RES1    0.0000
      8 H3        -2.6868    8.2624   -0.7912 H         1 RES1    0.0000
      9 C6        -3.3397    9.6753   -1.9320 C.ar      1 RES1    0.0000
     10 H4        -4.2253    9.3915   -1.8690 H         1 RES1    0.0000
     11 C7        -0.0791    8.5871   -0.5943 C.3       1 RES1    0.0000
     12 H5        -0.5516    8.1303    0.1319 H         1 RES1    0.0000
     13 C8         0.5936    7.5263   -1.3817 C.3       1 RES1    0.0000
     14 H6         0.9544    7.8951   -2.2034 H         1 RES1    0.0000
     15 H7        -0.0372    6.8251   -1.6091 H         1 RES1    0.0000
     16 C9         1.7569    6.9465   -0.4930 C.2       1 RES1    0.0000
     17 C10        2.2713    7.6887    0.3058 C.2       1 RES1    0.0000
     18 H8         3.0137    7.3608    0.7644 H         1 RES1    0.0000
     19 C11        1.8440    9.0910    0.6230 C.2       1 RES1    0.0000
     20 C12        2.2397    5.5320   -0.9689 C.3       1 RES1    0.0000
     21 H9         1.6517    5.2072   -1.6568 H         1 RES1    0.0000
     22 H10        2.2294    4.9234   -0.2274 H         1 RES1    0.0000
     23 H11        3.1308    5.6003   -1.3167 H         1 RES1    0.0000
     24 N1        -4.1786   11.5239   -3.3978 N.pl3     1 RES1    0.0000
     25 O1        -5.2312   10.9806   -3.3901 O.2       1 RES1    0.0000
     26 O2        -3.8225   12.5347   -3.9443 O.2       1 RES1    0.0000
     27 O3         2.4692    9.7892    1.4141 O.2       1 RES1    0.0000
     28 O4         0.7914    9.5494    0.0325 O.3       1 RES1    0.0000
     29 C13       -7.1147   14.6200    4.4832 C.ar      2 RES2    0.0000
     30 C14       -7.5183   13.5515    3.7933 C.ar      2 RES2    0.0000
     31 H12       -8.4110   13.2905    3.7761 H         2 RES2    0.0000
     32 C15       -6.5449   12.8519    3.1054 C.ar      2 RES2    0.0000
     33 H13       -6.7554   12.0627    2.6620 H         2 RES2    0.0000
     34 C16       -5.1995   13.3679    3.0901 C.ar      2 RES2    0.0000
     35 C17       -4.8671   14.3908    3.8984 C.ar      2 RES2    0.0000
     36 H14       -3.9728   14.6230    3.9653 H         2 RES2    0.0000
     37 C18       -5.8643   15.1755    4.6972 C.ar      2 RES2    0.0000
     38 H15       -5.6759   15.9055    5.2419 H         2 RES2    0.0000
     39 C19       -4.1311   12.5119    2.4117 C.3       2 RES2    0.0000
     40 H16       -4.5490   12.0703    1.6435 H         2 RES2    0.0000
     41 C20       -3.4030   11.4647    3.1933 C.3       2 RES2    0.0000
     42 H17       -3.1039   11.8502    4.0303 H         2 RES2    0.0000
     43 H18       -4.0219   10.7468    3.4035 H         2 RES2    0.0000
     44 C21       -2.2871   10.9244    2.5072 C.2       2 RES2    0.0000
     45 C22       -1.7094   11.6575    1.4619 C.2       2 RES2    0.0000
     46 H19       -1.0644   11.2674    0.9154 H         2 RES2    0.0000
     47 C23       -2.1210   13.0370    1.2383 C.2       2 RES2    0.0000
     48 C24       -1.8281    9.5812    2.7213 C.3       2 RES2    0.0000
     49 H20       -1.1135    9.3855    2.1136 H         2 RES2    0.0000
     50 H21       -2.5554    8.9711    2.5684 H         2 RES2    0.0000
     51 H22       -1.5195    9.4902    3.6252 H         2 RES2    0.0000
     52 N2        -8.1514   15.3257    5.2228 N.pl3     2 RES2    0.0000
     53 O5        -7.8903   16.4063    5.7349 O.2       2 RES2    0.0000
     54 O6        -9.3069   14.8704    5.2457 O.2       2 RES2    0.0000
     55 O7        -1.4245   13.7838    0.5714 O.2       2 RES2    0.0000
     56 O8        -3.1973   13.4893    1.8938 O.3       2 RES2    0.0000
@<TRIPOS>BOND
     1    1    2 ar
     2    2    3 1
     3    4    2 ar
     4    5    4 1
     5    6    4 ar
     6    7    6 ar
     7    8    7 1
     8    9    1 ar
     9   10    9 1
    10   11    6 1
    11   12   11 1
    12   13   11 1
    13   14   13 1
    14   15   13 1
    15   16   13 1
    16   17   16 2
    17   18   17 1
    18   19   17 1
    19   20   16 1
    20   21   20 1
    21   22   20 1
    22   23   20 1
    23   24    1 1
    24   25   24 2
    25   26   24 2
    26   27   19 2
    27   28   11 1
    28   29   30 ar
    29   30   31 1
    30   32   30 ar
    31   33   32 1
    32   34   32 ar
    33   35   34 ar
    34   36   35 1
    35   37   29 ar
    36   38   37 1
    37   39   34 1
    38   40   39 1
    39   41   39 1
    40   42   41 1
    41   43   41 1
    42   44   41 1
    43   45   44 2
    44   46   45 1
    45   47   45 1
    46   48   44 1
    47   49   48 1
    48   50   48 1
    49   51   48 1
    50   52   29 1
    51   53   52 2
    52   54   52 2
    53   55   47 2
    54   56   39 1
    55    7    9 ar
    56   19   28 1
    57   35   37 ar
    58   47   56 1
@<TRIPOS>SUBSTRUCTURE
     1 RES1 1
     2 RES2 29

@<TRIPOS>CRYSIN
   7.9140   15.1770   19.1100  90.0000  90.0000  90.0000  33 5

