# MOL2 file generated by ConQuest
# Please check atom types

@<TRIPOS>MOLECULE
SOBFOF
    48    45     2
SMALL
NO_CHARGES
****
Generated from CSD

@<TRIPOS>ATOM
      1 O1         0.6858    3.9482    7.7957 O.2       1 RES1    0.0000
      2 O2        -0.6769    2.8334    9.0383 O.2       1 RES1    0.0000
      3 N1         2.9381    4.4884    4.7152 N.pl3     1 RES1    0.0000
      4 N2         0.2814    2.8972    8.2648 N.pl3     1 RES1    0.0000
      5 C1         1.9984    4.5763    3.6766 C.ar      1 RES1    0.0000
      6 C2         1.0327    3.5533    3.5740 C.ar      1 RES1    0.0000
      7 C3         0.9439    2.5233    4.5991 C.2       1 RES1    0.0000
      8 C4         1.7843    2.5707    5.6684 C.2       1 RES1    0.0000
      9 C5         2.8340    3.5470    5.7285 C.2       1 RES1    0.0000
     10 C6         3.9093    3.7344    6.5830 C.2       1 RES1    0.0000
     11 H1         4.0916    3.2439    7.3764 H         1 RES1    0.0000
     12 C7         4.6822    4.7885    6.0568 C.2       1 RES1    0.0000
     13 H2         5.4886    5.1266    6.4293 H         1 RES1    0.0000
     14 C8         4.0758    5.2432    4.9174 C.2       1 RES1    0.0000
     15 H3         4.3833    5.9522    4.3651 H         1 RES1    0.0000
     16 C9         2.0124    5.6498    2.7862 C.ar      1 RES1    0.0000
     17 H4         2.6502    6.3463    2.8867 H         1 RES1    0.0000
     18 C10        1.0942    5.6925    1.7594 C.ar      1 RES1    0.0000
     19 H5         1.0875    6.4295    1.1592 H         1 RES1    0.0000
     20 C11        0.1757    4.6555    1.5986 C.ar      1 RES1    0.0000
     21 H6        -0.4332    4.6820    0.8699 H         1 RES1    0.0000
     22 C12        0.1320    3.5844    2.4812 C.ar      1 RES1    0.0000
     23 C13       -0.8565    2.4658    2.2775 C.3       1 RES1    0.0000
     24 H7        -0.9142    2.2590    1.3118 H         1 RES1    0.0000
     25 H8        -1.7505    2.7681    2.5745 H         1 RES1    0.0000
     26 H9        -1.6794    2.8311    1.8643 Du        2 SUP2    0.0000
     27 H10       -0.4716    1.8027    1.6521 Du        2 SUP2    0.0000
     28 C14       -0.4863    1.2049    3.0309 C.3       1 RES1    0.0000
     29 H11       -1.2529    0.5783    3.0095 H         1 RES1    0.0000
     30 H12        0.2757    0.7680    2.5763 H         1 RES1    0.0000
     31 C15       -1.2118    1.7825    3.5602 Du        2 SUP2    0.0000
     32 H13       -1.8499    2.3585    4.0512 Du        2 SUP2    0.0000
     33 H14       -1.6825    0.9398    3.3409 Du        2 SUP2    0.0000
     34 C16       -0.1203    1.4715    4.4381 C.3       1 RES1    0.0000
     35 H15        0.1977    0.6297    4.8509 H         1 RES1    0.0000
     36 H16       -0.9305    1.7599    4.9299 H         1 RES1    0.0000
     37 H17        0.3120    0.6444    4.1091 Du        2 SUP2    0.0000
     38 H18       -0.4941    1.2725    5.3332 Du        2 SUP2    0.0000
     39 C17        1.7114    1.5298    6.7475 C.ar      1 RES1    0.0000
     40 C18        0.9772    1.6456    7.9355 C.ar      1 RES1    0.0000
     41 C19        0.8424    0.5970    8.8346 C.ar      1 RES1    0.0000
     42 H19        0.3312    0.7082    9.6282 H         1 RES1    0.0000
     43 C20        1.4565   -0.6056    8.5665 C.ar      1 RES1    0.0000
     44 H20        1.3634   -1.3316    9.1705 H         1 RES1    0.0000
     45 C21        2.2109   -0.7556    7.4151 C.ar      1 RES1    0.0000
     46 H21        2.6475   -1.5804    7.2361 H         1 RES1    0.0000
     47 C22        2.3293    0.3016    6.5218 C.ar      1 RES1    0.0000
     48 H22        2.8470    0.1835    5.7331 H         1 RES1    0.0000
@<TRIPOS>BOND
     1    1    4 2
     2    2    4 2
     3    3    5 1
     4    4   40 1
     5    5    6 ar
     6    6    7 1
     7    7    8 2
     8    8    9 1
     9    9    3 1
    10   10    9 2
    11   11   10 1
    12   12   10 1
    13   13   12 1
    14   14    3 1
    15   15   14 1
    16   16    5 ar
    17   17   16 1
    18   18   16 ar
    19   19   18 1
    20   20   18 ar
    21   21   20 1
    22   22    6 ar
    23   23   22 1
    24   24   23 1
    25   25   23 1
    26   28   23 1
    27   29   28 1
    28   30   28 1
    29   34    7 1
    30   35   34 1
    31   36   34 1
    32   39    8 1
    33   40   39 ar
    34   41   40 ar
    35   42   41 1
    36   43   41 ar
    37   44   43 1
    38   45   43 ar
    39   46   45 1
    40   47   39 ar
    41   48   47 1
    42   12   14 2
    43   20   22 ar
    44   28   34 1
    45   45   47 ar
@<TRIPOS>SUBSTRUCTURE
     1 RES1 1
     2 SUP2 26

@<TRIPOS>CRYSIN
  11.4632    7.7735   18.2085  90.0000 105.6000  90.0000  14 1

