# MOL2 file generated by ConQuest
# Please check atom types

@<TRIPOS>MOLECULE
SOBGAR
    64    68     2
SMALL
NO_CHARGES
****
Generated from CSD

@<TRIPOS>ATOM
      1 N1         2.3721    3.8849   -0.4381 N.3       1 RES1    0.0000
      2 N2         2.9954    4.2833   -1.6162 N.pl3     1 RES1    0.0000
      3 O1         2.5576    3.8358   -2.6507 O.2       1 RES1    0.0000
      4 O2         3.9181    5.0850   -1.5172 O.2       1 RES1    0.0000
      5 C1         2.8395    4.4120    0.8167 C.3       1 RES1    0.0000
      6 N3         3.5222    3.4411    1.6533 N.am      1 RES1    0.0000
      7 N4         4.7655    2.9593    1.3093 N.pl3     1 RES1    0.0000
      8 O3         5.1195    3.1898    0.1732 O.2       1 RES1    0.0000
      9 O4         5.3830    2.3243    2.1433 O.2       1 RES1    0.0000
     10 C2         2.8561    3.1322    2.8660 C.2       1 RES1    0.0000
     11 O5         3.1742    2.2937    3.6654 O.2       1 RES1    0.0000
     12 N5         1.7983    3.9462    2.8586 N.am      1 RES1    0.0000
     13 C3         1.6676    4.8043    1.7325 C.3       1 RES1    0.0000
     14 N6         0.4144    4.6204    1.0370 N.3       1 RES1    0.0000
     15 N7        -0.6207    5.5092    1.3439 N.pl3     1 RES1    0.0000
     16 O6        -1.6892    5.3045    0.8019 O.2       1 RES1    0.0000
     17 O7        -0.3481    6.4446    2.0666 O.2       1 RES1    0.0000
     18 C4         0.0572    3.4337    0.2846 C.3       1 RES1    0.0000
     19 N8        -0.2999    2.2900    1.0989 N.am      1 RES1    0.0000
     20 C5         0.5097    1.2320    1.0172 C.2       1 RES1    0.0000
     21 O8         0.3817    0.1275    1.4850 O.2       1 RES1    0.0000
     22 N9         1.6006    1.6819    0.2153 N.am      1 RES1    0.0000
     23 N10        2.5007    0.7797   -0.3861 N.pl3     1 RES1    0.0000
     24 O9         2.7016   -0.2709    0.1856 O.2       1 RES1    0.0000
     25 O10        3.0307    1.1756   -1.4132 O.2       1 RES1    0.0000
     26 C6         1.2963    2.9250   -0.5049 C.3       1 RES1    0.0000
     27 N11       -0.5600    7.3419   16.8496 N.3       2 RES2    0.0000
     28 N12        0.6960    6.8724   16.4066 N.pl3     2 RES2    0.0000
     29 O11        0.7611    5.7078   16.0378 O.2       2 RES2    0.0000
     30 O12        1.6135    7.6729   16.4462 O.2       2 RES2    0.0000
     31 C7        -0.6400    8.5298   17.6466 C.3       2 RES2    0.0000
     32 N13       -0.8837    8.2282   19.0375 N.am      2 RES2    0.0000
     33 N14        0.1348    7.6582   19.8369 N.pl3     2 RES2    0.0000
     34 O13        1.1895    7.4792   19.2578 O.2       2 RES2    0.0000
     35 O14       -0.1451    7.3848   20.9655 O.2       2 RES2    0.0000
     36 C8        -2.0797    8.7934   19.5498 C.2       2 RES2    0.0000
     37 O15       -2.4748    8.6965   20.6809 O.2       2 RES2    0.0000
     38 N15       -2.6875    9.3340   18.4806 N.am      2 RES2    0.0000
     39 C9        -1.8798    9.3622   17.2852 C.3       2 RES2    0.0000
     40 N16       -2.5690    8.8081   16.1344 N.3       2 RES2    0.0000
     41 N17       -3.5164    9.6527   15.5503 N.pl3     2 RES2    0.0000
     42 O16       -4.2315    9.1526   14.6939 O.2       2 RES2    0.0000
     43 O17       -3.5088   10.8333   15.8893 O.2       2 RES2    0.0000
     44 C10       -2.7989    7.3762   15.8621 C.3       2 RES2    0.0000
     45 N18       -4.0262    6.8577   16.4066 N.am      2 RES2    0.0000
     46 C11       -3.8952    6.0976   17.4906 C.2       2 RES2    0.0000
     47 O18       -4.7220    5.5239   18.1440 O.2       2 RES2    0.0000
     48 N19       -2.4732    6.1307   17.7852 N.am      2 RES2    0.0000
     49 N20       -1.8959    5.1096   18.5673 N.pl3     2 RES2    0.0000
     50 O19       -2.5949    4.5677   19.3791 O.2       2 RES2    0.0000
     51 O20       -0.7050    4.9306   18.3668 O.2       2 RES2    0.0000
     52 C12       -1.7385    6.5316   16.5675 C.3       2 RES2    0.0000
     53 H1         3.4275    5.1463    0.4455 H         1 RES1    0.0000
     54 H2         1.2650    3.9008    3.4798 H         1 RES1    0.0000
     55 H3         1.6920    5.7164    2.2201 H         1 RES1    0.0000
     56 H4        -0.6467    3.6213   -0.5395 H         1 RES1    0.0000
     57 H5        -0.9689    2.2875    1.5840 H         1 RES1    0.0000
     58 H6         1.2096    2.8085   -1.4033 H         1 RES1    0.0000
     59 H7         0.0962    8.9442   17.5203 H         2 RES2    0.0000
     60 H8        -3.1853   10.0806   18.6192 H         2 RES2    0.0000
     61 H9        -1.7025   10.2939   16.9313 H         2 RES2    0.0000
     62 H10       -2.7421    7.3971   14.8078 H         2 RES2    0.0000
     63 H11       -4.6431    6.8748   15.8473 H         2 RES2    0.0000
     64 H12       -1.3663    5.7360   15.9809 H         2 RES2    0.0000
@<TRIPOS>BOND
     1    1    2 1
     2    2    3 2
     3    4    2 2
     4    5    1 1
     5    6    5 1
     6    7    6 1
     7    8    7 2
     8    9    7 2
     9   10    6 1
    10   11   10 2
    11   12   10 1
    12   13    5 1
    13   14   13 1
    14   15   14 1
    15   16   15 2
    16   17   15 2
    17   18   14 1
    18   19   18 1
    19   20   19 1
    20   21   20 2
    21   22   20 1
    22   23   22 1
    23   24   23 2
    24   25   23 2
    25   26    1 1
    26   27   28 1
    27   28   29 2
    28   30   28 2
    29   31   27 1
    30   32   31 1
    31   33   32 1
    32   34   33 2
    33   35   33 2
    34   36   32 1
    35   37   36 2
    36   38   36 1
    37   39   31 1
    38   40   39 1
    39   41   40 1
    40   42   41 2
    41   43   41 2
    42   44   40 1
    43   45   44 1
    44   46   45 1
    45   47   46 2
    46   48   46 1
    47   49   48 1
    48   50   49 2
    49   51   49 2
    50   52   27 1
    51   53    5 1
    52   54   12 1
    53   55   13 1
    54   56   18 1
    55   57   19 1
    56   58   26 1
    57   59   31 1
    58   60   38 1
    59   61   39 1
    60   62   44 1
    61   63   45 1
    62   64   52 1
    63   12   13 1
    64   18   26 1
    65   22   26 1
    66   38   39 1
    67   44   52 1
    68   48   52 1
@<TRIPOS>SUBSTRUCTURE
     1 RES1 1
     2 RES2 27

@<TRIPOS>CRYSIN
   8.5114   12.2590   24.9520  90.0000  97.3000  90.0000 231 1

