# MOL2 file generated by ConQuest
# Please check atom types

@<TRIPOS>MOLECULE
SOBNAZ
   110   114     2
SMALL
NO_CHARGES
****
Generated from CSD

@<TRIPOS>ATOM
      1 O1         2.5981    2.2897    9.7153 O.2       1 RES1    0.0000
      2 C1         2.3951    2.2698    8.4874 C.2       1 RES1    0.0000
      3 N1         2.5642    3.2961    7.6507 N.am      1 RES1    0.0000
      4 C2         2.1787    2.9644    6.2372 C.3       1 RES1    0.0000
      5 N2         1.9750    1.4804    6.2734 N.3       1 RES1    0.0000
      6 C3         1.9041    1.0815    7.7044 C.3       1 RES1    0.0000
      7 C4         2.7687   -0.1666    7.8493 C.3       1 RES1    0.0000
      8 C5         3.8763    0.1907    6.8616 C.3       1 RES1    0.0000
      9 O2         3.1674    0.7911    5.7561 O.3       1 RES1    0.0000
     10 C6         4.6940   -0.9257    6.2622 C.3       1 RES1    0.0000
     11 O3         5.3179   -1.7355    7.2487 O.3       1 RES1    0.0000
     12 C7         2.0182   -1.4633    7.5396 C.3       1 RES1    0.0000
     13 C8         0.9411   -1.7695    8.5823 C.3       1 RES1    0.0000
     14 C9         0.8556    3.6601    5.8589 C.3       1 RES1    0.0000
     15 C10        0.5453    3.3842    4.3717 C.3       1 RES1    0.0000
     16 C11        1.6780    3.8275    3.4564 C.3       1 RES1    0.0000
     17 C12        2.9903    3.1492    3.8198 C.3       1 RES1    0.0000
     18 C13        3.2986    3.4020    5.2957 C.3       1 RES1    0.0000
     19 C14        4.1652    3.6245    2.9594 C.3       1 RES1    0.0000
     20 C15       -0.3401    3.3557    6.7916 C.3       1 RES1    0.0000
     21 C16       -1.1418    2.1042    6.4108 C.3       1 RES1    0.0000
     22 C17       -1.2812    4.5680    6.8703 C.3       1 RES1    0.0000
     23 C18        2.8777    4.6446    8.0865 C.3       1 RES1    0.0000
     24 O4         6.1950    0.1066    9.1186 O.2       2 RES2    0.0000
     25 C19        6.1311    0.2136   10.3504 C.2       2 RES2    0.0000
     26 N3         6.3791   -0.7484   11.2420 N.am      2 RES2    0.0000
     27 C20        6.1557   -0.3074   12.6493 C.3       2 RES2    0.0000
     28 N4         5.9974    1.1778   12.5356 N.3       2 RES2    0.0000
     29 C21        5.7455    1.4669   11.0934 C.3       2 RES2    0.0000
     30 C22        6.6233    2.6682   10.7350 C.3       2 RES2    0.0000
     31 C23        7.8296    2.3750   11.6166 C.3       2 RES2    0.0000
     32 O5         7.2612    1.8546   12.8346 O.3       2 RES2    0.0000
     33 C24        8.7130    3.5408   12.0062 C.3       2 RES2    0.0000
     34 O6         9.2730    4.1671   10.8699 O.3       2 RES2    0.0000
     35 C25        5.9207    4.0090   10.9635 C.3       2 RES2    0.0000
     36 C26        5.1948    4.1639   12.2871 C.3       2 RES2    0.0000
     37 C27        4.8557   -0.9209   13.2224 C.3       2 RES2    0.0000
     38 C28        3.5718   -0.6694   12.3983 C.3       2 RES2    0.0000
     39 C29        2.8228    0.6088   12.7629 C.3       2 RES2    0.0000
     40 C30        2.6335   -1.8692   12.5044 C.3       2 RES2    0.0000
     41 C31        4.6985   -0.5341   14.7009 C.3       2 RES2    0.0000
     42 C32        5.9096   -0.9916   15.5263 C.3       2 RES2    0.0000
     43 C33        7.2059   -0.3916   14.9918 C.3       2 RES2    0.0000
     44 C34        7.3539   -0.7352   13.5071 C.3       2 RES2    0.0000
     45 C35        8.4187   -0.8990   15.7735 C.3       2 RES2    0.0000
     46 C36        6.5712   -2.1291   10.8549 C.3       2 RES2    0.0000
     47 H1         0.9809    0.8812    7.9417 H         1 RES1    0.0000
     48 H2         3.1409   -0.2207    8.7508 H         1 RES1    0.0000
     49 H3         4.4779    0.8492    7.2686 H         1 RES1    0.0000
     50 H4         1.0390    4.6285    5.9275 H         1 RES1    0.0000
     51 H5        -0.2802    3.8310    4.1257 H         1 RES1    0.0000
     52 H6         0.4059    2.4371    4.2680 H         1 RES1    0.0000
     53 H7         1.7935    4.7905    3.5126 H         1 RES1    0.0000
     54 H8         1.4426    3.5907    2.5486 H         1 RES1    0.0000
     55 H9         2.8808    2.1879    3.6961 H         1 RES1    0.0000
     56 H10        3.4296    4.3722    5.4206 H         1 RES1    0.0000
     57 H11        4.1091    2.9302    5.5479 H         1 RES1    0.0000
     58 H12        4.9917    3.2115    3.2404 H         1 RES1    0.0000
     59 H13        4.2588    4.5858    3.0106 H         1 RES1    0.0000
     60 H14        4.0039    3.3913    2.0391 H         1 RES1    0.0000
     61 H15        0.0155    3.2168    7.6920 H         1 RES1    0.0000
     62 H16        3.6449    4.9828    7.5933 H         1 RES1    0.0000
     63 H17        3.0941    4.6125    9.0143 H         1 RES1    0.0000
     64 H18        2.1135    5.2231    7.9554 H         1 RES1    0.0000
     65 H19        4.8113    1.6859   10.9361 H         2 RES2    0.0000
     66 H20        6.8846    2.5920    9.7935 H         2 RES2    0.0000
     67 H21        8.3995    1.6983   11.2120 H         2 RES2    0.0000
     68 H22        5.0171   -1.8906   13.2137 H         2 RES2    0.0000
     69 H23        3.8259   -0.5821   11.4543 H         2 RES2    0.0000
     70 H24        3.8731   -0.9364   15.0393 H         2 RES2    0.0000
     71 H25        4.6266    0.4290   14.7745 H         2 RES2    0.0000
     72 H26        5.7781   -0.6907   16.4503 H         2 RES2    0.0000
     73 H27        5.9718   -1.9582   15.5150 H         2 RES2    0.0000
     74 H28        7.1780    0.5786   15.0830 H         2 RES2    0.0000
     75 H29        8.1450   -0.2866   13.1762 H         2 RES2    0.0000
     76 H30        7.4600   -1.7019   13.4185 H         2 RES2    0.0000
     77 H31        9.2303   -0.5358   15.3951 H         2 RES2    0.0000
     78 H32        8.3536   -0.6320   16.6938 H         2 RES2    0.0000
     79 H33        8.4476   -1.8621   15.7323 H         2 RES2    0.0000
     80 H34        7.3689   -2.4763   11.2557 H         2 RES2    0.0000
     81 H35        6.6326   -2.1808    9.9084 H         2 RES2    0.0000
     82 H36        5.8393   -2.6596   11.1571 H         2 RES2    0.0000
     83 H37        5.7146   -1.2088    7.7456 H         1 RES1    0.0000
     84 H38        9.8407    3.6138   10.6451 H         2 RES2    0.0000
     85 H39       -1.7624    1.8728    7.1200 H         1 RES1    0.0000
     86 H40       -0.5641    1.3619    6.2447 H         1 RES1    0.0000
     87 H41       -1.6541    2.2858    5.6241 H         1 RES1    0.0000
     88 H42       -1.9681    4.3936    7.5309 H         1 RES1    0.0000
     89 H43       -0.7869    5.3567    7.1126 H         1 RES1    0.0000
     90 H44       -1.6949    4.7033    6.0175 H         1 RES1    0.0000
     91 H45        2.6344   -2.2075    7.4822 H         1 RES1    0.0000
     92 H46        1.5739   -1.3494    6.6917 H         1 RES1    0.0000
     93 H47        0.5347   -2.6294    8.3962 H         1 RES1    0.0000
     94 H48        1.3566   -1.7909    9.4551 H         1 RES1    0.0000
     95 H49        0.2487   -1.0859    8.5673 H         1 RES1    0.0000
     96 H50        5.3697   -0.5358    5.6841 H         1 RES1    0.0000
     97 H51        4.0887   -1.5043    5.7627 H         1 RES1    0.0000
     98 H52        6.5705    4.7193   10.8973 H         2 RES2    0.0000
     99 H53        5.2368    4.1141   10.2755 H         2 RES2    0.0000
    100 H54        4.8268    5.0594   12.3571 H         2 RES2    0.0000
    101 H55        5.8162    4.0108   13.0251 H         2 RES2    0.0000
    102 H56        4.4697    3.5248   12.3471 H         2 RES2    0.0000
    103 H57        8.1715    4.2013   12.4545 H         2 RES2    0.0000
    104 H58        9.4203    3.2293   12.5993 H         2 RES2    0.0000
    105 H59        2.0100    0.6943   12.1860 H         2 RES2    0.0000
    106 H60        2.5477    0.5714   13.7231 H         2 RES2    0.0000
    107 H61        3.4199    1.3975   12.6168 H         2 RES2    0.0000
    108 H62        1.8078   -1.6965   11.9675 H         2 RES2    0.0000
    109 H63        2.3854   -2.0134   13.4622 H         2 RES2    0.0000
    110 H64        3.0938   -2.6846   12.1523 H         2 RES2    0.0000
@<TRIPOS>BOND
     1    1    2 2
     2    2    3 1
     3    3    4 1
     4    4    5 1
     5    5    6 1
     6    6    2 1
     7    7    6 1
     8    8    7 1
     9    9    5 1
    10   10    8 1
    11   11   10 1
    12   12    7 1
    13   13   12 1
    14   14    4 1
    15   15   14 1
    16   16   15 1
    17   17   16 1
    18   18    4 1
    19   19   17 1
    20   20   14 1
    21   21   20 1
    22   22   20 1
    23   23    3 1
    24   24   25 2
    25   25   26 1
    26   26   27 1
    27   27   28 1
    28   28   29 1
    29   29   25 1
    30   30   29 1
    31   31   30 1
    32   32   28 1
    33   33   31 1
    34   34   33 1
    35   35   30 1
    36   36   35 1
    37   37   27 1
    38   38   37 1
    39   39   38 1
    40   40   38 1
    41   41   37 1
    42   42   41 1
    43   43   42 1
    44   44   27 1
    45   45   43 1
    46   46   26 1
    47   47    6 1
    48   48    7 1
    49   49    8 1
    50   50   14 1
    51   51   15 1
    52   52   15 1
    53   53   16 1
    54   54   16 1
    55   55   17 1
    56   56   18 1
    57   57   18 1
    58   58   19 1
    59   59   19 1
    60   60   19 1
    61   61   20 1
    62   62   23 1
    63   63   23 1
    64   64   23 1
    65   65   29 1
    66   66   30 1
    67   67   31 1
    68   68   37 1
    69   69   38 1
    70   70   41 1
    71   71   41 1
    72   72   42 1
    73   73   42 1
    74   74   43 1
    75   75   44 1
    76   76   44 1
    77   77   45 1
    78   78   45 1
    79   79   45 1
    80   80   46 1
    81   81   46 1
    82   82   46 1
    83   83   11 1
    84   84   34 1
    85   85   21 1
    86   86   21 1
    87   87   21 1
    88   88   22 1
    89   89   22 1
    90   90   22 1
    91   91   12 1
    92   92   12 1
    93   93   13 1
    94   94   13 1
    95   95   13 1
    96   96   10 1
    97   97   10 1
    98   98   35 1
    99   99   35 1
   100  100   36 1
   101  101   36 1
   102  102   36 1
   103  103   33 1
   104  104   33 1
   105  105   39 1
   106  106   39 1
   107  107   39 1
   108  108   40 1
   109  109   40 1
   110  110   40 1
   111    8    9 1
   112   17   18 1
   113   31   32 1
   114   43   44 1
@<TRIPOS>SUBSTRUCTURE
     1 RES1 1
     2 RES2 24

@<TRIPOS>CRYSIN
   8.3520   17.8021   12.5682  90.0000  96.5192  90.0000   4 1

