# MOL2 file generated by ConQuest
# Please check atom types

@<TRIPOS>MOLECULE
SOBQAC
    86    90     2
SMALL
NO_CHARGES
****
Generated from CSD

@<TRIPOS>ATOM
      1 C1         3.4529    3.4269   18.6485 C.3       1 RES1    0.0000
      2 H1         2.9464    2.5965   18.5268 H         1 RES1    0.0000
      3 C2         2.9476    4.4301   17.6330 C.ar      1 RES1    0.0000
      4 C3         3.1042    5.7917   17.7534 C.ar      1 RES1    0.0000
      5 H2         3.5164    6.1413   18.5102 H         1 RES1    0.0000
      6 C4         2.6581    6.6488   16.7614 C.ar      1 RES1    0.0000
      7 H3         2.7736    7.5657   16.8606 H         1 RES1    0.0000
      8 C5         2.3278    3.9605   16.5003 C.ar      1 RES1    0.0000
      9 H4         2.2018    3.0452   16.3964 H         1 RES1    0.0000
     10 C6         2.0555    6.1686   15.6512 C.ar      1 RES1    0.0000
     11 H5         1.7578    6.7496   14.9893 H         1 RES1    0.0000
     12 C7         1.8888    4.8205   15.5140 C.ar      1 RES1    0.0000
     13 H6         1.4778    4.4798   14.7531 H         1 RES1    0.0000
     14 C8         5.5087    4.9068   22.9720 C.ar      1 RES1    0.0000
     15 C9         4.7460    4.2273   21.9234 C.2       1 RES1    0.0000
     16 C10        4.3213    4.8607   20.6358 C.3       1 RES1    0.0000
     17 H7         5.0696    4.9618   20.0272 H         1 RES1    0.0000
     18 H8         3.9106    5.7264   20.7857 H         1 RES1    0.0000
     19 C11        5.5511    4.4277   24.2790 C.ar      1 RES1    0.0000
     20 H9         5.1225    3.6318   24.4931 H         1 RES1    0.0000
     21 C12        6.1596    6.0996   22.6966 C.ar      1 RES1    0.0000
     22 H10        6.1322    6.4479   21.8343 H         1 RES1    0.0000
     23 C13        6.2242    5.1254   25.2543 C.ar      1 RES1    0.0000
     24 H11        6.2338    4.7920   26.1220 H         1 RES1    0.0000
     25 C14        6.8847    6.3054   24.9801 C.ar      1 RES1    0.0000
     26 C15        6.8468    6.7779   23.6839 C.ar      1 RES1    0.0000
     27 H12        7.2927    7.5662   23.4714 H         1 RES1    0.0000
     28 C16        7.6113    7.0732   26.0590 C.3       1 RES1    0.0000
     29 H13        7.9901    7.8709   25.6847 H         1 RES1    0.0000
     30 H14        8.3107    6.5270   26.4245 H         1 RES1    0.0000
     31 H15        6.9935    7.3092   26.7540 H         1 RES1    0.0000
     32 O1         3.6045    2.6462   20.8988 O.3       1 RES1    0.0000
     33 O2         1.0155    3.3130   20.1410 O.3       1 RES1    0.0000
     34 O3         4.8149    3.1506   18.3567 O.3       1 RES1    0.0000
     35 H16        5.0112    2.4086   18.6449 H         1 RES1    0.0000
     36 O4         1.5795    5.2459   21.0520 O.2       1 RES1    0.0000
     37 C17        1.8832    4.2432   20.4800 C.2       1 RES1    0.0000
     38 C18       -0.3634    3.5692   20.4817 C.3       1 RES1    0.0000
     39 H17       -0.4197    3.8476   21.3991 H         1 RES1    0.0000
     40 H18       -0.8780    2.7685   20.3567 H         1 RES1    0.0000
     41 H19       -0.7084    4.2632   19.9153 H         1 RES1    0.0000
     42 C19        9.2576    0.2908    7.4082 C.3       2 RES2    0.0000
     43 H20        9.5845   -0.5911    7.6822 H         2 RES2    0.0000
     44 C20        9.2352    0.3592    5.8981 C.ar      2 RES2    0.0000
     45 C21        8.4168    1.2487    5.2279 C.ar      2 RES2    0.0000
     46 H21        7.8234    1.7772    5.7114 H         2 RES2    0.0000
     47 C22        9.6437    3.1923    9.3776 C.2       2 RES2    0.0000
     48 C23       10.1827    1.3725    7.9924 C.3       2 RES2    0.0000
     49 C24        9.6154    2.7833    7.9429 C.3       2 RES2    0.0000
     50 H22       10.1687    3.3667    7.4004 H         2 RES2    0.0000
     51 H23        8.7107    2.7873    7.5931 H         2 RES2    0.0000
     52 C25        9.2142    4.4943    9.8727 C.ar      2 RES2    0.0000
     53 C26        8.4666    1.3667    3.8502 C.ar      2 RES2    0.0000
     54 H24        7.9187    1.9809    3.4173 H         2 RES2    0.0000
     55 C27       10.0714   -0.4400    5.1479 C.ar      2 RES2    0.0000
     56 H25       10.6142   -1.0646    5.5725 H         2 RES2    0.0000
     57 C28        9.3146    0.5856    3.1253 C.ar      2 RES2    0.0000
     58 H26        9.3521    0.6686    2.2008 H         2 RES2    0.0000
     59 C29        9.3688    4.8831   11.1961 C.ar      2 RES2    0.0000
     60 H27        9.7876    4.3115   11.7979 H         2 RES2    0.0000
     61 C30        8.9103    6.1067   11.6251 C.ar      2 RES2    0.0000
     62 H28        9.0339    6.3449   12.5149 H         2 RES2    0.0000
     63 C31       10.1127   -0.3240    3.7696 C.ar      2 RES2    0.0000
     64 H29       10.6860   -0.8660    3.2764 H         2 RES2    0.0000
     65 C32        8.5978    5.4053    9.0180 C.ar      2 RES2    0.0000
     66 H30        8.4977    5.1887    8.1195 H         2 RES2    0.0000
     67 C33        8.2721    6.9963   10.7808 C.ar      2 RES2    0.0000
     68 C34        7.7651    8.3275   11.2533 C.3       2 RES2    0.0000
     69 H31        8.3914    9.0132   11.0104 H         2 RES2    0.0000
     70 H32        7.6629    8.3111   12.2082 H         2 RES2    0.0000
     71 H33        6.9165    8.5109   10.8446 H         2 RES2    0.0000
     72 C35        8.1337    6.6178    9.4752 C.ar      2 RES2    0.0000
     73 H34        7.7139    7.1956    8.8779 H         2 RES2    0.0000
     74 C36       13.4371   -0.1253    7.0356 C.3       2 RES2    0.0000
     75 H35       13.4417    0.1762    6.1238 H         2 RES2    0.0000
     76 H36       13.6333   -1.0653    7.0626 H         2 RES2    0.0000
     77 H37       14.1004    0.3551    7.5351 H         2 RES2    0.0000
     78 O5         7.9496    0.4677    7.8983 O.3       2 RES2    0.0000
     79 H38        7.9258    0.2659    8.6935 H         2 RES2    0.0000
     80 O6        10.3278    1.0900    9.4226 O.3       2 RES2    0.0000
     81 O7        12.1209    0.1130    7.6194 O.3       2 RES2    0.0000
     82 O8        12.0797    2.1465    6.7387 O.2       2 RES2    0.0000
     83 N1         4.3656    3.0108   22.0380 N.2       1 RES1    0.0000
     84 N2        10.0248    2.2503   10.1589 N.2       2 RES2    0.0000
     85 C37       11.5633    1.2877    7.3749 C.2       2 RES2    0.0000
     86 C38        3.3147    3.8515   20.1149 C.3       1 RES1    0.0000
@<TRIPOS>BOND
     1    1    2 1
     2    3    1 1
     3    4    3 ar
     4    5    4 1
     5    6    4 ar
     6    7    6 1
     7    8    3 ar
     8    9    8 1
     9   10    6 ar
    10   11   10 1
    11   12    8 ar
    12   13   12 1
    13   14   15 1
    14   15   16 1
    15   16   17 1
    16   18   16 1
    17   19   14 ar
    18   20   19 1
    19   21   14 ar
    20   22   21 1
    21   23   19 ar
    22   24   23 1
    23   25   23 ar
    24   26   21 ar
    25   27   26 1
    26   28   25 1
    27   29   28 1
    28   30   28 1
    29   31   28 1
    30   32   83 1
    31   33   37 1
    32   34    1 1
    33   35   34 1
    34   36   37 2
    35   37   86 1
    36   38   33 1
    37   39   38 1
    38   40   38 1
    39   41   38 1
    40   42   43 1
    41   44   42 1
    42   45   44 ar
    43   46   45 1
    44   47   49 1
    45   48   42 1
    46   49   48 1
    47   50   49 1
    48   51   49 1
    49   52   47 1
    50   53   45 ar
    51   54   53 1
    52   55   44 ar
    53   56   55 1
    54   57   53 ar
    55   58   57 1
    56   59   52 ar
    57   60   59 1
    58   61   59 ar
    59   62   61 1
    60   63   55 ar
    61   64   63 1
    62   65   52 ar
    63   66   65 1
    64   67   61 ar
    65   68   67 1
    66   69   68 1
    67   70   68 1
    68   71   68 1
    69   72   65 ar
    70   73   72 1
    71   74   75 1
    72   76   74 1
    73   77   74 1
    74   78   42 1
    75   79   78 1
    76   80   48 1
    77   81   74 1
    78   82   85 2
    79   83   15 2
    80   84   47 2
    81   85   48 1
    82   86    1 1
    83   10   12 ar
    84   16   86 1
    85   25   26 ar
    86   32   86 1
    87   57   63 ar
    88   67   72 ar
    89   80   84 1
    90   81   85 1
@<TRIPOS>SUBSTRUCTURE
     1 RES1 1
     2 RES2 42

@<TRIPOS>CRYSIN
   8.5400   10.5119   20.8093  84.8000  88.2090  67.4050   2 1

