# MOL2 file generated by ConQuest
# Please check atom types

@<TRIPOS>MOLECULE
SOBWAI
    37    39     1
SMALL
USER_CHARGES
****
Generated from CSD

@<TRIPOS>ATOM
      1 C1         6.6322    2.9659    7.2772 C.ar      1 RES1    0.0000
      2 C2         5.9684    2.0819    6.4548 C.ar      1 RES1    0.0000
      3 H1         6.4469    1.6357    5.7671 H         1 RES1    0.0000
      4 C3         4.6536    1.8412    6.6114 C.ar      1 RES1    0.0000
      5 H2         4.2143    1.2312    6.0309 H         1 RES1    0.0000
      6 C4         3.9499    2.4670    7.5951 C.ar      1 RES1    0.0000
      7 H3         3.0292    2.2587    7.7033 H         1 RES1    0.0000
      8 C5         4.5214    3.3853    8.4347 C.ar      1 RES1    0.0000
      9 H4         4.0074    3.8333    9.0959 H         1 RES1    0.0000
     10 C6         5.9135    3.6454    8.2827 C.ar      1 RES1    0.0000
     11 H5         6.3526    4.2675    8.8505 H         1 RES1    0.0000
     12 C7         8.1249    3.2011    7.1793 C.3       1 RES1    0.0000
     13 H6         8.3931    3.9490    7.7863 H         1 RES1    0.0000
     14 C8         8.7063    3.4380    5.7545 C.3       1 RES1    0.0000
     15 H7         8.1037    3.0817    5.0542 H         1 RES1    0.0000
     16 H8         8.8705    4.3999    5.5863 H         1 RES1    0.0000
     17 C9         9.9747    2.6743    5.8178 C.2       1 RES1    0.0000
     18 N1         9.9691    1.8301    6.8245 N.pl3     1 RES1    1.0000
     19 O1         8.7803    1.9375    7.6100 O.3       1 RES1    0.0000
     20 O2        10.7585    0.9461    7.1747 O.2       1 RES1   -1.0000
     21 C10       11.0819    2.6281    4.8607 C.2       1 RES1    0.0000
     22 C11       11.9312    3.6038    4.5070 C.2       1 RES1    0.0000
     23 H9        12.5419    3.3844    3.8137 H         1 RES1    0.0000
     24 N2        11.1870    1.3562    4.1016 N.pl3     1 RES1    0.0000
     25 O3        12.1844    1.1386    3.4174 O.2       1 RES1    0.0000
     26 O4        10.2294    0.5869    4.1822 O.2       1 RES1    0.0000
     27 C12       12.0440    4.9590    5.0426 C.ar      1 RES1    0.0000
     28 C13       11.4782    5.3904    6.2428 C.ar      1 RES1    0.0000
     29 H10       11.0025    4.7766    6.7911 H         1 RES1    0.0000
     30 C14       11.6111    6.7021    6.6356 C.ar      1 RES1    0.0000
     31 H11       11.2227    6.9872    7.4534 H         1 RES1    0.0000
     32 C15       12.3028    7.6120    5.8547 C.ar      1 RES1    0.0000
     33 H12       12.3729    8.5201    6.1265 H         1 RES1    0.0000
     34 C16       12.8932    7.1899    4.6764 C.ar      1 RES1    0.0000
     35 H13       13.3816    7.8055    4.1431 H         1 RES1    0.0000
     36 C17       12.7709    5.8745    4.2767 C.ar      1 RES1    0.0000
     37 H14       13.1864    5.5885    3.4716 H         1 RES1    0.0000
@<TRIPOS>BOND
     1    1    2 ar
     2    2    3 1
     3    4    2 ar
     4    5    4 1
     5    6    4 ar
     6    7    6 1
     7    8    6 ar
     8    9    8 1
     9   10    1 ar
    10   11   10 1
    11   12    1 1
    12   13   12 1
    13   14   12 1
    14   15   14 1
    15   16   14 1
    16   17   14 1
    17   18   17 2
    18   19   12 1
    19   20   18 1
    20   21   17 1
    21   22   21 2
    22   23   22 1
    23   24   21 1
    24   25   24 2
    25   26   24 2
    26   27   22 1
    27   28   27 ar
    28   29   28 1
    29   30   28 ar
    30   31   30 1
    31   32   30 ar
    32   33   32 1
    33   34   32 ar
    34   35   34 1
    35   36   27 ar
    36   37   36 1
    37    8   10 ar
    38   18   19 1
    39   34   36 ar
@<TRIPOS>SUBSTRUCTURE
     1 RES1 1

@<TRIPOS>CRYSIN
  14.1490    9.2570   11.5770  90.0000  95.7800  90.0000  14 1

