# MOL2 file generated by ConQuest
# Please check atom types

@<TRIPOS>MOLECULE
SOBXIS
   122   126     2
SMALL
USER_CHARGES
****
Generated from CSD

@<TRIPOS>ATOM
      1 O1         2.2966    4.6165   31.5641 O.2       1 RES1    0.0000
      2 O2         0.5774    8.5023   28.3471 O.3       1 RES1    0.0000
      3 O3         2.0205    5.5094   33.6201 O.3       1 RES1    0.0000
      4 C1         4.9030    6.5380   29.3992 C.ar      1 RES1    0.0000
      5 H1         5.4377    5.8095   29.6183 H         1 RES1    0.0000
      6 C2         1.2141    7.2511   28.5901 C.3       1 RES1    0.0000
      7 C3        -0.4909    6.7990   31.9324 C.3       1 RES1    0.0000
      8 H2        -0.3557    5.8801   32.2111 H         1 RES1    0.0000
      9 H3        -0.6377    7.3507   32.7175 H         1 RES1    0.0000
     10 C4         2.7261    7.4411   28.8454 C.ar      1 RES1    0.0000
     11 C5         1.9635    6.9992   31.8360 C.2       1 RES1    0.0000
     12 C6         3.5435    6.3500   29.1476 C.ar      1 RES1    0.0000
     13 H4         3.1802    5.4943   29.1808 H         1 RES1    0.0000
     14 C7        -1.0331    6.4546   29.6191 C.3       1 RES1    0.0000
     15 H5        -1.3338    7.0301   28.8972 H         1 RES1    0.0000
     16 H6        -1.3010    5.5443   29.4198 H         1 RES1    0.0000
     17 C8         4.6580    8.8914   28.9819 C.ar      1 RES1    0.0000
     18 H7         5.0307    9.7408   28.9094 H         1 RES1    0.0000
     19 C9         3.3003    8.7104   28.7469 C.ar      1 RES1    0.0000
     20 H8         2.7701    9.4408   28.5245 H         1 RES1    0.0000
     21 C10       -1.6421    6.9124   30.9605 C.3       1 RES1    0.0000
     22 H9        -1.9612    7.8268   30.9026 H         1 RES1    0.0000
     23 H10       -2.3774    6.3366   31.2226 H         1 RES1    0.0000
     24 C11        0.5090    6.5418   29.7711 C.3       1 RES1    0.0000
     25 H11        0.8735    5.6367   29.8654 H         1 RES1    0.0000
     26 C12        1.0816    6.4049   27.3148 C.ar      1 RES1    0.0000
     27 C13        5.4623    7.8080   29.3230 C.ar      1 RES1    0.0000
     28 H12        6.3665    7.9333   29.4968 H         1 RES1    0.0000
     29 C14        2.2852    4.2060   34.2407 C.3       1 RES1    0.0000
     30 H13        3.1822    3.9020   34.0301 H         1 RES1    0.0000
     31 H14        1.6495    3.5433   33.9288 H         1 RES1    0.0000
     32 C15        2.1270    5.5609   32.2994 C.2       1 RES1    0.0000
     33 C16        0.9154    5.0169   27.3181 C.ar      1 RES1    0.0000
     34 H15        0.7884    4.5682   28.1234 H         1 RES1    0.0000
     35 C17        1.2838    6.3260   24.9011 C.ar      1 RES1    0.0000
     36 H16        1.4107    6.7692   24.0925 H         1 RES1    0.0000
     37 C18        0.9400    4.3037   26.1209 C.ar      1 RES1    0.0000
     38 H17        0.8273    3.3803   26.1343 H         1 RES1    0.0000
     39 C19        1.2499    7.0483   26.0869 C.ar      1 RES1    0.0000
     40 H18        1.3410    7.9735   26.0614 H         1 RES1    0.0000
     41 C20        1.1285    4.9438   24.9153 C.ar      1 RES1    0.0000
     42 H19        1.1513    4.4585   24.1208 H         1 RES1    0.0000
     43 C21        2.1386    4.4237   35.7097 C.3       1 RES1    0.0000
     44 H20        1.2989    4.8541   35.8855 H         1 RES1    0.0000
     45 H21        2.8552    4.9802   36.0233 H         1 RES1    0.0000
     46 H22        2.1662    3.5781   36.1651 H         1 RES1    0.0000
     47 N1         0.6875    7.3053   31.1161 N.4       1 RES1    1.0000
     48 O4         0.5376    8.6727   30.9297 O.2       1 RES1   -1.0000
     49 O5         4.6435    8.9066   33.1692 O.3       1 RES1    0.0000
     50 O6         4.6305    6.6485   32.9573 O.2       1 RES1    0.0000
     51 C22        2.8265    7.9738   32.0851 C.2       1 RES1    0.0000
     52 H23        2.6163    8.8398   31.8181 H         1 RES1    0.0000
     53 C23        4.1194    7.7307   32.7770 C.2       1 RES1    0.0000
     54 C24        5.9120    8.8412   33.8968 C.3       1 RES1    0.0000
     55 H24        6.3778    9.6875   33.8073 H         1 RES1    0.0000
     56 H25        6.4700    8.1496   33.5075 H         1 RES1    0.0000
     57 C25        5.6917    8.5436   35.3556 C.3       1 RES1    0.0000
     58 H26        5.3187    7.6637   35.4521 H         1 RES1    0.0000
     59 H27        5.0860    9.1897   35.7275 H         1 RES1    0.0000
     60 H28        6.5305    8.5876   35.8207 H         1 RES1    0.0000
     61 H29        0.4613    8.7822   29.1403 H         1 RES1    0.0000
     62 O7        10.0169    7.2641   37.7548 O.2       2 RES2    0.0000
     63 O8        11.8879    3.2569   40.0749 O.2       2 RES2   -1.0000
     64 O9         7.8971    5.0357   39.2424 O.2       2 RES2    0.0000
     65 O10       12.2754    7.3240   37.8544 O.3       2 RES2    0.0000
     66 C26       11.0722    6.7879   38.0926 C.2       2 RES2    0.0000
     67 C27        9.7528    4.2008   43.6873 C.ar      2 RES2    0.0000
     68 N2        10.5214    3.4556   39.9092 N.4       2 RES2    1.0000
     69 C28       10.2678    4.6685   39.0811 C.2       2 RES2    0.0000
     70 C29        8.3822    4.4137   43.7558 C.ar      2 RES2    0.0000
     71 H30        7.8889    4.4965   42.9711 H         2 RES2    0.0000
     72 C30        8.8556    4.8318   38.5451 C.2       2 RES2    0.0000
     73 C31        8.4579    4.3675   46.1573 C.ar      2 RES2    0.0000
     74 H31        8.0314    4.4465   46.9777 H         2 RES2    0.0000
     75 C32       10.4593    4.0319   44.8743 C.ar      2 RES2    0.0000
     76 H32       11.3736    3.8628   44.8468 H         2 RES2    0.0000
     77 C33       10.7023    5.7756   42.0304 C.ar      2 RES2    0.0000
     78 C34        9.9521    2.2330   39.2229 C.3       2 RES2    0.0000
     79 H33       10.4960    1.9749   38.4621 H         2 RES2    0.0000
     80 H34        9.0443    2.3934   38.9199 H         2 RES2    0.0000
     81 C35        9.7971    3.4458   41.2862 C.3       2 RES2    0.0000
     82 H35        8.8885    3.7965   41.1764 H         2 RES2    0.0000
     83 C36        9.8142    4.1134   46.1027 C.ar      2 RES2    0.0000
     84 H36       10.2971    3.9965   46.8886 H         2 RES2    0.0000
     85 C37       10.5386    4.2713   42.3687 C.3       2 RES2    0.0000
     86 C38        9.6329    6.5612   41.5965 C.ar      2 RES2    0.0000
     87 H37        8.8024    6.1692   41.4478 H         2 RES2    0.0000
     88 C39       12.0953    7.7602   42.0466 C.ar      2 RES2    0.0000
     89 H38       12.9216    8.1583   42.2014 H         2 RES2    0.0000
     90 C40        9.7265    1.9394   41.6200 C.3       2 RES2    0.0000
     91 H39       10.3955    1.7097   42.2824 H         2 RES2    0.0000
     92 H40        8.8516    1.7140   41.9745 H         2 RES2    0.0000
     93 C41        9.8011    7.9300   41.3826 C.ar      2 RES2    0.0000
     94 H41        9.0833    8.4430   41.0873 H         2 RES2    0.0000
     95 C42       11.9314    6.3904   42.2577 C.ar      2 RES2    0.0000
     96 H42       12.6510    5.8823   42.5538 H         2 RES2    0.0000
     97 C43        9.9887    1.1702   40.3082 C.3       2 RES2    0.0000
     98 H43       10.8538    0.7326   40.3337 H         2 RES2    0.0000
     99 H44        9.3027    0.5011   40.1595 H         2 RES2    0.0000
    100 C44       12.2803    8.1728   35.5748 C.3       2 RES2    0.0000
    101 H45       12.2962    8.9745   35.0469 H         2 RES2    0.0000
    102 H46       11.4833    7.6757   35.3791 H         2 RES2    0.0000
    103 H47       13.0508    7.6376   35.3670 H         2 RES2    0.0000
    104 C45        7.7403    4.5041   44.9906 C.ar      2 RES2    0.0000
    105 H48        6.8237    4.6574   45.0250 H         2 RES2    0.0000
    106 C46       11.2521    5.5291   38.8607 C.2       2 RES2    0.0000
    107 H49       12.0953    5.3356   39.2035 H         2 RES2    0.0000
    108 C47       11.0280    8.5302   41.6070 C.ar      2 RES2    0.0000
    109 H50       11.1357    9.4430   41.4640 H         2 RES2    0.0000
    110 C48       12.2980    8.5356   37.0385 C.3       2 RES2    0.0000
    111 H51       13.0969    9.0484   37.2386 H         2 RES2    0.0000
    112 H52       11.5263    9.0843   37.2467 H         2 RES2    0.0000
    113 C49        7.9166    5.5132   35.1859 C.3       2 RES2    0.0000
    114 H53        7.1077    5.6693   34.6904 H         2 RES2    0.0000
    115 H54        8.4610    4.8780   34.7147 H         2 RES2    0.0000
    116 H55        8.3974    6.3388   35.2819 H         2 RES2    0.0000
    117 O11       11.8138    3.6743   42.5818 O.3       2 RES2    0.0000
    118 H56       12.1261    3.4324   41.8610 H         2 RES2    0.0000
    119 O12        8.8450    4.6814   37.2269 O.3       2 RES2    0.0000
    120 C50        7.5766    4.9726   36.5434 C.3       2 RES2    0.0000
    121 H57        7.0657    5.6247   37.0482 H         2 RES2    0.0000
    122 H58        7.0472    4.1639   36.4608 H         2 RES2    0.0000
@<TRIPOS>BOND
     1    1   32 2
     2    2    6 1
     3    3   29 1
     4    4    5 1
     5    6   10 1
     6    7    8 1
     7    9    7 1
     8   10   12 ar
     9   11   32 1
    10   12    4 ar
    11   13   12 1
    12   14   15 1
    13   16   14 1
    14   17   18 1
    15   19   10 ar
    16   20   19 1
    17   21    7 1
    18   22   21 1
    19   23   21 1
    20   24    6 1
    21   25   24 1
    22   26    6 1
    23   27    4 ar
    24   28   27 1
    25   29   30 1
    26   31   29 1
    27   32    3 1
    28   33   26 ar
    29   34   33 1
    30   35   36 1
    31   37   33 ar
    32   38   37 1
    33   39   26 ar
    34   40   39 1
    35   41   35 ar
    36   42   41 1
    37   43   29 1
    38   44   43 1
    39   45   43 1
    40   46   43 1
    41   47    7 1
    42   48   47 1
    43   49   53 1
    44   50   53 2
    45   51   11 2
    46   52   51 1
    47   53   51 1
    48   54   49 1
    49   55   54 1
    50   56   54 1
    51   57   54 1
    52   58   57 1
    53   59   57 1
    54   60   57 1
    55   61    2 1
    56   62   66 2
    57   63   68 1
    58   64   72 2
    59   65   66 1
    60   66  106 1
    61   67   70 ar
    62   68   69 1
    63   69   72 1
    64   70   71 1
    65   72  119 1
    66   73   74 1
    67   75   67 ar
    68   76   75 1
    69   77   85 1
    70   78   68 1
    71   79   78 1
    72   80   78 1
    73   81   68 1
    74   82   81 1
    75   83   73 ar
    76   84   83 1
    77   85   67 1
    78   86   77 ar
    79   87   86 1
    80   88   89 1
    81   90   81 1
    82   91   90 1
    83   92   90 1
    84   93   86 ar
    85   94   93 1
    86   95   77 ar
    87   96   95 1
    88   97   78 1
    89   98   97 1
    90   99   97 1
    91  100  101 1
    92  102  100 1
    93  103  100 1
    94  104   70 ar
    95  105  104 1
    96  106   69 2
    97  107  106 1
    98  108   88 ar
    99  109  108 1
   100  110   65 1
   101  111  110 1
   102  112  110 1
   103  113  114 1
   104  115  113 1
   105  116  113 1
   106  117   85 1
   107  118  117 1
   108  119  120 1
   109  120  113 1
   110  121  120 1
   111  122  120 1
   112   11   47 1
   113   14   21 1
   114   14   24 1
   115   17   19 ar
   116   17   27 ar
   117   24   47 1
   118   35   39 ar
   119   37   41 ar
   120   73  104 ar
   121   75   83 ar
   122   81   85 1
   123   88   95 ar
   124   90   97 1
   125   93  108 ar
   126  100  110 1
@<TRIPOS>SUBSTRUCTURE
     1 RES1 1
     2 RES2 62

@<TRIPOS>CRYSIN
  10.2520   10.8690   40.5120  90.0000  90.0000  90.0000  19 1

