# MOL2 file generated by ConQuest
# Please check atom types

@<TRIPOS>MOLECULE
SOBZAK
    94   100     2
SMALL
NO_CHARGES
****
Generated from CSD

@<TRIPOS>ATOM
      1 C1         2.9035    4.6208    6.2459 C.3       1 RES1    0.0000
      2 C2         2.9544    3.2817    6.9626 C.3       1 RES1    0.0000
      3 C3         2.7714    3.2967    5.4824 C.3       1 RES1    0.0000
      4 C4         3.8547    2.7937    4.5966 C.3       1 RES1    0.0000
      5 C5         3.6294    1.6286    3.7278 C.3       1 RES1    0.0000
      6 C6         3.7403    2.9835    3.1073 C.3       1 RES1    0.0000
      7 C7         4.9667    3.2662    2.3555 C.2       1 RES1    0.0000
      8 O1         6.0417    2.7698    2.6300 O.2       1 RES1    0.0000
      9 N1         4.8802    4.1077    1.2981 N.am      1 RES1    0.0000
     10 O2         3.6928    4.8108    1.1031 O.3       1 RES1    0.0000
     11 C8         2.8858    4.1651    0.1158 C.3       1 RES1    0.0000
     12 C9         5.9826    4.5452    0.4878 C.3       1 RES1    0.0000
     13 C10        1.6660    5.4605    6.4202 C.ar      1 RES1    0.0000
     14 C11        1.7038    6.8383    6.4540 C.ar      1 RES1    0.0000
     15 C12        0.5700    7.5978    6.6127 C.ar      1 RES1    0.0000
     16 C13       -0.6406    7.0101    6.7714 C.ar      1 RES1    0.0000
     17 C14       -0.7117    5.6508    6.7349 C.ar      1 RES1    0.0000
     18 C15        0.4217    4.8895    6.5749 C.ar      1 RES1    0.0000
     19 C16        4.1877    5.3798    6.0729 C.ar      1 RES1    0.0000
     20 C17        5.1290    5.4644    7.0757 C.ar      1 RES1    0.0000
     21 C18        6.2795    6.2191    6.9183 C.ar      1 RES1    0.0000
     22 C19        6.4865    6.9015    5.7581 C.ar      1 RES1    0.0000
     23 C20        5.5776    6.8203    4.7462 C.ar      1 RES1    0.0000
     24 C21        4.4376    6.0569    4.8919 C.ar      1 RES1    0.0000
     25 C22       -2.7730    1.4061   -1.1277 C.3       2 RES2    0.0000
     26 C23       -2.7018   -0.0450   -0.6829 C.3       2 RES2    0.0000
     27 C24       -2.8855    1.0257    0.3538 C.3       2 RES2    0.0000
     28 C25       -1.7901    1.3078    1.3150 C.3       2 RES2    0.0000
     29 C26       -1.9976    1.1350    2.7640 C.3       2 RES2    0.0000
     30 C27       -1.8749    2.5135    2.2073 C.3       2 RES2    0.0000
     31 C28       -0.6388    3.2527    2.5064 C.2       2 RES2    0.0000
     32 O3         0.4235    2.6986    2.7262 O.2       2 RES2    0.0000
     33 N2        -0.7181    4.5940    2.6092 N.am      2 RES2    0.0000
     34 O4        -1.8537    5.2302    2.1162 O.3       2 RES2    0.0000
     35 C29       -2.7205    5.5947    3.2153 C.3       2 RES2    0.0000
     36 C30        0.4249    5.4594    2.7978 C.3       2 RES2    0.0000
     37 C31       -4.0180    1.8312   -1.8470 C.ar      2 RES2    0.0000
     38 C32       -5.2749    1.3751   -1.4932 C.ar      2 RES2    0.0000
     39 C33       -6.4131    1.7504   -2.1747 C.ar      2 RES2    0.0000
     40 C34       -6.3463    2.6130   -3.2231 C.ar      2 RES2    0.0000
     41 C35       -5.1194    3.0671   -3.6016 C.ar      2 RES2    0.0000
     42 C36       -3.9742    2.6922   -2.9304 C.ar      2 RES2    0.0000
     43 C37       -1.5086    2.0848   -1.5530 C.ar      2 RES2    0.0000
     44 C38       -1.2526    3.3832   -1.1485 C.ar      2 RES2    0.0000
     45 C39       -0.1195    4.0419   -1.5777 C.ar      2 RES2    0.0000
     46 C40        0.7665    3.4237   -2.4128 C.ar      2 RES2    0.0000
     47 C41        0.5350    2.1329   -2.8225 C.ar      2 RES2    0.0000
     48 C42       -0.6013    1.4691   -2.3907 C.ar      2 RES2    0.0000
     49 H1         2.1947    3.0604    7.5270 H         1 RES1    0.0000
     50 H2         3.8239    3.0100    7.3385 H         1 RES1    0.0000
     51 H3         1.8997    3.1256    5.1611 H         1 RES1    0.0000
     52 H4         4.7243    2.8975    4.8867 H         1 RES1    0.0000
     53 H5         2.7148    1.2678    3.7252 H         1 RES1    0.0000
     54 H6         4.2877    1.0501    3.5860 H         1 RES1    0.0000
     55 H7         2.9433    3.4058    2.8030 H         1 RES1    0.0000
     56 H8         2.6436    3.2978    0.3928 H         1 RES1    0.0000
     57 H9         3.3217    4.0715   -0.6972 H         1 RES1    0.0000
     58 H10        2.1455    4.7795    0.0676 H         1 RES1    0.0000
     59 H11        6.7309    4.0372    0.7154 H         1 RES1    0.0000
     60 H12        6.3116    5.3138    0.8897 H         1 RES1    0.0000
     61 H13        5.7222    4.6726   -0.3434 H         1 RES1    0.0000
     62 H14        2.5144    7.2174    6.3681 H         1 RES1    0.0000
     63 H15        0.6616    8.5602    6.7050 H         1 RES1    0.0000
     64 H16       -1.4151    7.4967    6.8871 H         1 RES1    0.0000
     65 H17       -1.5150    5.2455    6.8767 H         1 RES1    0.0000
     66 H18        0.3372    3.9307    6.4709 H         1 RES1    0.0000
     67 H19        4.9805    5.0081    7.8678 H         1 RES1    0.0000
     68 H20        6.8805    6.2367    7.5973 H         1 RES1    0.0000
     69 H21        7.3050    7.3736    5.6580 H         1 RES1    0.0000
     70 H22        5.6941    7.3321    3.9580 H         1 RES1    0.0000
     71 H23        3.7672    6.0143    4.1804 H         1 RES1    0.0000
     72 H24       -3.4885   -0.5971   -0.8741 H         2 RES2    0.0000
     73 H25       -1.8479   -0.4489   -0.7258 H         2 RES2    0.0000
     74 H26       -3.7808    1.1376    0.7167 H         2 RES2    0.0000
     75 H27       -0.9367    1.1612    0.9937 H         2 RES2    0.0000
     76 H28       -2.8395    0.8993    3.0670 H         2 RES2    0.0000
     77 H29       -1.2250    0.8070    3.3050 H         2 RES2    0.0000
     78 H30       -2.6513    3.0094    2.1565 H         2 RES2    0.0000
     79 H31       -2.2373    6.0460    3.8838 H         2 RES2    0.0000
     80 H32       -2.9693    4.7363    3.6523 H         2 RES2    0.0000
     81 H33       -3.3264    6.1565    2.6716 H         2 RES2    0.0000
     82 H34        0.1175    6.2420    3.2465 H         2 RES2    0.0000
     83 H35        0.5787    5.7880    2.0018 H         2 RES2    0.0000
     84 H36        1.0746    5.0235    3.2387 H         2 RES2    0.0000
     85 H37       -5.3737    0.7697   -0.7206 H         2 RES2    0.0000
     86 H38       -7.2522    1.4506   -1.8899 H         2 RES2    0.0000
     87 H39       -7.1690    2.8223   -3.7069 H         2 RES2    0.0000
     88 H40       -5.0260    3.5981   -4.3820 H         2 RES2    0.0000
     89 H41       -3.1501    2.9624   -3.1789 H         2 RES2    0.0000
     90 H42       -1.8752    3.8002   -0.5567 H         2 RES2    0.0000
     91 H43       -0.0063    4.9955   -1.2695 H         2 RES2    0.0000
     92 H44        1.6341    3.7779   -2.7731 H         2 RES2    0.0000
     93 H45        1.1152    1.7138   -3.4104 H         2 RES2    0.0000
     94 H46       -0.7384    0.5732   -2.7015 H         2 RES2    0.0000
@<TRIPOS>BOND
     1    1    2 1
     2    2    3 1
     3    3    1 1
     4    4    3 1
     5    5    4 1
     6    6    4 1
     7    7    6 1
     8    8    7 2
     9    9    7 1
    10   10    9 1
    11   11   10 1
    12   12    9 1
    13   13    1 1
    14   14   13 ar
    15   15   14 ar
    16   16   15 ar
    17   17   16 ar
    18   18   13 ar
    19   19    1 1
    20   20   19 ar
    21   21   20 ar
    22   22   21 ar
    23   23   22 ar
    24   24   19 ar
    25   25   26 1
    26   26   27 1
    27   27   25 1
    28   28   27 1
    29   29   28 1
    30   30   28 1
    31   31   30 1
    32   32   31 2
    33   33   31 1
    34   34   33 1
    35   35   34 1
    36   36   33 1
    37   37   25 1
    38   38   37 ar
    39   39   38 ar
    40   40   39 ar
    41   41   40 ar
    42   42   37 ar
    43   43   25 1
    44   44   43 ar
    45   45   44 ar
    46   46   45 ar
    47   47   46 ar
    48   48   43 ar
    49   49    2 1
    50   50    2 1
    51   51    3 1
    52   52    4 1
    53   53    5 1
    54   54    5 1
    55   55    6 1
    56   56   11 1
    57   57   11 1
    58   58   11 1
    59   59   12 1
    60   60   12 1
    61   61   12 1
    62   62   14 1
    63   63   15 1
    64   64   16 1
    65   65   17 1
    66   66   18 1
    67   67   20 1
    68   68   21 1
    69   69   22 1
    70   70   23 1
    71   71   24 1
    72   72   26 1
    73   73   26 1
    74   74   27 1
    75   75   28 1
    76   76   29 1
    77   77   29 1
    78   78   30 1
    79   79   35 1
    80   80   35 1
    81   81   35 1
    82   82   36 1
    83   83   36 1
    84   84   36 1
    85   85   38 1
    86   86   39 1
    87   87   40 1
    88   88   41 1
    89   89   42 1
    90   90   44 1
    91   91   45 1
    92   92   46 1
    93   93   47 1
    94   94   48 1
    95    5    6 1
    96   17   18 ar
    97   23   24 ar
    98   29   30 1
    99   41   42 ar
   100   47   48 ar
@<TRIPOS>SUBSTRUCTURE
     1 RES1 1
     2 RES2 25

@<TRIPOS>CRYSIN
  11.1311   12.9830   14.1620  67.5970  88.4280  70.4830   2 1

