# MOL2 file generated by ConQuest
# Please check atom types

@<TRIPOS>MOLECULE
SOCBOC
    40    42     1
SMALL
NO_CHARGES
****
Generated from CSD

@<TRIPOS>ATOM
      1 C1         0.9127    0.3320   12.4885 C.ar      1 RES1    0.0000
      2 H1         0.6143    0.5032   11.6033 H         1 RES1    0.0000
      3 C2         2.1577   -1.9902    8.6279 C.3       1 RES1    0.0000
      4 C3         0.1617   -3.3428    9.1198 C.3       1 RES1    0.0000
      5 H2         0.0795   -4.2859    8.7989 H         1 RES1    0.0000
      6 C4         1.5632   -3.0250    9.6607 C.3       1 RES1    0.0000
      7 H3         2.1248   -3.8518    9.6978 H         1 RES1    0.0000
      8 C5         1.7630   -0.1305   15.0860 C.ar      1 RES1    0.0000
      9 H4         2.0393   -0.2842   15.9813 H         1 RES1    0.0000
     10 C6        -0.0853   -2.3299    8.0174 C.2       1 RES1    0.0000
     11 C7         3.1811   -2.7020    7.8220 C.1       1 RES1    0.0000
     12 C8        -0.2986   -1.8881   12.4290 C.3       1 RES1    0.0000
     13 H5        -0.1326   -2.7724   12.8423 H         1 RES1    0.0000
     14 H6        -1.2560   -1.6691   12.5519 H         1 RES1    0.0000
     15 C9         2.8065   -0.8145    9.3671 C.2       1 RES1    0.0000
     16 C10       -0.7176   -3.0586   10.3373 C.3       1 RES1    0.0000
     17 H7        -1.6280   -2.7802   10.0656 H         1 RES1    0.0000
     18 H8        -0.7822   -3.8512   10.9271 H         1 RES1    0.0000
     19 C11        0.9687   -1.0652   14.4369 C.ar      1 RES1    0.0000
     20 H9         0.7120   -1.8603   14.8889 H         1 RES1    0.0000
     21 C12        4.8212   -0.1725   10.4384 C.3       1 RES1    0.0000
     22 H10        5.4382   -0.5833   11.0944 H         1 RES1    0.0000
     23 H11        4.2467    0.4748   10.9188 H         1 RES1    0.0000
     24 C13        0.5427   -0.8481   13.1240 C.ar      1 RES1    0.0000
     25 C14        2.1556    1.0296   14.4293 C.ar      1 RES1    0.0000
     26 H12        2.7219    1.6562   14.8640 H         1 RES1    0.0000
     27 C15        1.7165    1.2661   13.1385 C.ar      1 RES1    0.0000
     28 H13        1.9643    2.0683   12.6944 H         1 RES1    0.0000
     29 C16        5.6125    0.5439    9.3775 C.3       1 RES1    0.0000
     30 H14        6.0729   -0.1124    8.8141 H         1 RES1    0.0000
     31 H15        6.2730    1.1298    9.8029 H         1 RES1    0.0000
     32 H16        5.0068    1.0813    8.8252 H         1 RES1    0.0000
     33 N1        -0.0010   -1.9618   10.9960 N.3       1 RES1    0.0000
     34 N2         3.9492   -3.3208    7.2504 N.1       1 RES1    0.0000
     35 N3         1.0293   -1.5823    7.8387 N.am      1 RES1    0.0000
     36 H17        1.0600   -0.9005    7.2834 H         1 RES1    0.0000
     37 O1         1.3979   -2.4703   10.9531 O.3       1 RES1    0.0000
     38 O2        -1.1334   -2.2054    7.3950 O.2       1 RES1    0.0000
     39 O3         2.2961    0.2567    9.5057 O.2       1 RES1    0.0000
     40 O4         3.9960   -1.2020    9.8309 O.3       1 RES1    0.0000
@<TRIPOS>BOND
     1    1    2 1
     2    3    6 1
     3    4    5 1
     4    6    4 1
     5    7    6 1
     6    8    9 1
     7   10    4 1
     8   11    3 1
     9   12   13 1
    10   14   12 1
    11   15    3 1
    12   16    4 1
    13   17   16 1
    14   18   16 1
    15   19    8 ar
    16   20   19 1
    17   21   22 1
    18   23   21 1
    19   24    1 ar
    20   25    8 ar
    21   26   25 1
    22   27    1 ar
    23   28   27 1
    24   29   21 1
    25   30   29 1
    26   31   29 1
    27   32   29 1
    28   33   12 1
    29   34   11 3
    30   35    3 1
    31   36   35 1
    32   37    6 1
    33   38   10 2
    34   39   15 2
    35   40   15 1
    36   10   35 1
    37   12   24 1
    38   16   33 1
    39   19   24 ar
    40   21   40 1
    41   25   27 ar
    42   33   37 1
@<TRIPOS>SUBSTRUCTURE
     1 RES1 1

@<TRIPOS>CRYSIN
   8.3361    6.4595   13.8621  90.0000  94.0030  90.0000   4 1

