# MOL2 file generated by ConQuest
# Please check atom types

@<TRIPOS>MOLECULE
SODGEY
    46    48     1
SMALL
USER_CHARGES
****
Generated from CSD

@<TRIPOS>ATOM
      1 O1         8.8706    7.8960    3.4188 O.2       1 RES1   -1.0000
      2 O2         9.0492    8.5292    5.5575 O.3       1 RES1    0.0000
      3 O3        12.6535    6.1598    4.0792 O.2       1 RES1    0.0000
      4 O4        11.1444    6.5854    2.4807 O.3       1 RES1    0.0000
      5 O5         8.1396    6.9500    7.5576 O.2       1 RES1    0.0000
      6 O6        10.1083    7.0802    8.6098 O.3       1 RES1    0.0000
      7 N1         9.6122    7.8821    4.3921 N.pl3     1 RES1    1.0000
      8 C1         9.9367    8.2676    6.6485 C.3       1 RES1    0.0000
      9 C2        11.2243    7.6658    6.0446 C.3       1 RES1    0.0000
     10 C3        10.8014    7.4217    4.6461 C.2       1 RES1    0.0000
     11 C4        11.6299    6.6592    3.7166 C.2       1 RES1    0.0000
     12 C5         9.2531    7.3487    7.6453 C.2       1 RES1    0.0000
     13 C6         9.6818    6.1666    9.6579 C.3       1 RES1    0.0000
     14 H1         9.0680    5.5073    9.2976 H         1 RES1    0.0000
     15 H2         9.2293    6.6540   10.3645 H         1 RES1    0.0000
     16 C7        10.8857    5.5036   10.1877 C.3       1 RES1    0.0000
     17 H3        11.3002    4.9881    9.4918 H         1 RES1    0.0000
     18 H4        10.6392    4.9240   10.9123 H         1 RES1    0.0000
     19 H5        11.5029    6.1673   10.5055 H         1 RES1    0.0000
     20 C8        12.4458    8.5470    6.1539 C.ar      1 RES1    0.0000
     21 C9        13.6272    8.0308    6.6267 C.ar      1 RES1    0.0000
     22 H6        13.6594    7.1511    6.9267 H         1 RES1    0.0000
     23 C10       14.7695    8.8096    6.6616 C.ar      1 RES1    0.0000
     24 H7        15.5657    8.4497    6.9798 H         1 RES1    0.0000
     25 C11       14.7332   10.1031    6.2318 C.ar      1 RES1    0.0000
     26 H8        15.5043   10.6215    6.2502 H         1 RES1    0.0000
     27 C12       13.5617   10.6348    5.7748 C.ar      1 RES1    0.0000
     28 H9        13.5333   11.5212    5.4939 H         1 RES1    0.0000
     29 C13       12.4182    9.8619    5.7276 C.ar      1 RES1    0.0000
     30 H10       11.6257   10.2277    5.4061 H         1 RES1    0.0000
     31 C14       11.9974    5.8723    1.5574 C.3       1 RES1    0.0000
     32 H11       12.1702    4.9793    1.8947 H         1 RES1    0.0000
     33 H12       12.8469    6.3332    1.4716 H         1 RES1    0.0000
     34 C15       11.3356    5.7882    0.2285 C.ar      1 RES1    0.0000
     35 C16       12.0821    5.3310   -0.8423 C.ar      1 RES1    0.0000
     36 H13       12.9755    5.1083   -0.7113 H         1 RES1    0.0000
     37 C17       11.5391    5.1998   -2.0829 C.ar      1 RES1    0.0000
     38 H14       12.0598    4.8849   -2.7858 H         1 RES1    0.0000
     39 C18       10.2368    5.5287   -2.2996 C.ar      1 RES1    0.0000
     40 H15        9.8640    5.4394   -3.1476 H         1 RES1    0.0000
     41 C19        9.4817    5.9918   -1.2541 C.ar      1 RES1    0.0000
     42 H16        8.5913    6.2219   -1.3960 H         1 RES1    0.0000
     43 C20       10.0286    6.1216    0.0057 C.ar      1 RES1    0.0000
     44 H17        9.5061    6.4372    0.7072 H         1 RES1    0.0000
     45 H18       10.1141    9.1370    7.1311 H         1 RES1    0.0000
     46 H19       11.3955    6.8244    6.4791 H         1 RES1    0.0000
@<TRIPOS>BOND
     1    1    7 1
     2    2    7 1
     3    3   11 2
     4    4   11 1
     5    5   12 2
     6    6   12 1
     7    7   10 2
     8    8    2 1
     9    9    8 1
    10   10    9 1
    11   11   10 1
    12   12    8 1
    13   13    6 1
    14   14   13 1
    15   15   13 1
    16   16   13 1
    17   17   16 1
    18   18   16 1
    19   19   16 1
    20   20    9 1
    21   21   20 ar
    22   22   21 1
    23   23   21 ar
    24   24   23 1
    25   25   23 ar
    26   26   25 1
    27   27   25 ar
    28   28   27 1
    29   29   20 ar
    30   30   29 1
    31   31    4 1
    32   32   31 1
    33   33   31 1
    34   34   31 1
    35   35   34 ar
    36   36   35 1
    37   37   35 ar
    38   38   37 1
    39   39   37 ar
    40   40   39 1
    41   41   39 ar
    42   42   41 1
    43   43   34 ar
    44   44   43 1
    45   45    8 1
    46   46    9 1
    47   27   29 ar
    48   41   43 ar
@<TRIPOS>SUBSTRUCTURE
     1 RES1 1

@<TRIPOS>CRYSIN
  12.4214    7.3745   20.4490  90.0000  91.8110  90.0000 231 1

