# MOL2 file generated by ConQuest
# Please check atom types

@<TRIPOS>MOLECULE
SODJAX
    65    67     1
SMALL
NO_CHARGES
****
Generated from CSD

@<TRIPOS>ATOM
      1 C1         8.6887    1.8841    1.0985 C.3       1 RES1    0.0000
      2 H1         8.6596    1.5518    2.0306 H         1 RES1    0.0000
      3 H2         9.3553    1.3483    0.6013 H         1 RES1    0.0000
      4 C2         7.3254    1.7198    0.4582 C.3       1 RES1    0.0000
      5 H3         6.6415    2.1482    1.0334 H         1 RES1    0.0000
      6 H4         7.1093    0.7569    0.3931 H         1 RES1    0.0000
      7 C3         7.2720    2.3415   -0.9321 C.3       1 RES1    0.0000
      8 H5         7.8476    1.8247   -1.5483 H         1 RES1    0.0000
      9 H6         6.3442    2.3062   -1.2750 H         1 RES1    0.0000
     10 C4         7.7425    3.7859   -0.8875 C.3       1 RES1    0.0000
     11 H7         7.1030    4.3267   -0.3606 H         1 RES1    0.0000
     12 H8         7.7714    4.1524   -1.8066 H         1 RES1    0.0000
     13 C5         9.1252    3.8781   -0.2602 C.3       1 RES1    0.0000
     14 H9         9.7812    3.3904   -0.8178 H         1 RES1    0.0000
     15 H10        9.4080    4.8259   -0.2091 H         1 RES1    0.0000
     16 C6         9.4163    3.9173    2.2360 C.2       1 RES1    0.0000
     17 C7         9.7023    5.4097    2.2434 C.3       1 RES1    0.0000
     18 H11        9.5941    5.7736    1.3289 H         1 RES1    0.0000
     19 H12        9.0574    5.8684    2.8372 H         1 RES1    0.0000
     20 C8        13.1345    5.2666    2.0538 C.2       1 RES1    0.0000
     21 C9        13.5676    5.6454    3.4023 C.2       1 RES1    0.0000
     22 H13       12.9095    5.6965    4.0863 H         1 RES1    0.0000
     23 C10       14.8282    5.9217    3.7229 C.2       1 RES1    0.0000
     24 H14       15.4533    6.0162    3.0147 H         1 RES1    0.0000
     25 C11       15.3307    6.0933    5.1234 C.3       1 RES1    0.0000
     26 H15       14.5755    6.0200    5.7600 H         1 RES1    0.0000
     27 H16       15.7342    6.9918    5.2256 H         1 RES1    0.0000
     28 C12       16.3808    5.0129    5.4375 C.3       1 RES1    0.0000
     29 H17       17.1481    5.1190    4.8195 H         1 RES1    0.0000
     30 H18       16.7142    5.1456    6.3603 H         1 RES1    0.0000
     31 C13       15.8348    3.6166    5.3065 C.2       1 RES1    0.0000
     32 H19       15.5084    3.1983    6.0945 H         1 RES1    0.0000
     33 C14       15.7748    2.9279    4.1801 C.2       1 RES1    0.0000
     34 H20       16.1852    3.3108    3.4134 H         1 RES1    0.0000
     35 C15       15.1149    1.5960    4.0082 C.3       1 RES1    0.0000
     36 H21       15.0887    1.1411    4.8873 H         1 RES1    0.0000
     37 H22       15.6703    1.0450    3.4023 H         1 RES1    0.0000
     38 C16       13.6907    1.6554    3.4469 C.3       1 RES1    0.0000
     39 H23       13.3686    0.7241    3.2722 H         1 RES1    0.0000
     40 C17       12.9554    2.0269    1.1793 C.2       1 RES1    0.0000
     41 C18       13.0915    2.8071   -0.0585 C.ar      1 RES1    0.0000
     42 C19       12.6176    2.2092   -1.2546 C.ar      1 RES1    0.0000
     43 C20       12.8407    2.7800   -2.5018 C.ar      1 RES1    0.0000
     44 H24       12.5414    2.3428   -3.2898 H         1 RES1    0.0000
     45 C21       13.4995    3.9843   -2.5835 C.ar      1 RES1    0.0000
     46 C22       13.8880    4.6528   -1.4126 C.ar      1 RES1    0.0000
     47 H25       14.2877    5.5120   -1.4767 H         1 RES1    0.0000
     48 C23       13.6992    4.0845   -0.1673 C.ar      1 RES1    0.0000
     49 C24       14.1814    4.8843    1.0297 C.3       1 RES1    0.0000
     50 H26       14.8835    4.3596    1.4888 H         1 RES1    0.0000
     51 H27       14.6032    5.7142    0.6961 H         1 RES1    0.0000
     52 C25       12.6971    2.3656    4.3437 C.3       1 RES1    0.0000
     53 H28       13.0001    3.2830    4.5054 H         1 RES1    0.0000
     54 H29       12.6287    1.8892    5.1977 H         1 RES1    0.0000
     55 H30       11.8188    2.3832    3.9088 H         1 RES1    0.0000
     56 N1         9.0886    3.2951    1.0917 N.am      1 RES1    0.0000
     57 N2        11.9134    5.1925    1.6670 N.2       1 RES1    0.0000
     58 O1         9.4631    3.3084    3.3168 O.2       1 RES1    0.0000
     59 O2        11.0313    5.6490    2.7013 O.3       1 RES1    0.0000
     60 O3        13.7687    2.3893    2.1668 O.3       1 RES1    0.0000
     61 O4        12.2015    1.0610    1.2892 O.2       1 RES1    0.0000
     62 O5        11.9395    1.0238   -1.2394 O.3       1 RES1    0.0000
     63 O6        13.7996    4.6034   -3.7480 O.3       1 RES1    0.0000
     64 H31       13.5248    4.0690   -4.3864 H         1 RES1    0.0000
     65 H32       11.7672    0.7708   -0.3810 H         1 RES1    0.0000
@<TRIPOS>BOND
     1    1    2 1
     2    3    1 1
     3    4    1 1
     4    5    4 1
     5    6    4 1
     6    7    4 1
     7    8    7 1
     8    9    7 1
     9   10    7 1
    10   11   10 1
    11   12   10 1
    12   13   10 1
    13   14   13 1
    14   15   13 1
    15   16   17 1
    16   17   18 1
    17   19   17 1
    18   20   21 1
    19   21   22 1
    20   23   21 2
    21   24   23 1
    22   25   23 1
    23   26   25 1
    24   27   25 1
    25   28   25 1
    26   29   28 1
    27   30   28 1
    28   31   28 1
    29   32   31 1
    30   33   31 2
    31   34   33 1
    32   35   33 1
    33   36   35 1
    34   37   35 1
    35   38   35 1
    36   39   38 1
    37   40   41 1
    38   41   42 ar
    39   42   43 ar
    40   43   44 1
    41   45   43 ar
    42   46   45 ar
    43   47   46 1
    44   48   41 ar
    45   49   20 1
    46   50   49 1
    47   51   49 1
    48   52   38 1
    49   53   52 1
    50   54   52 1
    51   55   52 1
    52   56    1 1
    53   57   20 2
    54   58   16 2
    55   59   17 1
    56   60   38 1
    57   61   40 2
    58   62   42 1
    59   63   45 1
    60   64   63 1
    61   65   62 1
    62   13   56 1
    63   16   56 1
    64   40   60 1
    65   46   48 ar
    66   48   49 1
    67   57   59 1
@<TRIPOS>SUBSTRUCTURE
     1 RES1 1

@<TRIPOS>CRYSIN
   9.5970   12.6365    9.9459  90.0000 110.8710  90.0000   4 1

