# MOL2 file generated by ConQuest
# Please check atom types

@<TRIPOS>MOLECULE
SOFKOO
    37    38     1
SMALL
NO_CHARGES
****
Generated from CSD

@<TRIPOS>ATOM
      1 C1         7.1121    2.7206    7.9588 C.ar      1 RES1    0.0000
      2 C2         7.4289    2.7466    6.5863 C.ar      1 RES1    0.0000
      3 C3         8.5876    3.3630    6.0950 C.ar      1 RES1    0.0000
      4 C4         9.4511    3.9505    7.0020 C.ar      1 RES1    0.0000
      5 C5         9.1341    3.9543    8.3658 C.ar      1 RES1    0.0000
      6 H1         9.7351    4.3671    8.9741 H         1 RES1    0.0000
      7 C6         7.9768    3.3798    8.8582 C.ar      1 RES1    0.0000
      8 C7         7.6690    3.6217   10.2959 C.ar      1 RES1    0.0000
      9 C8         8.6023    3.3241   11.2802 C.ar      1 RES1    0.0000
     10 H2         9.4301    2.9289   11.0331 H         1 RES1    0.0000
     11 C9         8.3491    3.5934   12.6157 C.ar      1 RES1    0.0000
     12 H3         8.9833    3.3730   13.2883 H         1 RES1    0.0000
     13 C10        7.1535    4.1878   12.9381 C.ar      1 RES1    0.0000
     14 C11        6.2112    4.5273   11.9883 C.ar      1 RES1    0.0000
     15 H4         5.3994    4.9522   12.2389 H         1 RES1    0.0000
     16 C12        6.4745    4.2366   10.6677 C.ar      1 RES1    0.0000
     17 H5         5.8339    4.4571   10.0015 H         1 RES1    0.0000
     18 C13        5.9457    1.9157    8.3586 C.2       1 RES1    0.0000
     19 C14        4.7671    0.7996   10.0630 C.3       1 RES1    0.0000
     20 H6         4.8366    0.6126   11.0221 H         1 RES1    0.0000
     21 H7         4.7510   -0.0450    9.5653 H         1 RES1    0.0000
     22 H8         3.9421    1.2993    9.8863 H         1 RES1    0.0000
     23 C15        8.8457    3.3699    4.6138 C.3       1 RES1    0.0000
     24 H9         9.6884    3.8361    4.4308 H         1 RES1    0.0000
     25 H10        8.1115    3.8300    4.1564 H         1 RES1    0.0000
     26 H11        8.9055    2.4475    4.2881 H         1 RES1    0.0000
     27 C16       10.7286    4.6165    6.5478 C.3       1 RES1    0.0000
     28 H12       10.8142    4.5288    5.5762 H         1 RES1    0.0000
     29 H13       11.4934    4.1870    6.9837 H         1 RES1    0.0000
     30 H14       10.7061    5.5664    6.7889 H         1 RES1    0.0000
     31 N1         6.8514    4.4388   14.3554 N.pl3     1 RES1    0.0000
     32 O1         5.9051    1.5846    9.6410 O.3       1 RES1    0.0000
     33 O2         5.0982    1.5274    7.5857 O.2       1 RES1    0.0000
     34 O3         6.6282    2.1622    5.6644 O.3       1 RES1    0.0000
     35 O4         7.6290    4.0222   15.1928 O.2       1 RES1    0.0000
     36 O5         5.8275    5.0552   14.6233 O.2       1 RES1    0.0000
     37 H15        5.9081    1.8539    6.0358 H         1 RES1    0.0000
@<TRIPOS>BOND
     1    1    2 ar
     2    2    3 ar
     3    3    4 ar
     4    4    5 ar
     5    5    6 1
     6    7    1 ar
     7    8    7 1
     8    9    8 ar
     9   10    9 1
    10   11    9 ar
    11   12   11 1
    12   13   11 ar
    13   14   13 ar
    14   15   14 1
    15   16    8 ar
    16   17   16 1
    17   18    1 1
    18   19   20 1
    19   21   19 1
    20   22   19 1
    21   23    3 1
    22   24   23 1
    23   25   23 1
    24   26   23 1
    25   27    4 1
    26   28   27 1
    27   29   27 1
    28   30   27 1
    29   31   13 1
    30   32   18 1
    31   33   18 2
    32   34    2 1
    33   35   31 2
    34   36   31 2
    35   37   34 1
    36    5    7 ar
    37   14   16 ar
    38   19   32 1
@<TRIPOS>SUBSTRUCTURE
     1 RES1 1

@<TRIPOS>CRYSIN
  13.5390    7.6294   13.8700  90.0000  98.5000  90.0000 231 1

