# MOL2 file generated by ConQuest
# Please check atom types

@<TRIPOS>MOLECULE
SOFLEF
    35    37     1
SMALL
NO_CHARGES
****
Generated from CSD

@<TRIPOS>ATOM
      1 C1         1.8368    0.9761   17.4576 C.2       1 RES1    0.0000
      2 C2         0.7195    0.1123   17.1626 C.2       1 RES1    0.0000
      3 O1         0.0992   -0.6454   17.8541 O.2       1 RES1    0.0000
      4 N1         2.1439    1.6199   16.3592 N.pl3     1 RES1    0.0000
      5 O2         3.0193    2.4858   16.1278 O.2       1 RES1    0.0000
      6 N2         1.3659    1.1666   15.2353 N.3       1 RES1    0.0000
      7 O3         0.4121    0.2769   15.8276 O.3       1 RES1    0.0000
      8 C3         2.5510    1.1380   18.7469 C.3       1 RES1    0.0000
      9 H1         3.3897    1.5953   18.5789 H         1 RES1    0.0000
     10 H2         2.7616    0.2584   19.0959 H         1 RES1    0.0000
     11 C4         1.7825    1.9079   19.8059 C.ar      1 RES1    0.0000
     12 C5         2.2678    1.9205   21.1114 C.ar      1 RES1    0.0000
     13 H3         3.0343    1.4387   21.3265 H         1 RES1    0.0000
     14 C6         1.6126    2.6492   22.0916 C.ar      1 RES1    0.0000
     15 H4         1.9432    2.6527   22.9602 H         1 RES1    0.0000
     16 C7         0.4774    3.3668   21.7929 C.ar      1 RES1    0.0000
     17 H5         0.0446    3.8552   22.4547 H         1 RES1    0.0000
     18 C8        -0.0141    3.3562   20.5054 C.ar      1 RES1    0.0000
     19 H6        -0.7803    3.8402   20.2983 H         1 RES1    0.0000
     20 C9         0.6309    2.6254   19.5169 C.ar      1 RES1    0.0000
     21 H7         0.2880    2.6164   18.6532 H         1 RES1    0.0000
     22 C10        0.6223    2.3137   14.6255 C.3       1 RES1    0.0000
     23 H8         0.0717    1.9758   13.9006 H         1 RES1    0.0000
     24 H9         1.2650    2.9297   14.2405 H         1 RES1    0.0000
     25 C11       -0.2546    3.0704   15.5820 C.ar      1 RES1    0.0000
     26 C12       -1.5404    2.6193   15.8673 C.ar      1 RES1    0.0000
     27 H10       -1.8628    1.8493   15.4572 H         1 RES1    0.0000
     28 C13       -2.3426    3.3111   16.7602 C.ar      1 RES1    0.0000
     29 H11       -3.2006    3.0049   16.9452 H         1 RES1    0.0000
     30 C14       -1.8717    4.4549   17.3768 C.ar      1 RES1    0.0000
     31 H12       -2.4116    4.9143   17.9791 H         1 RES1    0.0000
     32 C15       -0.5996    4.9160   17.0998 C.ar      1 RES1    0.0000
     33 H13       -0.2826    5.6859   17.5136 H         1 RES1    0.0000
     34 C16        0.2043    4.2291   16.2032 C.ar      1 RES1    0.0000
     35 H14        1.0585    4.5454   16.0142 H         1 RES1    0.0000
@<TRIPOS>BOND
     1    1    2 1
     2    2    3 2
     3    4    1 2
     4    5    4 1
     5    6    4 1
     6    7    2 1
     7    8    1 1
     8    9    8 1
     9   10    8 1
    10   11    8 1
    11   12   11 ar
    12   13   12 1
    13   14   12 ar
    14   15   14 1
    15   16   14 ar
    16   17   16 1
    17   18   16 ar
    18   19   18 1
    19   20   11 ar
    20   21   20 1
    21   22    6 1
    22   23   22 1
    23   24   22 1
    24   25   22 1
    25   26   25 ar
    26   27   26 1
    27   28   26 ar
    28   29   28 1
    29   30   28 ar
    30   31   30 1
    31   32   30 ar
    32   33   32 1
    33   34   25 ar
    34   35   34 1
    35    6    7 1
    36   18   20 ar
    37   32   34 ar
@<TRIPOS>SUBSTRUCTURE
     1 RES1 1

@<TRIPOS>CRYSIN
  10.8680    8.8483   28.5610  90.0000  90.0000  90.0000  61 1

