# MOL2 file generated by ConQuest
# Please check atom types

@<TRIPOS>MOLECULE
SOFQAF
    98   103     3
SMALL
NO_CHARGES
****
Generated from CSD

@<TRIPOS>ATOM
      1 O1         2.0427    3.2451    8.4960 O.2       1 RES1    0.0000
      2 O2         1.5793    1.2422    7.8538 O.2       1 RES1    0.0000
      3 O3         4.7854   -1.6379    5.9399 O.2       1 RES1    0.0000
      4 O4         6.8495   -1.0336    5.8063 O.2       1 RES1    0.0000
      5 O5         7.1190    6.2785    4.3423 O.2       2 RES2    0.0000
      6 O6         5.2160    6.8613    5.1567 O.2       2 RES2    0.0000
      7 O7         1.6138    3.8708    5.2139 O.2       2 RES2    0.0000
      8 O8         1.6631    1.9354    4.2725 O.2       2 RES2    0.0000
      9 N1         5.3836    5.2111    8.1783 N.2       1 RES1    0.0000
     10 N2         4.3894    4.2480    8.0810 N.3       1 RES1    0.0000
     11 N3         2.3631    2.1470    7.9823 N.pl3     1 RES1    0.0000
     12 N4         5.6909   -0.8312    6.0869 N.pl3     1 RES1    0.0000
     13 N5         4.8364    0.0123    3.0089 N.2       2 RES2    0.0000
     14 N6         3.9079    0.9631    3.3957 N.3       2 RES2    0.0000
     15 N7         5.9522    6.0362    4.6222 N.pl3     2 RES2    0.0000
     16 N8         2.1676    2.9844    4.5932 N.pl3     2 RES2    0.0000
     17 C1         4.9892    6.3767    8.5658 C.2       1 RES1    0.0000
     18 C2         5.9226    7.4563    8.8368 C.2       1 RES1    0.0000
     19 C3         5.2669    8.4992    9.3372 C.2       1 RES1    0.0000
     20 C4         3.7715    8.2753    9.4114 C.3       1 RES1    0.0000
     21 C5         3.1191    8.6249   10.7930 C.3       1 RES1    0.0000
     22 C6         2.1988    9.8088   10.5324 C.3       1 RES1    0.0000
     23 C7         1.7436    9.5972    9.0989 C.3       1 RES1    0.0000
     24 C8         3.0336    9.1985    8.4017 C.3       1 RES1    0.0000
     25 C9         2.8972    8.3826    7.1122 C.3       1 RES1    0.0000
     26 C10        2.6573    6.9288    7.6571 C.3       1 RES1    0.0000
     27 C11        3.5825    6.8214    8.8947 C.3       1 RES1    0.0000
     28 C12        7.3852    7.3306    8.5361 C.3       1 RES1    0.0000
     29 C13        1.0435   10.7934    8.4901 C.3       1 RES1    0.0000
     30 C14        4.6918    2.9905    7.6363 C.ar      1 RES1    0.0000
     31 C15        3.7370    1.9661    7.5354 C.ar      1 RES1    0.0000
     32 C16        4.0443    0.7147    7.0216 C.ar      1 RES1    0.0000
     33 C17        5.3277    0.4815    6.6371 C.ar      1 RES1    0.0000
     34 C18        6.3368    1.4477    6.7558 C.ar      1 RES1    0.0000
     35 C19        6.0179    2.6868    7.2629 C.ar      1 RES1    0.0000
     36 C20        4.3237   -1.1134    2.6095 C.2       2 RES2    0.0000
     37 C21        5.1766   -2.1746    2.1596 C.2       2 RES2    0.0000
     38 C22        4.4338   -3.1684    1.7216 C.2       2 RES2    0.0000
     39 C23        2.9498   -2.9322    1.7892 C.3       2 RES2    0.0000
     40 C24        2.1610   -3.0948    0.4670 C.3       2 RES2    0.0000
     41 C25        1.2243   -4.3094    0.7016 C.3       2 RES2    0.0000
     42 C26        0.9186   -4.2204    2.1923 C.3       2 RES2    0.0000
     43 C27        2.2547   -3.8800    2.8033 C.3       2 RES2    0.0000
     44 C28        2.2711   -3.1531    4.1240 C.3       2 RES2    0.0000
     45 C29        2.0854   -1.7084    3.7788 C.3       2 RES2    0.0000
     46 C30        2.8693   -1.5060    2.4700 C.3       2 RES2    0.0000
     47 C31        6.6753   -2.0918    2.2064 C.3       2 RES2    0.0000
     48 C32        0.2761   -5.4749    2.7573 C.3       2 RES2    0.0000
     49 C33        4.3631    2.2114    3.7061 C.ar      2 RES2    0.0000
     50 C34        3.5924    3.2297    4.2733 C.ar      2 RES2    0.0000
     51 C35        4.0821    4.4934    4.5524 C.ar      2 RES2    0.0000
     52 C36        5.4116    4.7235    4.2896 C.ar      2 RES2    0.0000
     53 C37        6.2513    3.7634    3.7261 C.ar      2 RES2    0.0000
     54 C38        5.7402    2.5151    3.4529 C.ar      2 RES2    0.0000
     55 H1         3.4215    4.2941    8.4114 H         1 RES1    0.0000
     56 H2         2.8496    0.5950    3.6029 H         2 RES2    0.0000
     57 H3         5.8355    9.5236    9.4834 H         1 RES1    0.0000
     58 H4         2.5636    7.6495   11.1924 H         1 RES1    0.0000
     59 H5         3.7600    8.5728   11.6973 H         1 RES1    0.0000
     60 H6         1.4429    9.7966   11.0425 H         1 RES1    0.0000
     61 H7         2.7395   10.7474   10.3936 H         1 RES1    0.0000
     62 H8         0.9811    8.8979    9.1107 H         1 RES1    0.0000
     63 H9         3.6515   10.1309    8.1152 H         1 RES1    0.0000
     64 H10        3.8537    8.5881    6.6133 H         1 RES1    0.0000
     65 H11        2.2251    8.5881    6.6096 H         1 RES1    0.0000
     66 H12        1.6549    7.0545    7.6475 H         1 RES1    0.0000
     67 H13        2.8249    6.1344    6.9362 H         1 RES1    0.0000
     68 H14        3.0303    6.1405    9.2525 H         1 RES1    0.0000
     69 H15        7.7648    7.4471    7.4611 H         1 RES1    0.0000
     70 H16        7.8026    6.4441    8.9467 H         1 RES1    0.0000
     71 H17        7.8914    7.8581    9.1323 H         1 RES1    0.0000
     72 H18        1.5431   11.6553    8.4055 H         1 RES1    0.0000
     73 H19        0.2383   11.0449    8.9578 H         1 RES1    0.0000
     74 H20        1.1881   10.7351    7.3616 H         1 RES1    0.0000
     75 H21        3.2456    0.0000    6.7655 Du        3 SUP3    0.0000
     76 H22        7.3146    1.2269    6.4938 H         1 RES1    0.0000
     77 H23        6.7410    3.4107    7.4470 H         1 RES1    0.0000
     78 H24        4.8807   -3.6806    1.2970 H         2 RES2    0.0000
     79 H25        1.3903   -2.4537    0.1930 H         2 RES2    0.0000
     80 H26        2.8594   -3.0794   -0.2613 H         2 RES2    0.0000
     81 H27        2.0328   -4.9075    0.5189 H         2 RES2    0.0000
     82 H28        0.3911   -3.9873   -0.0809 H         2 RES2    0.0000
     83 H29        0.1643   -3.3831    2.4225 H         2 RES2    0.0000
     84 H30        2.7838   -4.7235    2.8857 H         2 RES2    0.0000
     85 H31        3.0139   -3.6683    4.6853 H         2 RES2    0.0000
     86 H32        1.6269   -3.6683    4.6727 H         2 RES2    0.0000
     87 H33        1.1125   -1.5152    3.6370 H         2 RES2    0.0000
     88 H34        2.3878   -1.1134    4.6110 H         2 RES2    0.0000
     89 H35        2.4962   -0.9232    1.5828 H         2 RES2    0.0000
     90 H36        6.9152   -1.2299    1.9102 H         2 RES2    0.0000
     91 H37        7.1190   -3.0794    1.8679 H         2 RES2    0.0000
     92 H38        7.2357   -2.1654    3.0164 H         2 RES2    0.0000
     93 H39        0.5555   -6.4564    2.6318 H         2 RES2    0.0000
     94 H40        0.2366   -5.5025    3.7603 H         2 RES2    0.0000
     95 H41       -0.5785   -5.8430    2.1582 H         2 RES2    0.0000
     96 H42        3.4839    5.2050    5.0045 H         2 RES2    0.0000
     97 H43        7.3573    4.0027    3.4098 H         2 RES2    0.0000
     98 H44        6.2414    1.5489    3.4366 H         2 RES2    0.0000
@<TRIPOS>BOND
     1    1   11 2
     2    2   11 2
     3    3   12 2
     4    4   12 2
     5    5   15 2
     6    6   15 2
     7    7   16 2
     8    8   16 2
     9    9   10 1
    10   10   30 1
    11   11   31 1
    12   12   33 1
    13   13   14 1
    14   14   49 1
    15   15   52 1
    16   16   50 1
    17   17    9 2
    18   18   17 1
    19   19   18 2
    20   20   19 1
    21   21   20 1
    22   22   21 1
    23   23   22 1
    24   24   20 1
    25   25   24 1
    26   26   25 1
    27   27   17 1
    28   28   18 1
    29   29   23 1
    30   30   31 ar
    31   31   32 ar
    32   32   33 ar
    33   33   34 ar
    34   34   35 ar
    35   35   30 ar
    36   36   13 2
    37   37   36 1
    38   38   37 2
    39   39   38 1
    40   40   39 1
    41   41   40 1
    42   42   41 1
    43   43   39 1
    44   44   43 1
    45   45   44 1
    46   46   36 1
    47   47   37 1
    48   48   42 1
    49   49   50 ar
    50   50   51 ar
    51   51   52 ar
    52   52   53 ar
    53   53   54 ar
    54   54   49 ar
    55   55   10 1
    56   56   14 1
    57   57   19 1
    58   58   21 1
    59   59   21 1
    60   60   22 1
    61   61   22 1
    62   62   23 1
    63   63   24 1
    64   64   25 1
    65   65   25 1
    66   66   26 1
    67   67   26 1
    68   68   27 1
    69   69   28 1
    70   70   28 1
    71   71   28 1
    72   72   29 1
    73   73   29 1
    74   74   29 1
    75   76   34 1
    76   77   35 1
    77   78   38 1
    78   79   40 1
    79   80   40 1
    80   81   41 1
    81   82   41 1
    82   83   42 1
    83   84   43 1
    84   85   44 1
    85   86   44 1
    86   87   45 1
    87   88   45 1
    88   89   46 1
    89   90   47 1
    90   91   47 1
    91   92   47 1
    92   93   48 1
    93   94   48 1
    94   95   48 1
    95   96   51 1
    96   97   53 1
    97   98   54 1
    98   20   27 1
    99   23   24 1
   100   26   27 1
   101   39   46 1
   102   42   43 1
   103   45   46 1
@<TRIPOS>SUBSTRUCTURE
     1 RES1 1
     2 RES2 5
     3 SUP3 75

@<TRIPOS>CRYSIN
  16.4335   30.6718    7.4240  90.0000  90.0000  90.0000  18 1

