# MOL2 file generated by ConQuest
# Please check atom types

@<TRIPOS>MOLECULE
SOGROW
   102   106     2
SMALL
NO_CHARGES
****
Generated from CSD

@<TRIPOS>ATOM
      1 C1         2.5479    0.3515    3.3838 C.ar      1 RES1    0.0000
      2 C2         1.7660    0.3093    4.5464 C.ar      1 RES1    0.0000
      3 H1         0.8520    0.1403    4.4947 H         1 RES1    0.0000
      4 C3         2.3716    0.5205    5.7737 C.ar      1 RES1    0.0000
      5 H2         1.8607    0.4813    6.5501 H         1 RES1    0.0000
      6 C4         3.7116    0.7845    5.8594 C.ar      1 RES1    0.0000
      7 C5         4.4967    0.7906    4.7319 C.ar      1 RES1    0.0000
      8 H3         5.4124    0.9429    4.8050 H         1 RES1    0.0000
      9 C6         3.9336    0.5718    3.4840 C.ar      1 RES1    0.0000
     10 C7         4.8329    0.5824    2.3471 C.2       1 RES1    0.0000
     11 H4         5.7258    0.7845    2.5059 H         1 RES1    0.0000
     12 C8         5.4613    0.3711    0.1155 C.ar      1 RES1    0.0000
     13 C9         6.1534   -0.7875   -0.2246 C.ar      1 RES1    0.0000
     14 C10        7.0691   -0.7513   -1.2413 C.ar      1 RES1    0.0000
     15 H5         7.5326   -1.5253   -1.4682 H         1 RES1    0.0000
     16 C11        7.3123    0.4013   -1.9287 C.ar      1 RES1    0.0000
     17 H6         7.9521    0.4179   -2.6027 H         1 RES1    0.0000
     18 C12        6.6153    1.5238   -1.6250 C.ar      1 RES1    0.0000
     19 H7         6.7671    2.2962   -2.1189 H         1 RES1    0.0000
     20 C13        5.6768    1.5509   -0.5853 C.ar      1 RES1    0.0000
     21 C14        5.8841   -2.0624    0.5239 C.3       1 RES1    0.0000
     22 H8         6.2840   -2.8001    0.0567 H         1 RES1    0.0000
     23 H9         4.9358   -2.2012    0.5906 H         1 RES1    0.0000
     24 H10        6.2595   -2.0020    1.4048 H         1 RES1    0.0000
     25 C15        4.9064    2.7836   -0.2369 C.3       1 RES1    0.0000
     26 H11        3.9679    2.5784   -0.2169 H         1 RES1    0.0000
     27 H12        5.0712    3.4610   -0.8976 H         1 RES1    0.0000
     28 H13        5.1839    3.1019    0.6240 H         1 RES1    0.0000
     29 C16        0.5517    0.0317    1.9697 C.ar      1 RES1    0.0000
     30 C17       -0.3003    1.1089    2.1602 C.ar      1 RES1    0.0000
     31 C18       -1.6485    0.9097    2.0027 C.ar      1 RES1    0.0000
     32 H14       -2.2345    1.6143    2.1622 H         1 RES1    0.0000
     33 C19       -2.1496   -0.3138    1.6110 C.ar      1 RES1    0.0000
     34 H15       -3.0653   -0.4330    1.4949 H         1 RES1    0.0000
     35 C20       -1.2796   -1.3518    1.3948 C.ar      1 RES1    0.0000
     36 H16       -1.6191   -2.1740    1.1212 H         1 RES1    0.0000
     37 C21        0.0783   -1.2175    1.5696 C.ar      1 RES1    0.0000
     38 C22        1.0332   -2.3596    1.3344 C.3       1 RES1    0.0000
     39 H17        0.5419   -3.1351    1.0544 H         1 RES1    0.0000
     40 H18        1.5049   -2.5557    2.1489 H         1 RES1    0.0000
     41 H19        1.6616   -2.1167    0.6507 H         1 RES1    0.0000
     42 C23        0.2350    2.4758    2.5326 C.3       1 RES1    0.0000
     43 H20       -0.4603    3.1306    2.4292 H         1 RES1    0.0000
     44 H21        0.9695    2.6991    1.9554 H         1 RES1    0.0000
     45 H22        0.5337    2.4652    3.4436 H         1 RES1    0.0000
     46 C24        6.2774   12.4136    9.4625 C.ar      2 RES2    0.0000
     47 C25        6.6104   11.0980    9.0814 C.ar      2 RES2    0.0000
     48 H23        6.3852   10.7827    8.2352 H         2 RES2    0.0000
     49 C26        7.2649   10.2954    9.9644 C.ar      2 RES2    0.0000
     50 H24        7.4461    9.4113    9.7368 H         2 RES2    0.0000
     51 C27        7.6648   10.7872   11.2070 C.ar      2 RES2    0.0000
     52 C28        7.3547   12.0409   11.5994 C.ar      2 RES2    0.0000
     53 H25        7.6142   12.3427   12.4396 H         2 RES2    0.0000
     54 C29        6.6333   12.9039   10.7291 C.ar      2 RES2    0.0000
     55 C30        6.2611   14.1788   11.2433 C.2       2 RES2    0.0000
     56 H26        6.4896   14.3930   12.1193 H         2 RES2    0.0000
     57 C31        5.2051   16.2517   11.2010 C.ar      2 RES2    0.0000
     58 C32        4.0185   16.2396   11.8937 C.ar      2 RES2    0.0000
     59 C33        3.6365   17.4195   12.5163 C.ar      2 RES2    0.0000
     60 H27        2.8531   17.4376   13.0169 H         2 RES2    0.0000
     61 C34        4.3874   18.5570   12.4096 C.ar      2 RES2    0.0000
     62 H28        4.1164   19.3325   12.8467 H         2 RES2    0.0000
     63 C35        5.5201   18.5570   11.6721 C.ar      2 RES2    0.0000
     64 H29        6.0065   19.3461   11.5920 H         2 RES2    0.0000
     65 C36        5.9804   17.4210   11.0331 C.ar      2 RES2    0.0000
     66 C37        7.2062   17.3817   10.1839 C.3       2 RES2    0.0000
     67 H30        7.4836   18.2779    9.9804 H         2 RES2    0.0000
     68 H31        7.0136   16.9140    9.3664 H         2 RES2    0.0000
     69 H32        7.9080   16.9261   10.6544 H         2 RES2    0.0000
     70 C38        3.1779   14.9935   11.9758 C.3       2 RES2    0.0000
     71 H33        3.0881   14.6103   11.1015 H         2 RES2    0.0000
     72 H34        2.3096   15.2167   12.3195 H         2 RES2    0.0000
     73 H35        3.6006   14.3613   12.5631 H         2 RES2    0.0000
     74 C39        5.2883   12.8737    7.2525 C.ar      2 RES2    0.0000
     75 C40        4.0642   12.4226    6.8972 C.ar      2 RES2    0.0000
     76 C41        3.7524   12.0696    5.6025 C.ar      2 RES2    0.0000
     77 H36        2.8988   11.7784    5.3789 H         2 RES2    0.0000
     78 C42        4.7970   12.1662    4.5948 C.ar      2 RES2    0.0000
     79 H37        4.6436   11.9142    3.7105 H         2 RES2    0.0000
     80 C43        6.0000   12.6339    4.9919 C.ar      2 RES2    0.0000
     81 H38        6.6643   12.7093    4.3445 H         2 RES2    0.0000
     82 C44        6.3166   13.0020    6.2598 C.ar      2 RES2    0.0000
     83 C45        7.6730   13.5315    6.5935 C.3       2 RES2    0.0000
     84 H39        8.1969   13.5949    5.7927 H         2 RES2    0.0000
     85 H40        8.1039   12.9371    7.2108 H         2 RES2    0.0000
     86 H41        7.5881   14.4021    6.9906 H         2 RES2    0.0000
     87 C46        2.9380   12.3170    7.9316 C.3       2 RES2    0.0000
     88 H42        3.1942   11.7030    8.6256 H         2 RES2    0.0000
     89 H43        2.1382   12.0002    7.5045 H         2 RES2    0.0000
     90 H44        2.7731   13.1815    8.3186 H         2 RES2    0.0000
     91 N1         4.3368    1.0304    7.1481 N.pl3     1 RES1    0.0000
     92 N2         1.9505    0.1901    2.1659 N.pl3     1 RES1    0.0000
     93 H45        2.4548    0.1841    1.4682 H         1 RES1    0.0000
     94 N3         4.4820    0.3304    1.1405 N.2       1 RES1    0.0000
     95 N4         8.3552    9.9227   12.1036 N.pl3     2 RES2    0.0000
     96 N5         5.6213   13.2192    8.5552 N.pl3     2 RES2    0.0000
     97 H46        5.3977   14.0053    8.8192 H         2 RES2    0.0000
     98 N6         5.6115   15.0568   10.5313 N.2       2 RES2    0.0000
     99 O1         3.5990    0.9550    8.1438 O.2       1 RES1    0.0000
    100 O2         5.5234    1.2643    7.2032 O.2       1 RES1    0.0000
    101 O3         8.4368    8.7324   11.8296 O.2       2 RES2    0.0000
    102 O4         8.8433   10.3753   13.1407 O.2       2 RES2    0.0000
@<TRIPOS>BOND
     1    1    2 ar
     2    2    3 1
     3    4    2 ar
     4    5    4 1
     5    6    4 ar
     6    7    6 ar
     7    8    7 1
     8    9    1 ar
     9   10    9 1
    10   11   10 1
    11   12   13 ar
    12   13   14 ar
    13   14   15 1
    14   16   14 ar
    15   17   16 1
    16   18   16 ar
    17   19   18 1
    18   20   12 ar
    19   21   13 1
    20   22   21 1
    21   23   21 1
    22   24   21 1
    23   25   20 1
    24   26   25 1
    25   27   25 1
    26   28   25 1
    27   29   30 ar
    28   30   31 ar
    29   31   32 1
    30   33   31 ar
    31   34   33 1
    32   35   33 ar
    33   36   35 1
    34   37   29 ar
    35   38   37 1
    36   39   38 1
    37   40   38 1
    38   41   38 1
    39   42   30 1
    40   43   42 1
    41   44   42 1
    42   45   42 1
    43   46   47 ar
    44   47   48 1
    45   49   47 ar
    46   50   49 1
    47   51   49 ar
    48   52   51 ar
    49   53   52 1
    50   54   46 ar
    51   55   54 1
    52   56   55 1
    53   57   58 ar
    54   58   59 ar
    55   59   60 1
    56   61   59 ar
    57   62   61 1
    58   63   61 ar
    59   64   63 1
    60   65   57 ar
    61   66   65 1
    62   67   66 1
    63   68   66 1
    64   69   66 1
    65   70   58 1
    66   71   70 1
    67   72   70 1
    68   73   70 1
    69   74   75 ar
    70   75   76 ar
    71   76   77 1
    72   78   76 ar
    73   79   78 1
    74   80   78 ar
    75   81   80 1
    76   82   74 ar
    77   83   82 1
    78   84   83 1
    79   85   83 1
    80   86   83 1
    81   87   75 1
    82   88   87 1
    83   89   87 1
    84   90   87 1
    85   91    6 1
    86   92    1 1
    87   93   92 1
    88   94   10 2
    89   95   51 1
    90   96   46 1
    91   97   96 1
    92   98   55 2
    93   99   91 2
    94  100   91 2
    95  101   95 2
    96  102   95 2
    97    7    9 ar
    98   12   94 1
    99   18   20 ar
   100   29   92 1
   101   35   37 ar
   102   52   54 ar
   103   57   98 1
   104   63   65 ar
   105   74   96 1
   106   80   82 ar
@<TRIPOS>SUBSTRUCTURE
     1 RES1 1
     2 RES2 46

@<TRIPOS>CRYSIN
  16.3220   15.0870   33.3680  90.0000  90.0000  90.0000  61 1

