# MOL2 file generated by ConQuest
# Please check atom types

@<TRIPOS>MOLECULE
SOGYIX
    36    38     1
SMALL
NO_CHARGES
****
Generated from CSD

@<TRIPOS>ATOM
      1 O1         0.1790   10.9155    5.2267 O.2       1 RES1    0.0000
      2 O2         1.4865   10.4748    3.6227 O.2       1 RES1    0.0000
      3 O3         3.9419    6.6038    3.2959 O.2       1 RES1    0.0000
      4 O4         4.9312    5.8923    5.1012 O.2       1 RES1    0.0000
      5 N1         1.3304    7.0657    8.5480 N.ar      1 RES1    0.0000
      6 N2         1.0339   10.2200    4.7233 N.pl3     1 RES1    0.0000
      7 N3         4.0228    6.4987    4.5291 N.pl3     1 RES1    0.0000
      8 N4         3.0601    5.6169    7.2740 N.pl3     1 RES1    0.0000
      9 H1         2.7821    5.5938    8.0980 H         1 RES1    0.0000
     10 C1         0.4233    7.7331    9.2431 C.ar      1 RES1    0.0000
     11 H2         0.1514    7.3865   10.0846 H         1 RES1    0.0000
     12 C2        -0.1464    8.9123    8.7982 C.ar      1 RES1    0.0000
     13 H3        -0.7771    9.3724    9.3413 H         1 RES1    0.0000
     14 C3         0.1988    9.4135    7.5788 C.ar      1 RES1    0.0000
     15 H4        -0.1839   10.2283    7.2741 H         1 RES1    0.0000
     16 C4         1.1265    8.7209    6.7680 C.ar      1 RES1    0.0000
     17 C5         1.5442    9.0601    5.4352 C.ar      1 RES1    0.0000
     18 C6         2.4412    8.2882    4.7673 C.ar      1 RES1    0.0000
     19 H5         2.6866    8.5322    3.8830 H         1 RES1    0.0000
     20 C7         3.0125    7.1529    5.3334 C.ar      1 RES1    0.0000
     21 C8         2.6517    6.7114    6.6169 C.ar      1 RES1    0.0000
     22 C9         1.6872    7.5442    7.3293 C.ar      1 RES1    0.0000
     23 C10        3.5424    4.3739    6.7760 C.ar      1 RES1    0.0000
     24 C11        3.0140    3.8226    5.6298 C.ar      1 RES1    0.0000
     25 H6         2.3503    4.2931    5.1372 H         1 RES1    0.0000
     26 C12        3.4527    2.5799    5.1957 C.ar      1 RES1    0.0000
     27 H7         3.0929    2.2106    4.3981 H         1 RES1    0.0000
     28 C13        4.4103    1.8677    5.9100 C.ar      1 RES1    0.0000
     29 C14        4.9182    2.4406    7.0733 C.ar      1 RES1    0.0000
     30 H8         5.5690    1.9679    7.5788 H         1 RES1    0.0000
     31 C15        4.4945    3.6827    7.5068 C.ar      1 RES1    0.0000
     32 H9         4.8542    4.0594    8.3016 H         1 RES1    0.0000
     33 C16        4.8859    0.5138    5.4376 C.3       1 RES1    0.0000
     34 H10        4.8501   -0.1236    6.1811 H         1 RES1    0.0000
     35 H11        5.8083    0.5863    5.1140 H         1 RES1    0.0000
     36 H12        4.3085    0.1999    4.7110 H         1 RES1    0.0000
@<TRIPOS>BOND
     1    1    6 2
     2    2    6 2
     3    3    7 2
     4    4    7 2
     5    5   10 ar
     6    6   17 1
     7    7   20 1
     8    8    9 1
     9   10   11 1
    10   12   10 ar
    11   13   12 1
    12   14   12 ar
    13   15   14 1
    14   16   14 ar
    15   17   16 ar
    16   18   17 ar
    17   19   18 1
    18   20   18 ar
    19   21    8 1
    20   22    5 ar
    21   23    8 1
    22   24   23 ar
    23   25   24 1
    24   26   24 ar
    25   27   26 1
    26   28   26 ar
    27   29   28 ar
    28   30   29 1
    29   31   23 ar
    30   32   31 1
    31   33   28 1
    32   34   33 1
    33   35   33 1
    34   36   33 1
    35   16   22 ar
    36   20   21 ar
    37   21   22 ar
    38   29   31 ar
@<TRIPOS>SUBSTRUCTURE
     1 RES1 1

@<TRIPOS>CRYSIN
   4.6669   22.4650   13.7840  90.0000  97.6010  90.0000  14 1

