# MOL2 file generated by ConQuest
# Please check atom types

@<TRIPOS>MOLECULE
SOHROX
    84    88     2
SMALL
NO_CHARGES
****
Generated from CSD

@<TRIPOS>ATOM
      1 O1        10.4039    1.7597    5.6203 O.3       1 RES1    0.0000
      2 O2         5.5794   -2.2120    1.0686 O.3       2 RES2    0.0000
      3 O3        12.0316    2.5664    9.7397 O.3       1 RES1    0.0000
      4 O4         8.4872   -3.1257   -2.3269 O.3       2 RES2    0.0000
      5 N1        11.3192    0.7864    6.0453 N.2       1 RES1    0.0000
      6 N2         5.1786   -3.3263    0.3169 N.2       2 RES2    0.0000
      7 C1        13.6741   -2.0921    9.7672 C.ar      1 RES1    0.0000
      8 H1        13.3519   -1.3685   10.2540 H         1 RES1    0.0000
      9 C2         5.9073   -7.0765   -3.2988 C.ar      2 RES2    0.0000
     10 H2         6.5812   -6.4670   -3.4967 H         2 RES2    0.0000
     11 C3        14.4539   -3.0438   10.3928 C.ar      1 RES1    0.0000
     12 H3        14.6507   -2.9601   11.2974 H         1 RES1    0.0000
     13 C4         5.8354   -8.2600   -4.0013 C.ar      2 RES2    0.0000
     14 H4         6.4603   -8.4411   -4.6651 H         2 RES2    0.0000
     15 C5        14.9459   -4.1263    9.6760 C.ar      1 RES1    0.0000
     16 H5        15.4787   -4.7619   10.0971 H         1 RES1    0.0000
     17 C6         4.8433   -9.1757   -3.7250 C.ar      2 RES2    0.0000
     18 H6         4.8044   -9.9806   -4.1900 H         2 RES2    0.0000
     19 C7        14.6433   -4.2571    8.3435 C.ar      1 RES1    0.0000
     20 H7        14.9718   -4.9824    7.8618 H         1 RES1    0.0000
     21 C8         3.9099   -8.8884   -2.7568 C.ar      2 RES2    0.0000
     22 H8         3.2326   -9.4977   -2.5729 H         2 RES2    0.0000
     23 C9        13.8504   -3.3148    7.7142 C.ar      1 RES1    0.0000
     24 H9        13.6379   -3.4203    6.8156 H         1 RES1    0.0000
     25 C10        3.9735   -7.7021   -2.0582 C.ar      2 RES2    0.0000
     26 H10        3.3280   -7.5151   -1.4156 H         2 RES2    0.0000
     27 C11       13.3654   -2.2067    8.4116 C.ar      1 RES1    0.0000
     28 C12        4.9858   -6.7801   -2.2974 C.ar      2 RES2    0.0000
     29 C13       12.5668   -1.2069    7.6948 C.2       1 RES1    0.0000
     30 H11       12.2398   -1.4537    6.8601 H         1 RES1    0.0000
     31 C14        5.0756   -5.5795   -1.4686 C.2       2 RES2    0.0000
     32 H12        4.3284   -5.3702   -0.9558 H         2 RES2    0.0000
     33 C15       12.2633    0.0134    8.1152 C.2       1 RES1    0.0000
     34 H13       12.5854    0.2852    8.9440 H         1 RES1    0.0000
     35 C16        6.1089   -4.7621   -1.3735 C.2       2 RES2    0.0000
     36 H14        6.8386   -4.9295   -1.9255 H         2 RES2    0.0000
     37 C17       11.4491    0.9580    7.3459 C.2       1 RES1    0.0000
     38 C18        6.1963   -3.6130   -0.4689 C.2       2 RES2    0.0000
     39 C19       10.6767    2.0776    7.8087 C.2       1 RES1    0.0000
     40 C20        7.2878   -2.7050   -0.2738 C.2       2 RES2    0.0000
     41 C21       10.0166    2.5035    6.6976 C.2       1 RES1    0.0000
     42 C22        6.8461   -1.8663    0.6917 C.2       2 RES2    0.0000
     43 C23        8.9543    3.4758    6.3748 C.ar      1 RES1    0.0000
     44 C24        7.4212   -0.7160    1.4184 C.ar      2 RES2    0.0000
     45 C25        7.7943    3.5488    7.1417 C.ar      1 RES1    0.0000
     46 H15        7.7044    3.0148    7.8979 H         1 RES1    0.0000
     47 C26        7.2190    0.5738    0.9691 C.ar      2 RES2    0.0000
     48 H16        6.6932    0.7265    0.2181 H         2 RES2    0.0000
     49 C27        6.7752    4.4123    6.7833 C.ar      1 RES1    0.0000
     50 H17        6.0057    4.4639    7.3033 H         1 RES1    0.0000
     51 C28        7.8001    1.6417    1.6368 C.ar      2 RES2    0.0000
     52 H18        7.6626    2.5097    1.3337 H         2 RES2    0.0000
     53 C29        6.8969    5.1971    5.6562 C.ar      1 RES1    0.0000
     54 H19        6.2088    5.7752    5.4167 H         1 RES1    0.0000
     55 C30        8.5789    1.4141    2.7471 C.ar      2 RES2    0.0000
     56 H20        8.9736    2.1292    3.1897 H         2 RES2    0.0000
     57 C31        8.0336    5.1272    4.8870 C.ar      1 RES1    0.0000
     58 H21        8.1120    5.6604    4.1288 H         1 RES1    0.0000
     59 C32        8.7743    0.1380    3.2029 C.ar      2 RES2    0.0000
     60 H22        9.3006   -0.0092    3.9552 H         2 RES2    0.0000
     61 C33        9.0656    4.2656    5.2337 C.ar      1 RES1    0.0000
     62 H23        9.8291    4.2168    4.7054 H         1 RES1    0.0000
     63 C34        8.1943   -0.9320    2.5505 C.ar      2 RES2    0.0000
     64 H24        8.3212   -1.7959    2.8688 H         2 RES2    0.0000
     65 C35       10.6802    2.6175    9.2263 C.3       1 RES1    0.0000
     66 C36        8.6535   -2.7505   -0.9550 C.3       2 RES2    0.0000
     67 C37       10.2154    4.0628    9.3355 C.3       1 RES1    0.0000
     68 H25       10.2379    4.3371   10.2554 H         1 RES1    0.0000
     69 H26        9.3187    4.1369    9.0009 H         1 RES1    0.0000
     70 H27       10.7964    4.6259    8.8189 H         1 RES1    0.0000
     71 C38        9.3768   -1.4223   -0.8968 C.3       2 RES2    0.0000
     72 H28       10.2292   -1.5029   -1.3309 H         2 RES2    0.0000
     73 H29        9.5074   -1.1692    0.0194 H         2 RES2    0.0000
     74 H30        8.8520   -0.7525   -1.3420 H         2 RES2    0.0000
     75 C39        9.8695    1.7049   10.1315 C.3       1 RES1    0.0000
     76 H31       10.1792    0.8016   10.0345 H         1 RES1    0.0000
     77 H32        8.9426    1.7535    9.8873 H         1 RES1    0.0000
     78 H33        9.9754    1.9837   11.0445 H         1 RES1    0.0000
     79 C40        9.4836   -3.8661   -0.3409 C.3       2 RES2    0.0000
     80 H34       10.3436   -3.8972   -0.7669 H         2 RES2    0.0000
     81 H35        9.0341   -4.7053   -0.4654 H         2 RES2    0.0000
     82 H36        9.5976   -3.7004    0.5974 H         2 RES2    0.0000
     83 H37        8.2050   -2.4096   -2.7979 H         2 RES2    0.0000
     84 H38       12.5925    2.9027    9.1454 H         1 RES1    0.0000
@<TRIPOS>BOND
     1    1    5 1
     2    2    6 1
     3    3   65 1
     4    4   66 1
     5    5   37 2
     6    6   38 2
     7    7    8 1
     8    9   10 1
     9   11    7 ar
    10   12   11 1
    11   13    9 ar
    12   14   13 1
    13   15   11 ar
    14   16   15 1
    15   17   13 ar
    16   18   17 1
    17   19   15 ar
    18   20   19 1
    19   21   17 ar
    20   22   21 1
    21   23   19 ar
    22   24   23 1
    23   25   21 ar
    24   26   25 1
    25   27    7 ar
    26   28    9 ar
    27   29   27 1
    28   30   29 1
    29   31   28 1
    30   32   31 1
    31   33   29 2
    32   34   33 1
    33   35   31 2
    34   36   35 1
    35   37   33 1
    36   38   35 1
    37   39   37 1
    38   40   38 1
    39   41    1 1
    40   42    2 1
    41   43   41 1
    42   44   42 1
    43   45   43 ar
    44   46   45 1
    45   47   44 ar
    46   48   47 1
    47   49   45 ar
    48   50   49 1
    49   51   47 ar
    50   52   51 1
    51   53   49 ar
    52   54   53 1
    53   55   51 ar
    54   56   55 1
    55   57   53 ar
    56   58   57 1
    57   59   55 ar
    58   60   59 1
    59   61   43 ar
    60   62   61 1
    61   63   44 ar
    62   64   63 1
    63   65   39 1
    64   66   40 1
    65   67   65 1
    66   68   67 1
    67   69   67 1
    68   70   67 1
    69   71   66 1
    70   72   71 1
    71   73   71 1
    72   74   71 1
    73   75   65 1
    74   76   75 1
    75   77   75 1
    76   78   75 1
    77   79   66 1
    78   80   79 1
    79   81   79 1
    80   82   79 1
    81   83    4 1
    82   84    3 1
    83   23   27 ar
    84   25   28 ar
    85   39   41 2
    86   40   42 2
    87   57   61 ar
    88   59   63 ar
@<TRIPOS>SUBSTRUCTURE
     1 RES1 1
     2 RES2 2

@<TRIPOS>CRYSIN
  10.5770   12.3573   15.0578  70.1130  73.0430  69.0100   2 1

