# MOL2 file generated by ConQuest
# Please check atom types

@<TRIPOS>MOLECULE
SOHXUJ
    47    48     1
SMALL
NO_CHARGES
****
Generated from CSD

@<TRIPOS>ATOM
      1 O1         3.7328    0.5261   15.9875 O.2       1 RES1    0.0000
      2 O2         6.4413    4.8322   17.8375 O.3       1 RES1    0.0000
      3 N1         4.2285    3.5807   13.5454 N.2       1 RES1    0.0000
      4 N2         4.3904    1.5546   16.4613 N.pl3     1 RES1    0.0000
      5 C1         4.0770    2.6105   14.3145 C.2       1 RES1    0.0000
      6 H1         3.5980    1.8432   14.0231 H         1 RES1    0.0000
      7 C2         4.6307    2.6549   15.6471 C.ar      1 RES1    0.0000
      8 C3         5.3198    3.7235   16.1448 C.ar      1 RES1    0.0000
      9 H2         5.5003    4.4671   15.5820 H         1 RES1    0.0000
     10 C4         5.7533    3.7405   17.4356 C.ar      1 RES1    0.0000
     11 C5         5.4714    2.6518   18.2383 C.ar      1 RES1    0.0000
     12 H3         5.7467    2.6457   19.1468 H         1 RES1    0.0000
     13 C6         4.7919    1.5796   17.7180 C.ar      1 RES1    0.0000
     14 H4         4.6052    0.8347   18.2780 H         1 RES1    0.0000
     15 C7         6.7533    4.9349   19.1997 C.3       1 RES1    0.0000
     16 H5         7.3161    4.1779   19.4650 H         1 RES1    0.0000
     17 H6         5.9264    4.9264   19.7260 H         1 RES1    0.0000
     18 H7         7.2347    5.7733   19.3613 H         1 RES1    0.0000
     19 C8         3.6128    3.5109   12.2826 C.ar      1 RES1    0.0000
     20 C9         2.4434    4.2690   12.0716 C.ar      1 RES1    0.0000
     21 C10        1.8494    4.2356   10.8659 C.ar      1 RES1    0.0000
     22 H8         1.0607    4.7447   10.7194 H         1 RES1    0.0000
     23 C11        2.3626    3.4750    9.8291 C.ar      1 RES1    0.0000
     24 H9         1.9185    3.4428    8.9888 H         1 RES1    0.0000
     25 C12        3.5281    2.7624   10.0293 C.ar      1 RES1    0.0000
     26 H10        3.8925    2.2563    9.3106 H         1 RES1    0.0000
     27 C13        4.1747    2.7685   11.2446 C.ar      1 RES1    0.0000
     28 C14        1.8500    5.0777   13.2129 C.3       1 RES1    0.0000
     29 H11        2.5732    5.2484   13.8837 H         1 RES1    0.0000
     30 C15        0.7449    4.2484   13.9016 C.3       1 RES1    0.0000
     31 H12        0.0143    4.0880   13.2687 H         1 RES1    0.0000
     32 H13        0.4022    4.7405   14.6774 H         1 RES1    0.0000
     33 H14        1.1163    3.3912   14.1983 H         1 RES1    0.0000
     34 C16        1.2903    6.4197   12.7681 C.3       1 RES1    0.0000
     35 H15        0.5392    6.2733   12.1567 H         1 RES1    0.0000
     36 H16        1.9901    6.9306   12.3105 H         1 RES1    0.0000
     37 H17        0.9792    6.9190   13.5512 H         1 RES1    0.0000
     38 C17        5.4682    1.9763   11.4237 C.3       1 RES1    0.0000
     39 H18        5.8848    2.2545   12.2890 H         1 RES1    0.0000
     40 C18        5.1678    0.4775   11.5024 C.3       1 RES1    0.0000
     41 H19        6.0013   -0.0158   11.6526 H         1 RES1    0.0000
     42 H20        4.7585    0.1816   10.6621 H         1 RES1    0.0000
     43 H21        4.5509    0.3068   12.2461 H         1 RES1    0.0000
     44 C19        6.4643    2.2569   10.3082 C.3       1 RES1    0.0000
     45 H22        6.0947    1.9495    9.4536 H         1 RES1    0.0000
     46 H23        7.3021    1.7819   10.4905 H         1 RES1    0.0000
     47 H24        6.6382    3.2199   10.2617 H         1 RES1    0.0000
@<TRIPOS>BOND
     1    1    4 1
     2    2   10 1
     3    3    5 2
     4    4    7 ar
     5    5    6 1
     6    7    5 1
     7    8    7 ar
     8    9    8 1
     9   10    8 ar
    10   11   10 ar
    11   12   11 1
    12   13    4 ar
    13   14   13 1
    14   15    2 1
    15   16   15 1
    16   17   15 1
    17   18   15 1
    18   19    3 1
    19   20   19 ar
    20   21   20 ar
    21   22   21 1
    22   23   21 ar
    23   24   23 1
    24   25   23 ar
    25   26   25 1
    26   27   19 ar
    27   28   20 1
    28   29   28 1
    29   30   28 1
    30   31   30 1
    31   32   30 1
    32   33   30 1
    33   34   28 1
    34   35   34 1
    35   36   34 1
    36   37   34 1
    37   38   27 1
    38   39   38 1
    39   40   38 1
    40   41   40 1
    41   42   40 1
    42   43   40 1
    43   44   38 1
    44   45   44 1
    45   46   44 1
    46   47   44 1
    47   11   13 ar
    48   25   27 ar
@<TRIPOS>SUBSTRUCTURE
     1 RES1 1

@<TRIPOS>CRYSIN
   7.7362    6.0752   35.7580  90.0000  90.7400  90.0000 231 1

