# MOL2 file generated by ConQuest
# Please check atom types

@<TRIPOS>MOLECULE
SOHXOD
    45    46     1
SMALL
NO_CHARGES
****
Generated from CSD

@<TRIPOS>ATOM
      1 O1         2.5112    4.8770    7.5108 O.2       1 RES1    0.0000
      2 O2        -0.0906   -0.5035    6.0120 O.2       1 RES1    0.0000
      3 O3        -0.3976   -0.5090    8.1622 O.2       1 RES1    0.0000
      4 N1         3.1171    2.9080    4.1375 N.2       1 RES1    0.0000
      5 N2         1.9722    3.7092    7.4158 N.pl3     1 RES1    0.0000
      6 N3         0.0463   -0.0079    7.1311 N.pl3     1 RES1    0.0000
      7 C1         2.7649    3.6179    5.1229 C.2       1 RES1    0.0000
      8 H1         2.9752    4.5446    5.1433 H         1 RES1    0.0000
      9 C2         2.0293    3.0029    6.2357 C.ar      1 RES1    0.0000
     10 C3         1.4054    1.7749    6.1402 C.ar      1 RES1    0.0000
     11 H2         1.4227    1.2902    5.3231 H         1 RES1    0.0000
     12 C4         0.7588    1.2604    7.2393 C.ar      1 RES1    0.0000
     13 C5         0.7409    1.9514    8.4401 C.ar      1 RES1    0.0000
     14 H3         0.3102    1.5861    9.2047 H         1 RES1    0.0000
     15 C6         1.3537    3.1667    8.5012 C.ar      1 RES1    0.0000
     16 H4         1.3494    3.6471    9.3209 H         1 RES1    0.0000
     17 C7         3.7810    3.5692    3.0538 C.ar      1 RES1    0.0000
     18 C8         3.0378    4.2864    2.1083 C.ar      1 RES1    0.0000
     19 C9         3.7194    4.8880    1.0521 C.ar      1 RES1    0.0000
     20 H5         3.2318    5.3830    0.4046 H         1 RES1    0.0000
     21 C10        5.0843    4.7778    0.9304 C.ar      1 RES1    0.0000
     22 H6         5.5358    5.2034    0.2108 H         1 RES1    0.0000
     23 C11        5.8021    4.0411    1.8650 C.ar      1 RES1    0.0000
     24 H7         6.7444    3.9668    1.7718 H         1 RES1    0.0000
     25 C12        5.1762    3.4127    2.9293 C.ar      1 RES1    0.0000
     26 C13        1.5214    4.4094    2.1758 C.3       1 RES1    0.0000
     27 H8         1.2025    3.8785    2.9607 H         1 RES1    0.0000
     28 C14        1.0897    5.8567    2.3802 C.3       1 RES1    0.0000
     29 H9         1.3677    6.3925    1.6075 H         1 RES1    0.0000
     30 H10        1.5095    6.2111    3.1917 H         1 RES1    0.0000
     31 H11        0.1149    5.8969    2.4725 H         1 RES1    0.0000
     32 C15        0.8820    3.8261    0.9205 C.3       1 RES1    0.0000
     33 H12        1.2204    4.2992    0.1318 H         1 RES1    0.0000
     34 H13       -0.0908    3.9296    0.9719 H         1 RES1    0.0000
     35 H14        1.1066    2.8745    0.8510 H         1 RES1    0.0000
     36 C16        5.9543    2.5384    3.9052 C.3       1 RES1    0.0000
     37 H15        5.5430    2.6474    4.8101 H         1 RES1    0.0000
     38 C17        7.4385    2.9037    4.0172 C.3       1 RES1    0.0000
     39 H16        7.5250    3.8590    4.2179 H         1 RES1    0.0000
     40 H17        7.8886    2.7058    3.1700 H         1 RES1    0.0000
     41 H18        7.8505    2.3807    4.7356 H         1 RES1    0.0000
     42 C18        5.8053    1.0673    3.4952 C.3       1 RES1    0.0000
     43 H19        6.1578    0.9425    2.5903 H         1 RES1    0.0000
     44 H20        4.8567    0.8177    3.5141 H         1 RES1    0.0000
     45 H21        6.3036    0.5011    4.1202 H         1 RES1    0.0000
@<TRIPOS>BOND
     1    1    5 1
     2    2    6 2
     3    3    6 2
     4    4    7 2
     5    5    9 ar
     6    6   12 1
     7    7    8 1
     8    9    7 1
     9   10    9 ar
    10   11   10 1
    11   12   10 ar
    12   13   12 ar
    13   14   13 1
    14   15    5 ar
    15   16   15 1
    16   17    4 1
    17   18   17 ar
    18   19   18 ar
    19   20   19 1
    20   21   19 ar
    21   22   21 1
    22   23   21 ar
    23   24   23 1
    24   25   17 ar
    25   26   18 1
    26   27   26 1
    27   28   26 1
    28   29   28 1
    29   30   28 1
    30   31   28 1
    31   32   26 1
    32   33   32 1
    33   34   32 1
    34   35   32 1
    35   36   25 1
    36   37   36 1
    37   38   36 1
    38   39   38 1
    39   40   38 1
    40   41   38 1
    41   42   36 1
    42   43   42 1
    43   44   42 1
    44   45   42 1
    45   13   15 ar
    46   23   25 ar
@<TRIPOS>SUBSTRUCTURE
     1 RES1 1

@<TRIPOS>CRYSIN
   9.0486    6.0887   15.6974  90.0000  99.0660  90.0000   4 1

