# MOL2 file generated by ConQuest
# Please check atom types

@<TRIPOS>MOLECULE
SOJBEY
    72    72     3
SMALL
NO_CHARGES
****
Generated from CSD

@<TRIPOS>ATOM
      1 C1         8.1612    4.7217    1.9617 C.3       1 RES1    0.0000
      2 N1         8.1252    6.1754    1.7459 N.3       1 RES1    0.0000
      3 C2         7.6028    3.9402    0.7688 C.3       1 RES1    0.0000
      4 C3         7.6908    2.4437    1.0667 C.3       1 RES1    0.0000
      5 N2         7.1223    1.7216   -0.1540 N.pl3     1 RES1    0.0000
      6 O1         5.9586    1.5891   -0.2588 O.2       1 RES1    0.0000
      7 O2         7.8724    1.3488   -1.0011 O.2       1 RES1    0.0000
      8 C4         9.1349    2.0267    1.2586 C.3       1 RES1    0.0000
      9 C5         9.6630    2.8123    2.4579 C.3       1 RES1    0.0000
     10 N3        11.1187    2.4230    2.6952 N.pl3     1 RES1    0.0000
     11 O3        11.6838    2.9213    3.6331 O.2       1 RES1    0.0000
     12 O4        11.5856    1.5076    2.0627 O.2       1 RES1    0.0000
     13 O5        11.8834    2.5955    1.7396 Du        3 SUP3    0.0000
     14 O6        11.4826    2.1178    3.7834 Du        3 SUP3    0.0000
     15 C6         8.8686    2.4740    3.7127 C.3       1 RES1    0.0000
     16 C7         7.4347    2.8855    3.4589 C.3       1 RES1    0.0000
     17 N4         6.5866    2.5610    4.6809 N.pl3     1 RES1    0.0000
     18 O7         5.3877    2.7156    4.5938 O.2       1 RES1    0.0000
     19 O8         7.1443    2.1758    5.6681 O.2       1 RES1    0.0000
     20 C8         7.3435    4.3903    3.2027 C.3       1 RES1    0.0000
     21 C9         9.6105    4.3047    2.1902 C.3       1 RES1    0.0000
     22 C10        6.8517    2.1054    2.2799 C.3       1 RES1    0.0000
     23 C11        5.5740    2.1744   10.3528 C.3       2 RES2    0.0000
     24 N5         5.8884    3.5095   10.8893 N.3       2 RES2    0.0000
     25 C12        6.7144    1.7520    9.4161 C.3       2 RES2    0.0000
     26 C13        6.3651    0.4004    8.8177 C.3       2 RES2    0.0000
     27 N6         7.4850   -0.0607    7.8798 N.pl3     2 RES2    0.0000
     28 O9         7.2761   -1.0644    7.2158 O.2       2 RES2    0.0000
     29 O10        8.5133    0.5522    7.8444 O.2       2 RES2    0.0000
     30 C14        6.2380   -0.6696    9.8920 C.3       2 RES2    0.0000
     31 C15        5.0989   -0.2347   10.8186 C.3       2 RES2    0.0000
     32 N7         4.9502   -1.2688   11.9244 N.pl3     2 RES2    0.0000
     33 O11        5.8175   -2.0833   12.0431 O.2       2 RES2    0.0000
     34 O12        4.1080   -1.0921   12.6857 O.2       2 RES2    0.0000
     35 O13        5.4174   -1.1390   12.9634 Du        3 SUP3    0.0000
     36 O14        4.2208   -2.2531   11.6808 Du        3 SUP3    0.0000
     37 C16        3.7939   -0.1546   10.0422 C.3       2 RES2    0.0000
     38 C17        3.9702    0.8988    8.9604 C.3       2 RES2    0.0000
     39 N8         2.6854    1.0355    8.1499 N.pl3     2 RES2    0.0000
     40 O15        1.7272    0.3879    8.4466 O.2       2 RES2    0.0000
     41 O16        2.6790    1.8017    7.2360 O.2       2 RES2    0.0000
     42 C18        4.2724    2.2614    9.5701 C.3       2 RES2    0.0000
     43 C19        5.4281    1.1100   11.4536 C.3       2 RES2    0.0000
     44 C20        5.0823    0.4901    7.9984 C.3       2 RES2    0.0000
     45 H1         8.5408    6.3425    1.0301 H         1 RES1    0.0000
     46 H2         7.2780    6.4143    1.6752 H         1 RES1    0.0000
     47 H3         8.1166    4.1432   -0.0151 H         1 RES1    0.0000
     48 H4         6.6867    4.1874    0.6236 H         1 RES1    0.0000
     49 H5         9.1875    1.0838    1.4315 H         1 RES1    0.0000
     50 H6         9.6479    2.2366    0.4734 H         1 RES1    0.0000
     51 H7         9.2218    2.9559    4.4650 H         1 RES1    0.0000
     52 H8         8.9149    1.5311    3.8869 H         1 RES1    0.0000
     53 H9         7.6932    4.8694    3.9588 H         1 RES1    0.0000
     54 H10        6.4267    4.6416    3.0638 H         1 RES1    0.0000
     55 H11        9.9665    4.7796    2.9451 H         1 RES1    0.0000
     56 H12       10.1306    4.5090    1.4101 H         1 RES1    0.0000
     57 H13        5.8955    2.3636    2.1334 H         1 RES1    0.0000
     58 H14        6.8924    1.1625    2.4566 H         1 RES1    0.0000
     59 H15        6.6773    3.4722   11.3804 H         2 RES2    0.0000
     60 H16        5.1885    3.7525   11.5533 H         2 RES2    0.0000
     61 H17        7.5336    1.6871    9.9109 H         2 RES2    0.0000
     62 H18        6.8145    2.4009    8.7155 H         2 RES2    0.0000
     63 H19        6.0316   -1.5173    9.4918 H         2 RES2    0.0000
     64 H20        7.0564   -0.7400   10.3881 H         2 RES2    0.0000
     65 H21        3.0766    0.0966   10.6305 H         2 RES2    0.0000
     66 H22        3.5960   -1.0065    9.6446 H         2 RES2    0.0000
     67 H23        3.5594    2.5168   10.1584 H         2 RES2    0.0000
     68 H24        4.3599    2.9144    8.8720 H         2 RES2    0.0000
     69 H25        4.7221    1.3627   12.0519 H         2 RES2    0.0000
     70 H26        6.2521    1.0396   11.9421 H         2 RES2    0.0000
     71 H27        5.1775    1.1487    7.3067 H         2 RES2    0.0000
     72 H28        4.8823   -0.3617    7.6046 H         2 RES2    0.0000
@<TRIPOS>BOND
     1    1    2 1
     2    2   45 1
     3    3    1 1
     4    4    3 1
     5    5    4 1
     6    6    5 2
     7    7    5 2
     8    8    4 1
     9    9    8 1
    10   10    9 1
    11   11   10 2
    12   12   10 2
    13   15    9 1
    14   16   15 1
    15   17   16 1
    16   18   17 2
    17   19   17 2
    18   20    1 1
    19   21    1 1
    20   22    4 1
    21   23   24 1
    22   24   59 1
    23   25   23 1
    24   26   25 1
    25   27   26 1
    26   28   27 2
    27   29   27 2
    28   30   26 1
    29   31   30 1
    30   32   31 1
    31   33   32 2
    32   34   32 2
    33   37   31 1
    34   38   37 1
    35   39   38 1
    36   40   39 2
    37   41   39 2
    38   42   23 1
    39   43   23 1
    40   44   26 1
    41   46    2 1
    42   47    3 1
    43   48    3 1
    44   49    8 1
    45   50    8 1
    46   51   15 1
    47   52   15 1
    48   53   20 1
    49   54   20 1
    50   55   21 1
    51   56   21 1
    52   57   22 1
    53   58   22 1
    54   60   24 1
    55   61   25 1
    56   62   25 1
    57   63   30 1
    58   64   30 1
    59   65   37 1
    60   66   37 1
    61   67   42 1
    62   68   42 1
    63   69   43 1
    64   70   43 1
    65   71   44 1
    66   72   44 1
    67    9   21 1
    68   16   20 1
    69   16   22 1
    70   31   43 1
    71   38   42 1
    72   38   44 1
@<TRIPOS>SUBSTRUCTURE
     1 RES1 1
     2 RES2 23
     3 SUP3 13

@<TRIPOS>CRYSIN
  14.0890   13.8060   14.4140  90.0000 118.8600  90.0000 231 1

