# MOL2 file generated by ConQuest
# Please check atom types

@<TRIPOS>MOLECULE
SOJGED01
    15    15     1
SMALL
NO_CHARGES
****
Generated from CSD

@<TRIPOS>ATOM
      1 O1         0.1632    2.5658    2.4784 O.3       1 RES1    0.0000
      2 C1         0.9834    1.5209    2.1243 C.2       1 RES1    0.0000
      3 C2         0.4229    0.6461    1.1142 C.2       1 RES1    0.0000
      4 N1         0.9861   -0.3374    0.5356 N.2       1 RES1    0.0000
      5 O2         2.2868   -0.5323    0.9804 O.3       1 RES1    0.0000
      6 C3         2.1220    1.5412    2.8726 C.2       1 RES1    0.0000
      7 C4         2.0185    2.6543    3.7389 C.2       1 RES1    0.0000
      8 C5         0.8351    3.2164    3.4457 C.2       1 RES1    0.0000
      9 N2         0.2123    4.3723    3.9976 N.pl3     1 RES1    0.0000
     10 O3        -0.8762    4.7193    3.5621 O.2       1 RES1    0.0000
     11 O4         0.8282    4.9497    4.8801 O.2       1 RES1    0.0000
     12 H1        -0.4746    0.7943    0.9032 H         1 RES1    0.0000
     13 H2         2.6238   -1.1379    0.4686 H         1 RES1    0.0000
     14 H3         2.7785    0.9407    2.8073 H         1 RES1    0.0000
     15 H4         2.5812    2.9573    4.3911 H         1 RES1    0.0000
@<TRIPOS>BOND
     1    1    2 1
     2    2    3 1
     3    3    4 2
     4    4    5 1
     5    5   13 1
     6    6    2 2
     7    7    6 1
     8    8    1 1
     9    9    8 1
    10   10    9 2
    11   11    9 2
    12   12    3 1
    13   14    6 1
    14   15    7 1
    15    7    8 2
@<TRIPOS>SUBSTRUCTURE
     1 RES1 1

@<TRIPOS>CRYSIN
   5.3330    5.6330   21.2030  90.0000  90.0000  90.0000  19 1

