# MOL2 file generated by ConQuest
# Please check atom types

@<TRIPOS>MOLECULE
SOJHEE
    40    40     1
SMALL
NO_CHARGES
****
Generated from CSD

@<TRIPOS>ATOM
      1 O1         2.7342    4.6560   -0.1287 O.3       1 RES1    0.0000
      2 O2         2.4506    6.5570   -1.4804 O.3       1 RES1    0.0000
      3 O3         3.4769    3.3408   -3.5662 O.3       1 RES1    0.0000
      4 O4        -0.9125    4.0489    0.1103 O.3       1 RES1    0.0000
      5 O5         1.6210    2.8111    2.0076 O.3       1 RES1    0.0000
      6 N1         2.3677    3.1253   -2.6299 N.3       1 RES1    0.0000
      7 C1         2.7911    5.1913   -1.4529 C.3       1 RES1    0.0000
      8 C2         1.8274    4.4932   -2.4030 C.3       1 RES1    0.0000
      9 C3         0.4445    4.5022   -1.7732 C.3       1 RES1    0.0000
     10 C4         0.4518    3.9355   -0.3755 C.3       1 RES1    0.0000
     11 C5         1.4268    4.7323    0.4782 C.3       1 RES1    0.0000
     12 C6         3.3639    7.4143   -0.8276 C.3       1 RES1    0.0000
     13 C7         2.9576    8.8092   -1.0176 C.3       1 RES1    0.0000
     14 C8         1.5975    4.2228    1.8927 C.3       1 RES1    0.0000
     15 C9         1.4163    2.2040   -3.3440 C.3       1 RES1    0.0000
     16 C10        2.0557    0.8327   -3.4482 C.3       1 RES1    0.0000
     17 C11        0.9588    2.7247   -4.6896 C.3       1 RES1    0.0000
     18 H1         4.1440    3.1309   -3.1417 H         1 RES1    0.0000
     19 H2        -1.0401    3.7144    0.8582 H         1 RES1    0.0000
     20 H3         2.1451    2.3903    1.3640 H         1 RES1    0.0000
     21 H4         3.8352    5.0577   -1.7563 H         1 RES1    0.0000
     22 H5         1.7543    4.9590   -3.3777 H         1 RES1    0.0000
     23 H6         0.0845    5.5212   -1.7302 H         1 RES1    0.0000
     24 H7        -0.2316    3.8996   -2.3908 H         1 RES1    0.0000
     25 H8         0.7532    2.8784   -0.3464 H         1 RES1    0.0000
     26 H9         1.0425    5.7366    0.5502 H         1 RES1    0.0000
     27 H10        3.3720    7.1820    0.2329 H         1 RES1    0.0000
     28 H11        4.3552    7.2707   -1.2475 H         1 RES1    0.0000
     29 H12        2.9617    9.0348   -2.0674 H         1 RES1    0.0000
     30 H13        1.9785    8.9461   -0.5854 H         1 RES1    0.0000
     31 H14        3.6767    9.4601   -0.4981 H         1 RES1    0.0000
     32 H15        2.5270    4.5898    2.3065 H         1 RES1    0.0000
     33 H16        0.7573    4.5505    2.4919 H         1 RES1    0.0000
     34 H17        0.5160    2.1883   -2.7341 H         1 RES1    0.0000
     35 H18        1.3383    0.1448   -3.8636 H         1 RES1    0.0000
     36 H19        2.9260    0.9067   -4.1210 H         1 RES1    0.0000
     37 H20        2.3978    0.4848   -2.4781 H         1 RES1    0.0000
     38 H21        1.8233    2.7853   -5.3593 H         1 RES1    0.0000
     39 H22        0.2356    2.0233   -5.1003 H         1 RES1    0.0000
     40 H23        0.5054    3.7077   -4.6053 H         1 RES1    0.0000
@<TRIPOS>BOND
     1    1    7 1
     2    2    7 1
     3    3    6 1
     4    4   10 1
     5    5   14 1
     6    6    8 1
     7    7    8 1
     8    8    9 1
     9    9   10 1
    10   10   11 1
    11   11    1 1
    12   12    2 1
    13   13   12 1
    14   14   11 1
    15   15    6 1
    16   16   15 1
    17   17   15 1
    18   18    3 1
    19   19    4 1
    20   20    5 1
    21   21    7 1
    22   22    8 1
    23   23    9 1
    24   24    9 1
    25   25   10 1
    26   26   11 1
    27   27   12 1
    28   28   12 1
    29   29   13 1
    30   30   13 1
    31   31   13 1
    32   32   14 1
    33   33   14 1
    34   34   15 1
    35   35   16 1
    36   36   16 1
    37   37   16 1
    38   38   17 1
    39   39   17 1
    40   40   17 1
@<TRIPOS>SUBSTRUCTURE
     1 RES1 1

@<TRIPOS>CRYSIN
   8.1254   11.2219   15.3255  90.0000  90.0000  90.0000  19 1

