# MOL2 file generated by ConQuest
# Please check atom types

@<TRIPOS>MOLECULE
SOJHII
    39    40     1
SMALL
NO_CHARGES
****
Generated from CSD

@<TRIPOS>ATOM
      1 O1         3.0249    0.0000    1.3759 O.3       1 RES1    0.0000
      2 O2         3.1067    2.2878    1.8685 O.3       1 RES1    0.0000
      3 O3         4.8010    1.4523   -1.6091 O.3       1 RES1    0.0000
      4 O4         0.2158   -0.7164   -0.6627 O.2       1 RES1    0.0000
      5 O5         2.2472   -2.5475    1.1262 O.3       1 RES1    0.0000
      6 N1         3.8130    2.4135   -1.2029 N.3       1 RES1    0.0000
      7 C1         3.4441    1.2854    0.9289 C.3       1 RES1    0.0000
      8 C2         2.8175    1.6784   -0.4188 C.3       1 RES1    0.0000
      9 C3         2.2809    0.4147   -1.1398 C.3       1 RES1    0.0000
     10 C4         1.2625   -0.2508   -0.2623 C.2       1 RES1    0.0000
     11 C5         1.6265   -0.2800    1.2224 C.3       1 RES1    0.0000
     12 C6         3.9628    2.2391    3.0335 C.3       1 RES1    0.0000
     13 C7         3.5418    3.2662    4.0100 C.3       1 RES1    0.0000
     14 C8         1.3963   -1.6529    1.8258 C.3       1 RES1    0.0000
     15 C9         3.3049    3.1112   -2.3505 C.ar      1 RES1    0.0000
     16 C10        3.8758    2.9667   -3.6136 C.ar      1 RES1    0.0000
     17 C11        3.4176    3.7640   -4.6620 C.ar      1 RES1    0.0000
     18 C12        2.4085    4.6788   -4.4852 C.ar      1 RES1    0.0000
     19 C13        1.8262    4.8008   -3.2337 C.ar      1 RES1    0.0000
     20 C14        2.2829    4.0365   -2.1600 C.ar      1 RES1    0.0000
     21 H1         2.2573   -3.3687    1.5838 H         1 RES1    0.0000
     22 H2         5.5610    1.7817   -1.3700 H         1 RES1    0.0000
     23 H3         4.5258    1.2127    0.8113 H         1 RES1    0.0000
     24 H4         1.9598    2.3349   -0.2760 H         1 RES1    0.0000
     25 H5         1.8202    0.7000   -2.0862 H         1 RES1    0.0000
     26 H6         3.1037   -0.2755   -1.3321 H         1 RES1    0.0000
     27 H7         0.9987    0.4589    1.7218 H         1 RES1    0.0000
     28 H8         3.8888    1.2517    3.4922 H         1 RES1    0.0000
     29 H9         4.9922    2.4233    2.7333 H         1 RES1    0.0000
     30 H10        3.6137    4.2521    3.5514 H         1 RES1    0.0000
     31 H11        2.5094    3.0798    4.3103 H         1 RES1    0.0000
     32 H12        4.1853    3.2280    4.8884 H         1 RES1    0.0000
     33 H13        1.6483   -1.6447    2.8858 H         1 RES1    0.0000
     34 H14        0.3554   -1.9486    1.7014 H         1 RES1    0.0000
     35 H15        4.6712    2.2383   -3.7798 H         1 RES1    0.0000
     36 H16        3.8692    3.6555   -5.6492 H         1 RES1    0.0000
     37 H17        2.0755    5.3009   -5.3169 H         1 RES1    0.0000
     38 H18        0.9999    5.4985   -3.0879 H         1 RES1    0.0000
     39 H19        1.8418    4.1668   -1.1718 H         1 RES1    0.0000
@<TRIPOS>BOND
     1    1    7 1
     2    2    7 1
     3    3    6 1
     4    4   10 2
     5    5   14 1
     6    6    8 1
     7    7    8 1
     8    8    9 1
     9    9   10 1
    10   10   11 1
    11   11    1 1
    12   12    2 1
    13   13   12 1
    14   14   11 1
    15   15    6 1
    16   16   15 ar
    17   17   16 ar
    18   18   17 ar
    19   19   18 ar
    20   20   15 ar
    21   21    5 1
    22   22    3 1
    23   23    7 1
    24   24    8 1
    25   25    9 1
    26   26    9 1
    27   27   11 1
    28   28   12 1
    29   29   12 1
    30   30   13 1
    31   31   13 1
    32   32   13 1
    33   33   14 1
    34   34   14 1
    35   35   16 1
    36   36   17 1
    37   37   18 1
    38   38   19 1
    39   39   20 1
    40   19   20 ar
@<TRIPOS>SUBSTRUCTURE
     1 RES1 1

@<TRIPOS>CRYSIN
   9.8476    7.4861   10.3660  90.0000 110.3880  90.0000   4 1

