# MOL2 file generated by ConQuest
# Please check atom types

@<TRIPOS>MOLECULE
SOJQEP
    28    28     1
SMALL
NO_CHARGES
****
Generated from CSD

@<TRIPOS>ATOM
      1 C1         1.1394    2.8468    8.3147 C.ar      1 RES1    0.0000
      2 C2         1.2558    4.2199    8.3040 C.ar      1 RES1    0.0000
      3 H1         0.5641    4.7701    8.6522 H         1 RES1    0.0000
      4 C3         2.4002    4.7731    7.7740 C.ar      1 RES1    0.0000
      5 H2         2.4919    5.7183    7.7479 H         1 RES1    0.0000
      6 C4         3.4251    3.9733    7.2769 C.ar      1 RES1    0.0000
      7 C5         3.2645    2.5880    7.3068 C.ar      1 RES1    0.0000
      8 H3         3.9537    2.0286    6.9686 H         1 RES1    0.0000
      9 C6         2.1214    2.0213    7.8185 C.ar      1 RES1    0.0000
     10 H4         2.0125    1.0771    7.8292 H         1 RES1    0.0000
     11 C7         4.6353    4.5949    6.7141 C.2       1 RES1    0.0000
     12 C8         5.6241    3.9250    6.0949 C.2       1 RES1    0.0000
     13 H5         5.5796    2.9778    6.0297 H         1 RES1    0.0000
     14 C9         6.7507    4.6247    5.5281 C.2       1 RES1    0.0000
     15 C10        8.7910    4.4520    4.3461 C.3       1 RES1    0.0000
     16 H6         9.3298    4.9099    5.0387 H         1 RES1    0.0000
     17 H7         8.4986    5.1245    3.6810 H         1 RES1    0.0000
     18 C11        9.6043    3.3944    3.6803 C.3       1 RES1    0.0000
     19 H8         9.9283    2.7589    4.3530 H         1 RES1    0.0000
     20 H9        10.3682    3.8068    3.2262 H         1 RES1    0.0000
     21 H10        9.0508    2.9215    3.0237 H         1 RES1    0.0000
     22 N1        -0.0621    2.2420    8.9067 N.pl3     1 RES1    0.0000
     23 O1         4.6463    5.9318    6.8547 O.3       1 RES1    0.0000
     24 H11        5.3496    6.2428    6.5160 H         1 RES1    0.0000
     25 O2         6.8969    5.8517    5.5496 O.2       1 RES1    0.0000
     26 O3         7.6355    3.8146    4.9528 O.3       1 RES1    0.0000
     27 O4        -0.8679    2.9771    9.4484 O.2       1 RES1    0.0000
     28 O5        -0.1873    1.0318    8.8469 O.2       1 RES1    0.0000
@<TRIPOS>BOND
     1    1    2 ar
     2    2    3 1
     3    4    2 ar
     4    5    4 1
     5    6    4 ar
     6    7    6 ar
     7    8    7 1
     8    9    1 ar
     9   10    9 1
    10   11    6 1
    11   12   11 2
    12   13   12 1
    13   14   12 1
    14   15   16 1
    15   17   15 1
    16   18   15 1
    17   19   18 1
    18   20   18 1
    19   21   18 1
    20   22    1 1
    21   23   11 1
    22   24   23 1
    23   25   14 2
    24   26   14 1
    25   27   22 2
    26   28   22 2
    27    7    9 ar
    28   15   26 1
@<TRIPOS>SUBSTRUCTURE
     1 RES1 1

@<TRIPOS>CRYSIN
  13.0495   10.8363    7.6723  90.0000  91.2680  90.0000  14 1

