# MOL2 file generated by ConQuest
# Please check atom types

@<TRIPOS>MOLECULE
SOKGUU
    28    28     1
SMALL
NO_CHARGES
****
Generated from CSD

@<TRIPOS>ATOM
      1 O1         3.4619    4.4934    0.9086 O.3       1 RES1    0.0000
      2 O2         2.8190    4.5618    3.5485 O.3       1 RES1    0.0000
      3 O3        -0.0941    3.8224    1.5052 O.3       1 RES1    0.0000
      4 O4        -0.9594    6.1776    3.1110 O.3       1 RES1    0.0000
      5 O5         0.4113    6.3830    5.6065 O.3       1 RES1    0.0000
      6 O6         3.8640    3.8804    6.9323 O.2       1 RES1    0.0000
      7 O7         3.4778    2.2456    5.6152 O.2       1 RES1    0.0000
      8 N1         3.1783    3.2989    6.1272 N.pl3     1 RES1    0.0000
      9 C1         2.7884    3.3853    1.5023 C.3       1 RES1    0.0000
     10 C2         1.9457    3.8266    2.6778 C.3       1 RES1    0.0000
     11 C3         0.7547    4.6788    2.2767 C.3       1 RES1    0.0000
     12 C4         0.0220    5.2212    3.5004 C.3       1 RES1    0.0000
     13 C5         1.0095    5.9385    4.3974 C.3       1 RES1    0.0000
     14 C6         2.2207    5.0548    4.7416 C.3       1 RES1    0.0000
     15 C7         1.8914    3.9267    5.7246 C.3       1 RES1    0.0000
     16 H1         3.5749    2.7912    1.8231 H         1 RES1    0.0000
     17 H2         2.2305    2.9282    0.8168 H         1 RES1    0.0000
     18 H3         1.6622    3.0124    3.1504 H         1 RES1    0.0000
     19 H4         1.0144    5.4561    1.7064 H         1 RES1    0.0000
     20 H5        -0.4705    4.4660    4.0109 H         1 RES1    0.0000
     21 H6         1.3383    6.7201    3.9088 H         1 RES1    0.0000
     22 H7         2.8966    5.6352    5.1485 H         1 RES1    0.0000
     23 H8         1.4422    4.2764    6.5195 H         1 RES1    0.0000
     24 H9         1.2466    3.2442    5.3673 H         1 RES1    0.0000
     25 H10        3.3611    4.4871    0.0729 H         1 RES1    0.0000
     26 H11       -0.8128    4.2448    1.1814 H         1 RES1    0.0000
     27 H12       -1.6683    5.7616    2.9608 H         1 RES1    0.0000
     28 H13        0.2567    7.2046    5.6006 H         1 RES1    0.0000
@<TRIPOS>BOND
     1    1    9 1
     2    2   10 1
     3    3   11 1
     4    4   12 1
     5    5   13 1
     6    6    8 2
     7    7    8 2
     8    8   15 1
     9    9   10 1
    10   10   11 1
    11   11   12 1
    12   12   13 1
    13   13   14 1
    14   14    2 1
    15   15   14 1
    16   16    9 1
    17   17    9 1
    18   18   10 1
    19   19   11 1
    20   20   12 1
    21   21   13 1
    22   22   14 1
    23   23   15 1
    24   24   15 1
    25   25    1 1
    26   26    3 1
    27   27    4 1
    28   28    5 1
@<TRIPOS>SUBSTRUCTURE
     1 RES1 1

@<TRIPOS>CRYSIN
   6.1110   10.5330   14.5850  90.0000  90.0000  90.0000  19 1

