# MOL2 file generated by ConQuest
# Please check atom types

@<TRIPOS>MOLECULE
SOKHEF
    39    39     1
SMALL
NO_CHARGES
****
Generated from CSD

@<TRIPOS>ATOM
      1 O1        -4.1650    8.3209    9.2803 O.2       1 RES1    0.0000
      2 O2        -5.1116    8.4456   11.1859 O.2       1 RES1    0.0000
      3 O3        -2.7672   10.6727   10.8680 O.3       1 RES1    0.0000
      4 O4        -0.7468    9.7071   12.7607 O.3       1 RES1    0.0000
      5 O5         0.4327   10.7165    9.5280 O.3       1 RES1    0.0000
      6 O6        -1.1642   12.5040   12.2969 O.3       1 RES1    0.0000
      7 O7        -0.2466    7.5347   12.9726 O.2       1 RES1    0.0000
      8 O8         2.2433   12.0287    9.7570 O.2       1 RES1    0.0000
      9 O9         0.5668   13.9148   12.3871 O.2       1 RES1    0.0000
     10 N1        -4.1282    8.3757   10.4700 N.pl3     1 RES1    0.0000
     11 C1        -2.7894    8.3538   11.1587 C.3       1 RES1    0.0000
     12 C2        -1.9814    9.5153   10.6533 C.3       1 RES1    0.0000
     13 C3        -0.6143    9.6372   11.3362 C.3       1 RES1    0.0000
     14 C4         0.0628   10.9371   10.9010 C.3       1 RES1    0.0000
     15 C5        -0.8563   12.1506   10.9382 C.3       1 RES1    0.0000
     16 C6        -2.1874   11.8233   10.2911 C.3       1 RES1    0.0000
     17 C7        -0.4963    8.5853   13.4809 C.2       1 RES1    0.0000
     18 C8        -0.5905    8.8510   14.9283 C.3       1 RES1    0.0000
     19 C9         1.5563   11.3384    9.0698 C.2       1 RES1    0.0000
     20 C10        1.7639   11.0412    7.6295 C.3       1 RES1    0.0000
     21 C11       -0.3845   13.4121   12.9039 C.2       1 RES1    0.0000
     22 C12       -0.8670   13.6956   14.2726 C.3       1 RES1    0.0000
     23 H1        -2.4126    7.4375   10.9382 H         1 RES1    0.0000
     24 H2        -2.8874    8.4510   12.1408 H         1 RES1    0.0000
     25 H3        -1.8152    9.3824    9.6640 H         1 RES1    0.0000
     26 H4        -0.0766    8.8757   11.1243 H         1 RES1    0.0000
     27 H5         0.7506   11.0946   11.4536 H         1 RES1    0.0000
     28 H6        -0.4519   12.8889   10.5087 H         1 RES1    0.0000
     29 H7        -2.0526   11.7109    9.2774 H         1 RES1    0.0000
     30 H8        -2.8491   12.5738   10.4371 H         1 RES1    0.0000
     31 H9        -0.6817    8.0264   15.4051 H         1 RES1    0.0000
     32 H10       -1.2178    9.3687   15.1903 H         1 RES1    0.0000
     33 H11        0.0842    9.3140   15.2190 H         1 RES1    0.0000
     34 H12        2.5581   11.4370    7.2874 H         1 RES1    0.0000
     35 H13        1.1259   11.5055    7.1155 H         1 RES1    0.0000
     36 H14        1.6314   10.1358    7.3876 H         1 RES1    0.0000
     37 H15       -0.2298   14.2860   14.7895 H         1 RES1    0.0000
     38 H16       -0.9344   12.9026   14.7465 H         1 RES1    0.0000
     39 H17       -1.5548   14.0805   14.1881 H         1 RES1    0.0000
@<TRIPOS>BOND
     1    1   10 2
     2    2   10 2
     3    3   12 1
     4    4   13 1
     5    5   14 1
     6    6   15 1
     7    7   17 2
     8    8   19 2
     9    9   21 2
    10   10   11 1
    11   11   12 1
    12   12   13 1
    13   13   14 1
    14   14   15 1
    15   15   16 1
    16   16    3 1
    17   17    4 1
    18   18   17 1
    19   19    5 1
    20   20   19 1
    21   21    6 1
    22   22   21 1
    23   23   11 1
    24   24   11 1
    25   25   12 1
    26   26   13 1
    27   27   14 1
    28   28   15 1
    29   29   16 1
    30   30   16 1
    31   31   18 1
    32   32   18 1
    33   33   18 1
    34   34   20 1
    35   35   20 1
    36   36   20 1
    37   37   22 1
    38   38   22 1
    39   39   22 1
@<TRIPOS>SUBSTRUCTURE
     1 RES1 1

@<TRIPOS>CRYSIN
   7.6590   13.6970   14.3170  90.0000  90.0000  90.0000  19 1

