# MOL2 file generated by ConQuest
# Please check atom types

@<TRIPOS>MOLECULE
SOKHAB
    48    48     1
SMALL
NO_CHARGES
****
Generated from CSD

@<TRIPOS>ATOM
      1 O1         7.0650   -0.0638   15.0926 O.3       1 RES1    0.0000
      2 O2         6.4780   -0.5010   17.8068 O.3       1 RES1    0.0000
      3 O3         3.7324   -1.2122   15.4949 O.3       1 RES1    0.0000
      4 O4         2.4579    0.3477   17.4637 O.3       1 RES1    0.0000
      5 O5         4.5677    1.5471   18.7156 O.3       1 RES1    0.0000
      6 O6         7.7717   -1.7269   20.8233 O.2       1 RES1    0.0000
      7 O7         7.5962   -3.2062   19.2671 O.2       1 RES1    0.0000
      8 O8         8.7710   -0.9018   14.1715 O.2       1 RES1    0.0000
      9 O9         3.5694    0.5285   14.1511 O.2       1 RES1    0.0000
     10 O10        1.2755   -0.8615   18.9158 O.2       1 RES1    0.0000
     11 O11        3.0180    2.0078   20.2596 O.2       1 RES1    0.0000
     12 N1         7.1513   -2.2947   19.9267 N.pl3     1 RES1    0.0000
     13 C1         6.7188   -1.3536   15.6134 C.3       1 RES1    0.0000
     14 C2         5.7665   -1.1984   16.7673 C.3       1 RES1    0.0000
     15 C3         4.4651   -0.4538   16.4773 C.3       1 RES1    0.0000
     16 C4         3.6375   -0.4361   17.7394 C.3       1 RES1    0.0000
     17 C5         4.3845    0.1326   18.9219 C.3       1 RES1    0.0000
     18 C6         5.7866   -0.4725   19.0404 C.3       1 RES1    0.0000
     19 C7         5.7511   -1.8477   19.6980 C.3       1 RES1    0.0000
     20 C8         8.1285    0.0363   14.3880 C.2       1 RES1    0.0000
     21 C9         8.4114    1.3674   13.8570 C.3       1 RES1    0.0000
     22 C10        3.3038   -0.5972   14.3900 C.2       1 RES1    0.0000
     23 C11        2.4387   -1.4764   13.5568 C.3       1 RES1    0.0000
     24 C12        1.3378    0.0285   18.1172 C.2       1 RES1    0.0000
     25 C13        0.2187    0.9351   17.7455 C.3       1 RES1    0.0000
     26 C14        3.8581    2.3801   19.4897 C.2       1 RES1    0.0000
     27 C15        4.1640    3.7848   19.1976 C.3       1 RES1    0.0000
     28 H1         6.2719   -1.8565   14.9292 H         1 RES1    0.0000
     29 H2         7.5282   -1.8173   15.8482 H         1 RES1    0.0000
     30 H3         5.5334   -2.0727   17.0736 H         1 RES1    0.0000
     31 H4         4.6320    0.4420   16.0729 H         1 RES1    0.0000
     32 H5         3.4236   -1.3359   17.9518 H         1 RES1    0.0000
     33 H6         3.9031   -0.0295   19.6673 H         1 RES1    0.0000
     34 H7         6.3006    0.1375   19.6265 H         1 RES1    0.0000
     35 H8         5.2937   -1.8074   20.5251 H         1 RES1    0.0000
     36 H9         5.2937   -2.4557   19.1159 H         1 RES1    0.0000
     37 H10        7.7008    2.0039   14.0510 H         1 RES1    0.0000
     38 H11        8.5543    1.3752   12.9686 H         1 RES1    0.0000
     39 H12        9.1968    1.6601   14.3165 H         1 RES1    0.0000
     40 H13        2.2632   -1.0805   12.6827 H         1 RES1    0.0000
     41 H14        1.6303   -1.6994   13.9898 H         1 RES1    0.0000
     42 H15        2.9729   -2.2691   13.4179 H         1 RES1    0.0000
     43 H16       -0.5083    0.6287   18.2582 H         1 RES1    0.0000
     44 H17       -0.0479    0.9921   16.8694 H         1 RES1    0.0000
     45 H18        0.4507    1.8074   18.1356 H         1 RES1    0.0000
     46 H19        3.7401    4.2534   19.8920 H         1 RES1    0.0000
     47 H20        3.9031    4.0962   18.3194 H         1 RES1    0.0000
     48 H21        5.1594    3.9881   19.2589 H         1 RES1    0.0000
@<TRIPOS>BOND
     1    1   13 1
     2    2   14 1
     3    3   15 1
     4    4   16 1
     5    5   17 1
     6    6   12 2
     7    7   12 2
     8    8   20 2
     9    9   22 2
    10   10   24 2
    11   11   26 2
    12   12   19 1
    13   13   14 1
    14   14   15 1
    15   15   16 1
    16   16   17 1
    17   17   18 1
    18   18    2 1
    19   19   18 1
    20   20    1 1
    21   21   20 1
    22   22    3 1
    23   23   22 1
    24   24    4 1
    25   25   24 1
    26   26    5 1
    27   27   26 1
    28   28   13 1
    29   29   13 1
    30   30   14 1
    31   31   15 1
    32   32   16 1
    33   33   17 1
    34   34   18 1
    35   35   19 1
    36   36   19 1
    37   37   21 1
    38   38   21 1
    39   39   21 1
    40   40   23 1
    41   41   23 1
    42   42   23 1
    43   43   25 1
    44   44   25 1
    45   45   25 1
    46   46   27 1
    47   47   27 1
    48   48   27 1
@<TRIPOS>SUBSTRUCTURE
     1 RES1 1

@<TRIPOS>CRYSIN
   9.5900    9.8230   20.4230  90.0000  90.0000  90.0000  19 1

