# MOL2 file generated by ConQuest
# Please check atom types

@<TRIPOS>MOLECULE
SOLAOX
    17    20     1
SMALL
NO_CHARGES
****
Generated from CSD

@<TRIPOS>ATOM
      1 C1         3.2158    1.6551    8.2402 C.3       1 RES1    0.0000
      2 C2         2.1026    2.5306    8.8475 C.3       1 RES1    0.0000
      3 C3         2.0621    2.3642   10.3887 C.3       1 RES1    0.0000
      4 C4         2.5456    1.0150   10.8177 C.2       1 RES1    0.0000
      5 C5         3.9886    0.7384   10.5028 C.3       1 RES1    0.0000
      6 C6         4.4504    1.3980    9.1754 C.3       1 RES1    0.0000
      7 C7         4.9923    0.0135    8.6874 C.3       1 RES1    0.0000
      8 C8         4.1340   -0.2833    7.4430 C.3       1 RES1    0.0000
      9 C9         4.4549    0.7721    6.3563 C.3       1 RES1    0.0000
     10 C10        3.7622    2.0442    6.8409 C.3       1 RES1    0.0000
     11 C11        2.7675    0.2136    7.8927 C.3       1 RES1    0.0000
     12 C12        4.4684   -0.6477    9.9975 C.3       1 RES1    0.0000
     13 C13        2.1514    3.9924    8.4818 C.3       1 RES1    0.0000
     14 C14        5.4211    2.5659    9.3298 C.3       1 RES1    0.0000
     15 C15        6.5080   -0.1829    8.4751 C.3       1 RES1    0.0000
     16 N1         1.7773    0.1926   11.4035 N.2       1 RES1    0.0000
     17 O1         0.4025    0.6889   11.5727 O.3       1 RES1    0.0000
@<TRIPOS>BOND
     1    1    2 1
     2    2    3 1
     3    3    4 1
     4    4    5 1
     5    5    6 1
     6    6    1 1
     7    7    6 1
     8    8    7 1
     9    9    8 1
    10   10    1 1
    11   11    1 1
    12   12    5 1
    13   13    2 1
    14   14    6 1
    15   15    7 1
    16   16    4 2
    17   17   16 1
    18    7   12 1
    19    8   11 1
    20    9   10 1
@<TRIPOS>SUBSTRUCTURE
     1 RES1 1

@<TRIPOS>CRYSIN
   7.4960    7.4960   47.9360  90.0000  90.0000  90.0000  92 1

