# MOL2 file generated by ConQuest
# Please check atom types

@<TRIPOS>MOLECULE
SOLFOP
    84    89     1
SMALL
NO_CHARGES
****
Generated from CSD

@<TRIPOS>ATOM
      1 O1         3.7963    7.3172    2.6388 O.3       1 RES1    0.0000
      2 O2         1.7655    7.1255    3.7977 O.3       1 RES1    0.0000
      3 O3         0.0704   -1.6150    9.4093 O.3       1 RES1    0.0000
      4 O4         1.4799   -3.2998    9.7909 O.2       1 RES1    0.0000
      5 O5        -1.2481    7.0341   -0.0013 O.2       1 RES1    0.0000
      6 O6         0.8180    6.5780   -0.4856 O.2       1 RES1    0.0000
      7 N1         0.3409    7.7094    1.3541 N.3       1 RES1    0.0000
      8 N2        -0.0460    7.0823    0.2313 N.pl3     1 RES1    0.0000
      9 C1         0.2352   -0.8296    6.6099 C.3       1 RES1    0.0000
     10 H1        -0.4899   -1.4401    6.8951 H         1 RES1    0.0000
     11 H2         0.4522   -1.0419    5.6669 H         1 RES1    0.0000
     12 C2         1.4577   -1.0990    7.4604 C.3       1 RES1    0.0000
     13 H3         1.7199   -2.0495    7.3731 H         1 RES1    0.0000
     14 H4         2.2125   -0.5416    7.1431 H         1 RES1    0.0000
     15 C3         1.1756   -0.7883    8.8903 C.3       1 RES1    0.0000
     16 H5         1.9978   -0.9525    9.4350 H         1 RES1    0.0000
     17 C4         0.7482    0.6576    9.0458 C.3       1 RES1    0.0000
     18 H6         1.5057    1.2474    8.8030 H         1 RES1    0.0000
     19 H7         0.5224    0.8296    9.9939 H         1 RES1    0.0000
     20 C5        -0.4578    1.0036    8.1709 C.3       1 RES1    0.0000
     21 H8        -1.2248    0.4620    8.5139 H         1 RES1    0.0000
     22 C6        -0.8405    2.4869    8.3674 C.3       1 RES1    0.0000
     23 H9        -1.7466    2.6432    8.0000 H         1 RES1    0.0000
     24 H10       -0.8629    2.6953    9.3348 H         1 RES1    0.0000
     25 C7         0.1573    3.4139    7.6711 C.3       1 RES1    0.0000
     26 H11       -0.1354    4.3536    7.7829 H         1 RES1    0.0000
     27 H12        1.0466    3.3175    8.0951 H         1 RES1    0.0000
     28 C8         0.2663    3.0934    6.1950 C.3       1 RES1    0.0000
     29 H13       -0.6329    3.2202    5.7761 H         1 RES1    0.0000
     30 C9         0.7112    1.6209    5.9676 C.3       1 RES1    0.0000
     31 H14        1.5982    1.5138    6.4185 H         1 RES1    0.0000
     32 C10       -0.2862    0.6350    6.6832 C.3       1 RES1    0.0000
     33 C11        0.9276    1.3054    4.4965 C.3       1 RES1    0.0000
     34 H15        0.0493    1.3015    4.0405 H         1 RES1    0.0000
     35 H16        1.3106    0.3961    4.4195 H         1 RES1    0.0000
     36 C12        1.8633    2.3011    3.7655 C.3       1 RES1    0.0000
     37 H17        2.7823    2.2166    4.1227 H         1 RES1    0.0000
     38 H18        1.8864    2.0859    2.7994 H         1 RES1    0.0000
     39 C13        1.3693    3.7373    3.9582 C.3       1 RES1    0.0000
     40 C14        1.2716    4.0086    5.4768 C.3       1 RES1    0.0000
     41 H19        2.1710    3.7913    5.8571 H         1 RES1    0.0000
     42 C15        1.1242    5.5233    5.5719 C.3       1 RES1    0.0000
     43 H20        0.2179    5.8192    5.3046 H         1 RES1    0.0000
     44 H21        1.3213    5.8526    6.4840 H         1 RES1    0.0000
     45 C16        2.1704    5.9765    4.5788 C.3       1 RES1    0.0000
     46 H22        3.0235    6.1819    5.0605 H         1 RES1    0.0000
     47 C17        2.4082    4.8382    3.5715 C.3       1 RES1    0.0000
     48 H23        3.3298    4.4735    3.7077 H         1 RES1    0.0000
     49 C18        0.0369    3.9466    3.2439 C.3       1 RES1    0.0000
     50 H24       -0.2670    4.8687    3.3814 H         1 RES1    0.0000
     51 H25       -0.6299    3.3264    3.6062 H         1 RES1    0.0000
     52 H26        0.1501    3.7805    2.2855 H         1 RES1    0.0000
     53 C19       -1.6464    0.6468    5.9920 C.3       1 RES1    0.0000
     54 H27       -1.5340    0.4119    5.0464 H         1 RES1    0.0000
     55 H28       -2.0408    1.5403    6.0613 H         1 RES1    0.0000
     56 H29       -2.2367   -0.0059    6.4224 H         1 RES1    0.0000
     57 C20        2.3385    5.4978    2.1892 C.3       1 RES1    0.0000
     58 H30        1.4306    5.3277    1.8063 H         1 RES1    0.0000
     59 C21        3.3728    5.0181    1.1897 C.3       1 RES1    0.0000
     60 H31        3.2343    5.4722    0.3327 H         1 RES1    0.0000
     61 H32        3.2827    4.0498    1.0650 H         1 RES1    0.0000
     62 H33        4.2707    5.2215    1.5263 H         1 RES1    0.0000
     63 C22        2.4470    7.0282    2.5386 C.3       1 RES1    0.0000
     64 C23        1.7157    7.9434    1.5828 C.2       1 RES1    0.0000
     65 C24        2.3173    9.0197    1.0573 C.2       1 RES1    0.0000
     66 H34        1.8351    9.5613    0.4445 H         1 RES1    0.0000
     67 C25        3.7023    9.3913    1.4004 C.3       1 RES1    0.0000
     68 H35        3.7276   10.3821    1.5327 H         1 RES1    0.0000
     69 C26        4.0848    8.7455    2.7082 C.3       1 RES1    0.0000
     70 H36        5.0497    8.8851    2.8829 H         1 RES1    0.0000
     71 H37        3.5720    9.1564    3.4482 H         1 RES1    0.0000
     72 C27        4.6906    9.0473    0.2775 C.3       1 RES1    0.0000
     73 H38        5.5953    9.3127    0.5460 H         1 RES1    0.0000
     74 H39        4.4384    9.5269   -0.5383 H         1 RES1    0.0000
     75 H40        4.6710    8.0820    0.1079 H         1 RES1    0.0000
     76 C28       -0.6932    8.3533    2.1571 C.3       1 RES1    0.0000
     77 H41       -1.5768    8.0613    1.8474 H         1 RES1    0.0000
     78 H42       -0.6206    9.3264    2.0646 H         1 RES1    0.0000
     79 H43       -0.5785    8.1046    3.0975 H         1 RES1    0.0000
     80 C29        0.3832   -2.8801    9.8102 C.2       1 RES1    0.0000
     81 C30       -0.8501   -3.5731   10.2714 C.3       1 RES1    0.0000
     82 H44       -0.6332   -4.4981   10.5129 H         1 RES1    0.0000
     83 H45       -1.5142   -3.5711    9.5520 H         1 RES1    0.0000
     84 H46       -1.2131   -3.1082   11.0538 H         1 RES1    0.0000
@<TRIPOS>BOND
     1    1   63 1
     2    2   45 1
     3    3   15 1
     4    4   80 2
     5    5    8 2
     6    6    8 2
     7    7    8 1
     8    9   10 1
     9   11    9 1
    10   12    9 1
    11   13   12 1
    12   14   12 1
    13   15   12 1
    14   16   15 1
    15   17   15 1
    16   18   17 1
    17   19   17 1
    18   20   17 1
    19   21   20 1
    20   22   20 1
    21   23   22 1
    22   24   22 1
    23   25   22 1
    24   26   25 1
    25   27   25 1
    26   28   25 1
    27   29   28 1
    28   30   28 1
    29   31   30 1
    30   32    9 1
    31   33   30 1
    32   34   33 1
    33   35   33 1
    34   36   33 1
    35   37   36 1
    36   38   36 1
    37   39   36 1
    38   40   28 1
    39   41   40 1
    40   42   40 1
    41   43   42 1
    42   44   42 1
    43   45   42 1
    44   46   45 1
    45   47   39 1
    46   48   47 1
    47   49   39 1
    48   50   49 1
    49   51   49 1
    50   52   49 1
    51   53   32 1
    52   54   53 1
    53   55   53 1
    54   56   53 1
    55   57   47 1
    56   58   57 1
    57   59   57 1
    58   60   59 1
    59   61   59 1
    60   62   59 1
    61   63    2 1
    62   64    7 1
    63   65   64 2
    64   66   65 1
    65   67   65 1
    66   68   67 1
    67   69    1 1
    68   70   69 1
    69   71   69 1
    70   72   67 1
    71   73   72 1
    72   74   72 1
    73   75   72 1
    74   76    7 1
    75   77   76 1
    76   78   76 1
    77   79   76 1
    78   80    3 1
    79   81   80 1
    80   82   81 1
    81   83   81 1
    82   84   81 1
    83   20   32 1
    84   30   32 1
    85   39   40 1
    86   45   47 1
    87   57   63 1
    88   63   64 1
    89   67   69 1
@<TRIPOS>SUBSTRUCTURE
     1 RES1 1

@<TRIPOS>CRYSIN
  11.7343    9.8297   13.5735  90.0000 108.8270  90.0000   4 1

