# MOL2 file generated by ConQuest
# Please check atom types

@<TRIPOS>MOLECULE
SOLHUX
    20    20     1
SMALL
NO_CHARGES
****
Generated from CSD

@<TRIPOS>ATOM
      1 O1         0.8412    3.8195    6.2943 O.2       1 RES1    0.0000
      2 O2         1.9624    2.1112    6.9317 O.2       1 RES1    0.0000
      3 N1         1.4843    3.2170    7.1559 N.pl3     1 RES1    0.0000
      4 N2         1.9688    5.7266   12.1102 N.pl3     1 RES1    0.0000
      5 H1         1.7172    6.5779   12.1965 H         1 RES1    0.0000
      6 H2         2.2831    5.2955   12.7988 H         1 RES1    0.0000
      7 C1         1.6558    3.8282    8.4454 C.ar      1 RES1    0.0000
      8 C2         2.2656    3.1414    9.5222 C.ar      1 RES1    0.0000
      9 C3         2.3471    3.7936   10.7440 C.ar      1 RES1    0.0000
     10 H3         2.7538    3.3282   11.5132 H         1 RES1    0.0000
     11 C4         1.8632    5.1059   10.9220 C.ar      1 RES1    0.0000
     12 C5         1.2645    5.7708    9.8179 C.ar      1 RES1    0.0000
     13 C6         1.1699    5.1197    8.6008 C.ar      1 RES1    0.0000
     14 H4         0.7639    5.5601    7.8673 H         1 RES1    0.0000
     15 C7         2.8428    1.8294    9.4298 C.1       1 RES1    0.0000
     16 C8         3.3947    0.7783    9.4186 C.1       1 RES1    0.0000
     17 H5         3.8566   -0.0334    9.3606 H         1 RES1    0.0000
     18 C9         0.7435    7.0926   10.0027 C.1       1 RES1    0.0000
     19 C10        0.3071    8.1680   10.2416 C.1       1 RES1    0.0000
     20 H6        -0.0376    8.9755   10.4131 H         1 RES1    0.0000
@<TRIPOS>BOND
     1    1    3 2
     2    2    3 2
     3    3    7 1
     4    4    5 1
     5    6    4 1
     6    7    8 ar
     7    8    9 ar
     8    9   10 1
     9   11    4 1
    10   12   11 ar
    11   13    7 ar
    12   14   13 1
    13   15    8 1
    14   16   15 3
    15   17   16 1
    16   18   12 1
    17   19   18 3
    18   20   19 1
    19    9   11 ar
    20   12   13 ar
@<TRIPOS>SUBSTRUCTURE
     1 RES1 1

@<TRIPOS>CRYSIN
   3.7530   14.5400   15.8680  90.0000  92.5800  90.0000 231 1

