# MOL2 file generated by ConQuest
# Please check atom types

@<TRIPOS>MOLECULE
SOLTAP
    29    30     1
SMALL
USER_CHARGES
****
Generated from CSD

@<TRIPOS>ATOM
      1 O1        -0.8671    7.1122   12.8159 O.3       1 RES1    0.0000
      2 H1        -1.3373    7.5150   13.3536 H         1 RES1    0.0000
      3 O2         2.9760   11.5971   10.8454 O.2       1 RES1    0.0000
      4 O3         3.7120    9.9342    9.7104 O.2       1 RES1    0.0000
      5 O4        -0.4608    3.8295   11.3759 O.2       1 RES1   -1.0000
      6 N1         2.9652   10.4151   10.5557 N.pl3     1 RES1    0.0000
      7 N2         0.6530    6.1228   10.8796 N.pl3     1 RES1    1.0000
      8 H2         0.2707    5.5964   11.4413 H         1 RES1    0.0000
      9 C1         0.9569    5.6173    9.7092 C.2       1 RES1    0.0000
     10 H3         1.4219    6.1510    9.1049 H         1 RES1    0.0000
     11 C2         0.0621    7.9351   12.3356 C.ar      1 RES1    0.0000
     12 C3         0.2484    9.2399   12.7840 C.ar      1 RES1    0.0000
     13 H4        -0.2855    9.5684   13.4703 H         1 RES1    0.0000
     14 C4         1.2084   10.0497   12.2271 C.ar      1 RES1    0.0000
     15 H5         1.3251   10.9224   12.5262 H         1 RES1    0.0000
     16 C5         2.0002    9.5414   11.2109 C.ar      1 RES1    0.0000
     17 C6         1.8591    8.2490   10.7445 C.ar      1 RES1    0.0000
     18 H6         2.4067    7.9275   10.0645 H         1 RES1    0.0000
     19 C7         0.8913    7.4460   11.3069 C.ar      1 RES1    0.0000
     20 C8         0.6186    4.3180    9.3209 C.ar      1 RES1    0.0000
     21 C9        -0.1289    3.4477   10.1787 C.ar      1 RES1    0.0000
     22 C10       -0.4936    2.1832    9.6616 C.ar      1 RES1    0.0000
     23 H7        -0.9931    1.6008   10.1864 H         1 RES1    0.0000
     24 C11       -0.1235    1.8024    8.4034 C.ar      1 RES1    0.0000
     25 H8        -0.3704    0.9616    8.0921 H         1 RES1    0.0000
     26 C12        0.6197    2.6504    7.5708 C.ar      1 RES1    0.0000
     27 H9         0.8716    2.3684    6.7206 H         1 RES1    0.0000
     28 C13        0.9697    3.8864    8.0133 C.ar      1 RES1    0.0000
     29 H10        1.4448    4.4573    7.4536 H         1 RES1    0.0000
@<TRIPOS>BOND
     1    1    2 1
     2    3    6 2
     3    4    6 2
     4    5   21 1
     5    6   16 1
     6    7    8 1
     7    9    7 2
     8   10    9 1
     9   11    1 1
    10   12   11 ar
    11   13   12 1
    12   14   12 ar
    13   15   14 1
    14   16   14 ar
    15   17   16 ar
    16   18   17 1
    17   19    7 1
    18   20    9 1
    19   21   20 ar
    20   22   21 ar
    21   23   22 1
    22   24   22 ar
    23   25   24 1
    24   26   24 ar
    25   27   26 1
    26   28   20 ar
    27   29   28 1
    28   11   19 ar
    29   17   19 ar
    30   26   28 ar
@<TRIPOS>SUBSTRUCTURE
     1 RES1 1

@<TRIPOS>CRYSIN
   7.3949    9.1058   17.2734  90.0000  96.3870  90.0000  14 1

