# MOL2 file generated by ConQuest
# Please check atom types

@<TRIPOS>MOLECULE
SOLZOJ
    25    26     1
SMALL
USER_CHARGES
****
Generated from CSD

@<TRIPOS>ATOM
      1 O1         5.1272    1.0627    4.7799 O.3       1 RES1    0.0000
      2 N1         5.6035    1.1343    2.7169 N.pl3     1 RES1    1.0000
      3 N2         4.9222    0.4130    3.5798 N.2       1 RES1    0.0000
      4 C1         6.2377    2.2042    3.2265 C.2       1 RES1    0.0000
      5 H1         6.7805    2.8362    2.7493 H         1 RES1    0.0000
      6 C2         5.9423    2.2076    4.6089 C.2       1 RES1    0.0000
      7 O2         6.2268    2.9016    5.5687 O.2       1 RES1   -1.0000
      8 C3         5.6567    0.6534    1.3566 C.ar      1 RES1    0.0000
      9 C4         5.1199    1.4199    0.3161 C.ar      1 RES1    0.0000
     10 N3         4.4294    2.6164    0.5954 N.am      1 RES1    0.0000
     11 H2         4.0788    2.7264    1.3863 H         1 RES1    0.0000
     12 C5         5.2142    0.8869   -0.9771 C.ar      1 RES1    0.0000
     13 H3         4.8619    1.3790   -1.7217 H         1 RES1    0.0000
     14 C6         5.8122   -0.3473   -1.1887 C.ar      1 RES1    0.0000
     15 H4         5.8757   -0.6902   -2.0831 H         1 RES1    0.0000
     16 C7         6.3210   -1.0996   -0.1370 C.ar      1 RES1    0.0000
     17 H5         6.7243   -1.9553   -0.2992 H         1 RES1    0.0000
     18 C8         6.2363   -0.5930    1.1529 C.ar      1 RES1    0.0000
     19 H6         6.5750   -1.0977    1.8954 H         1 RES1    0.0000
     20 C9         4.1307    3.6024   -0.2998 C.2       1 RES1    0.0000
     21 O3         4.5806    3.6349   -1.4456 O.2       1 RES1    0.0000
     22 C10        3.2190    4.6817    0.2163 C.3       1 RES1    0.0000
     23 H7         3.7542    5.4501    0.5054 H         1 RES1    0.0000
     24 H8         2.7028    4.3386    0.9756 H         1 RES1    0.0000
     25 H9         2.6058    4.9602   -0.4962 H         1 RES1    0.0000
@<TRIPOS>BOND
     1    1    3 1
     2    2    3 2
     3    4    2 1
     4    5    4 1
     5    6    1 1
     6    7    6 1
     7    8    2 1
     8    9    8 ar
     9   10    9 1
    10   11   10 1
    11   12    9 ar
    12   13   12 1
    13   14   12 ar
    14   15   14 1
    15   16   14 ar
    16   17   16 1
    17   18    8 ar
    18   19   18 1
    19   20   10 1
    20   21   20 2
    21   22   20 1
    22   23   22 1
    23   24   22 1
    24   25   22 1
    25    4    6 2
    26   16   18 ar
@<TRIPOS>SUBSTRUCTURE
     1 RES1 1

@<TRIPOS>CRYSIN
   7.7348   13.7212    9.6698  90.0000 106.0830  90.0000  14 1

