# MOL2 file generated by ConQuest
# Please check atom types

@<TRIPOS>MOLECULE
SOMGOR
    54    56     2
SMALL
NO_CHARGES
****
Generated from CSD

@<TRIPOS>ATOM
      1 N1         5.9212    8.4617   13.6089 N.pl3     1 RES1    0.0000
      2 O1         5.1552    8.6836   12.4317 O.3       1 RES1    0.0000
      3 C1         5.9998    7.1588   13.8064 C.2       1 RES1    0.0000
      4 C2         5.3011    6.5621   12.7424 C.2       1 RES1    0.0000
      5 N2         4.7984    7.4477   11.9405 N.2       1 RES1    0.0000
      6 O2         6.3652    9.4635   14.1896 O.2       1 RES1    0.0000
      7 O3         6.4553    5.2623   15.1337 O.3       1 RES1    0.0000
      8 C3         6.8082    6.6358   14.9428 C.3       1 RES1    0.0000
      9 H1         7.7628    6.7096   14.7360 H         1 RES1    0.0000
     10 C4         6.5172    7.2797   16.2872 C.3       1 RES1    0.0000
     11 H2         7.0937    8.0436   16.4452 H         1 RES1    0.0000
     12 H3         5.5905    7.5586   16.3530 H         1 RES1    0.0000
     13 O4         6.8101    6.2003   17.1984 O.3       1 RES1    0.0000
     14 O5         4.9804    4.7926   11.1215 O.3       1 RES1    0.0000
     15 C5         6.4485    5.0023   16.5361 C.3       1 RES1    0.0000
     16 O6         2.8612    4.7812   12.0182 O.3       1 RES1    0.0000
     17 C6         5.1876    4.3228   16.8969 C.3       1 RES1    0.0000
     18 H4         5.0998    3.5064   16.3807 H         1 RES1    0.0000
     19 H5         4.4365    4.8975   16.6809 H         1 RES1    0.0000
     20 C7         5.1639    3.9937   18.3743 C.3       1 RES1    0.0000
     21 H6         5.1884    4.8154   18.8878 H         1 RES1    0.0000
     22 H7         4.3384    3.5308   18.5876 H         1 RES1    0.0000
     23 C8         6.3030    3.1537   18.7443 C.3       1 RES1    0.0000
     24 H8         6.2298    2.2971   18.2953 H         1 RES1    0.0000
     25 H9         6.2861    2.9949   19.7016 H         1 RES1    0.0000
     26 C9         7.5755    3.7976   18.3730 C.3       1 RES1    0.0000
     27 H10        8.3094    3.1940   18.5665 H         1 RES1    0.0000
     28 H11        7.6987    4.5987   18.9063 H         1 RES1    0.0000
     29 C10        7.6001    4.1670   16.8955 C.3       1 RES1    0.0000
     30 H12        8.4199    4.6459   16.6967 H         1 RES1    0.0000
     31 H13        7.5886    3.3575   16.3609 H         1 RES1    0.0000
     32 C11        5.0832    5.0776   12.4988 C.3       1 RES1    0.0000
     33 H14        5.8326    4.5721   12.8794 H         1 RES1    0.0000
     34 C12        3.7757    4.5584   13.0822 C.3       1 RES1    0.0000
     35 H15        3.8371    3.6159   13.3034 H         1 RES1    0.0000
     36 H16        3.5207    5.0563   13.8749 H         1 RES1    0.0000
     37 C13        3.5923    4.4915   10.8120 C.3       1 RES1    0.0000
     38 C14        3.4852    3.1325   10.2353 C.3       1 RES1    0.0000
     39 H17        2.5501    2.8862   10.1629 H         1 RES1    0.0000
     40 H18        3.9174    2.4962   10.8278 H         1 RES1    0.0000
     41 C15        4.1425    3.0656    8.8435 C.3       1 RES1    0.0000
     42 H19        5.0902    3.2556    8.9251 H         1 RES1    0.0000
     43 H20        4.0451    2.1709    8.4827 H         1 RES1    0.0000
     44 C16        3.5209    4.0438    7.9151 C.3       1 RES1    0.0000
     45 H21        2.5805    3.8363    7.7940 H         1 RES1    0.0000
     46 H22        3.9574    4.0058    7.0500 H         1 RES1    0.0000
     47 C17        3.6726    5.4105    8.5090 C.3       1 RES1    0.0000
     48 H23        3.2680    6.0635    7.9164 H         1 RES1    0.0000
     49 H24        4.6164    5.6218    8.5854 H         1 RES1    0.0000
     50 C18        3.0322    5.5116    9.8653 C.3       1 RES1    0.0000
     51 H25        3.1805    6.4002   10.2248 H         1 RES1    0.0000
     52 H26        2.0751    5.3794    9.7784 H         1 RES1    0.0000
     53 O7         6.0661    6.2938   17.1378 Du        2 SUP2    0.0000
     54 O8         3.2111    3.7976   12.0024 Du        2 SUP2    0.0000
@<TRIPOS>BOND
     1    1    2 1
     2    2    5 1
     3    3    1 2
     4    4    3 1
     5    5    4 2
     6    6    1 1
     7    7    8 1
     8    8    3 1
     9    9    8 1
    10   10    8 1
    11   11   10 1
    12   12   10 1
    13   13   10 1
    14   14   32 1
    15   15    7 1
    16   16   34 1
    17   17   15 1
    18   18   17 1
    19   19   17 1
    20   20   17 1
    21   21   20 1
    22   22   20 1
    23   23   20 1
    24   24   23 1
    25   25   23 1
    26   26   23 1
    27   27   26 1
    28   28   26 1
    29   29   15 1
    30   30   29 1
    31   31   29 1
    32   32    4 1
    33   33   32 1
    34   34   32 1
    35   35   34 1
    36   36   34 1
    37   37   14 1
    38   38   37 1
    39   39   38 1
    40   40   38 1
    41   41   38 1
    42   42   41 1
    43   43   41 1
    44   44   41 1
    45   45   44 1
    46   46   44 1
    47   47   44 1
    48   48   47 1
    49   49   47 1
    50   50   37 1
    51   51   50 1
    52   52   50 1
    53   13   15 1
    54   16   37 1
    55   26   29 1
    56   47   50 1
@<TRIPOS>SUBSTRUCTURE
     1 RES1 1
     2 SUP2 53

@<TRIPOS>CRYSIN
   9.2215    7.6012   13.2943  90.0000  97.9120  90.0000   4 1

