# MOL2 file generated by ConQuest
# Please check atom types

@<TRIPOS>MOLECULE
SOMJAG
    49    51     1
SMALL
NO_CHARGES
****
Generated from CSD

@<TRIPOS>ATOM
      1 C1         5.5713    6.3310    7.0118 C.3       1 RES1    0.0000
      2 C2         6.1184    5.1035    7.7321 C.3       1 RES1    0.0000
      3 C3         6.8854    3.4660    5.8878 C.2       1 RES1    0.0000
      4 C4         5.3838    1.9983    6.0376 C.2       1 RES1    0.0000
      5 C5         5.1003    2.9504    6.9766 C.2       1 RES1    0.0000
      6 C6         3.9162    6.4174    5.1944 C.3       1 RES1    0.0000
      7 C7         4.1306    5.1722    4.3561 C.3       1 RES1    0.0000
      8 C8         4.7039    5.8783    1.9246 C.2       1 RES1    0.0000
      9 C9         2.7556    6.0189    1.1275 C.2       1 RES1    0.0000
     10 C10        2.6227    5.5721    2.4073 C.2       1 RES1    0.0000
     11 C11        3.1922    6.6544    7.5336 C.3       1 RES1    0.0000
     12 C12        3.0139    8.1783    7.4500 C.3       1 RES1    0.0000
     13 C13        1.8502    9.0296    9.6093 C.2       1 RES1    0.0000
     14 C14       -0.1575    9.0049    8.9769 C.2       1 RES1    0.0000
     15 C15        0.5939    8.5997    7.9078 C.2       1 RES1    0.0000
     16 N1         4.1886    6.1434    6.5960 N.3       1 RES1    0.0000
     17 N2         6.0675    3.9045    6.8881 N.pl3     1 RES1    0.0000
     18 N3         6.5117    2.3273    5.3525 N.2       1 RES1    0.0000
     19 N4         3.8780    5.4744    2.9302 N.pl3     1 RES1    0.0000
     20 N5         4.0711    6.2010    0.8259 N.2       1 RES1    0.0000
     21 N6         1.9007    8.6279    8.3108 N.pl3     1 RES1    0.0000
     22 N7         0.6432    9.2744   10.0433 N.2       1 RES1    0.0000
     23 N8         8.0450    4.1600    5.4351 N.pl3     1 RES1    0.0000
     24 N9         6.1422    5.8816    2.0052 N.pl3     1 RES1    0.0000
     25 N10        3.0078    9.2003   10.4544 N.pl3     1 RES1    0.0000
     26 O1         8.2527    5.2999    5.8445 O.2       1 RES1    0.0000
     27 O2         8.7750    3.5793    4.6379 O.2       1 RES1    0.0000
     28 O3         6.6793    5.5205    3.0501 O.2       1 RES1    0.0000
     29 O4         6.7601    6.2226    1.0059 O.2       1 RES1    0.0000
     30 O5         4.1180    9.1117    9.9565 O.2       1 RES1    0.0000
     31 O6         2.7993    9.4424   11.6312 O.2       1 RES1    0.0000
     32 H1         5.6680    7.0833    7.6062 H         1 RES1    0.0000
     33 H2         6.1221    6.5267    6.2466 H         1 RES1    0.0000
     34 H3         7.0641    5.2497    8.0292 H         1 RES1    0.0000
     35 H4         5.5289    4.9255    8.4821 H         1 RES1    0.0000
     36 H5         4.9308    1.1752    5.8782 H         1 RES1    0.0000
     37 H6         4.3988    2.9888    7.5496 H         1 RES1    0.0000
     38 H7         4.3882    7.1342    4.8285 H         1 RES1    0.0000
     39 H8         2.9719    6.6323    5.0847 H         1 RES1    0.0000
     40 H9         4.9877    4.8385    4.4690 H         1 RES1    0.0000
     41 H10        3.4856    4.4944    4.6477 H         1 RES1    0.0000
     42 H11        2.0543    6.1255    0.4697 H         1 RES1    0.0000
     43 H12        1.8787    5.3292    2.9436 H         1 RES1    0.0000
     44 H13        2.3192    6.2224    7.3539 H         1 RES1    0.0000
     45 H14        3.4659    6.3901    8.4533 H         1 RES1    0.0000
     46 H15        3.8203    8.6485    7.7462 H         1 RES1    0.0000
     47 H16        2.6958    8.4373    6.5644 H         1 RES1    0.0000
     48 H17       -1.0932    9.1193    9.0273 H         1 RES1    0.0000
     49 H18        0.3126    8.3503    6.9616 H         1 RES1    0.0000
@<TRIPOS>BOND
     1    1    2 1
     2    2   17 1
     3    3   17 1
     4    4    5 2
     5    5   17 1
     6    6    7 1
     7    7   19 1
     8    8   19 1
     9    9   10 2
    10   10   19 1
    11   11   12 1
    12   12   21 1
    13   13   21 1
    14   14   15 2
    15   15   21 1
    16   16    1 1
    17   18    3 2
    18   20    8 2
    19   22   13 2
    20   23    3 1
    21   24    8 1
    22   25   13 1
    23   26   23 2
    24   27   23 2
    25   28   24 2
    26   29   24 2
    27   30   25 2
    28   31   25 2
    29   32    1 1
    30   33    1 1
    31   34    2 1
    32   35    2 1
    33   36    4 1
    34   37    5 1
    35   38    6 1
    36   39    6 1
    37   40    7 1
    38   41    7 1
    39   42    9 1
    40   43   10 1
    41   44   11 1
    42   45   11 1
    43   46   12 1
    44   47   12 1
    45   48   14 1
    46   49   15 1
    47    4   18 1
    48    6   16 1
    49    9   20 1
    50   11   16 1
    51   14   22 1
@<TRIPOS>SUBSTRUCTURE
     1 RES1 1

@<TRIPOS>CRYSIN
   7.6597   12.4224   10.0841  90.0000  99.9960  90.0000   4 1

