# MOL2 file generated by ConQuest
# Please check atom types

@<TRIPOS>MOLECULE
SOMKOU
    29    31     1
SMALL
NO_CHARGES
****
Generated from CSD

@<TRIPOS>ATOM
      1 O1         3.4541    2.1335    1.6370 O.3       1 RES1    0.0000
      2 O2        -0.0744    2.4811    2.1886 O.3       1 RES1    0.0000
      3 O3         0.8854    2.9314    4.6476 O.2       1 RES1    0.0000
      4 N1         1.2914    2.4609    2.4706 N.am      1 RES1    0.0000
      5 C1         2.0841    1.7504    1.4573 C.3       1 RES1    0.0000
      6 C2         1.6575    2.5565    3.7584 C.2       1 RES1    0.0000
      7 C3         3.0798    2.2658    4.0040 C.ar      1 RES1    0.0000
      8 C4         3.6047    2.2669    5.2905 C.ar      1 RES1    0.0000
      9 C5         4.9584    2.1349    5.4840 C.ar      1 RES1    0.0000
     10 C6         5.8044    1.9979    4.3917 C.ar      1 RES1    0.0000
     11 C7         5.3030    1.9708    3.1108 C.ar      1 RES1    0.0000
     12 C8         3.9363    2.0951    2.9193 C.ar      1 RES1    0.0000
     13 C9         1.7230    2.1323    0.0370 C.3       1 RES1    0.0000
     14 C10        2.2860    1.0047   -0.7966 C.3       1 RES1    0.0000
     15 C11        2.2195   -0.2323    0.0707 C.3       1 RES1    0.0000
     16 C12        1.9360    0.2334    1.4984 C.3       1 RES1    0.0000
     17 H1        -0.3397    3.3683    2.2229 H         1 RES1    0.0000
     18 H2         3.0048    2.3569    5.9965 H         1 RES1    0.0000
     19 H3         5.3214    2.1905    6.3189 H         1 RES1    0.0000
     20 H4         6.6989    1.9095    4.5694 H         1 RES1    0.0000
     21 H5         5.9033    1.9110    2.3327 H         1 RES1    0.0000
     22 H6         0.7658    2.1325   -0.0823 H         1 RES1    0.0000
     23 H7         1.9942    3.0039   -0.2058 H         1 RES1    0.0000
     24 H8         1.7838    0.9727   -1.6260 H         1 RES1    0.0000
     25 H9         3.3764    1.2094   -1.0223 H         1 RES1    0.0000
     26 H10        1.5115   -0.8585   -0.2127 H         1 RES1    0.0000
     27 H11        3.0585   -0.8483    0.0549 H         1 RES1    0.0000
     28 H12        2.5222   -0.1463    2.1338 H         1 RES1    0.0000
     29 H13        1.0057    0.0142    1.7495 H         1 RES1    0.0000
@<TRIPOS>BOND
     1    1    5 1
     2    2    4 1
     3    3    6 2
     4    4    5 1
     5    5   13 1
     6    6    4 1
     7    7    6 1
     8    8    7 ar
     9    9    8 ar
    10   10    9 ar
    11   11   10 ar
    12   12    1 1
    13   13   14 1
    14   14   15 1
    15   15   16 1
    16   16    5 1
    17   17    2 1
    18   18    8 1
    19   19    9 1
    20   20   10 1
    21   21   11 1
    22   22   13 1
    23   23   13 1
    24   24   14 1
    25   25   14 1
    26   26   15 1
    27   27   15 1
    28   28   16 1
    29   29   16 1
    30    7   12 ar
    31   11   12 ar
@<TRIPOS>SUBSTRUCTURE
     1 RES1 1

@<TRIPOS>CRYSIN
   8.5510    9.3310    7.2360 103.3800 104.6800  80.3700   2 1

