# MOL2 file generated by ConQuest
# Please check atom types

@<TRIPOS>MOLECULE
SOMNIT
    68    72     2
SMALL
NO_CHARGES
****
Generated from CSD

@<TRIPOS>ATOM
      1 O1         1.6732   -1.5922   15.5904 O.3       1 RES1    0.0000
      2 H1         1.8611   -2.2884   16.0217 H         1 RES1    0.0000
      3 N1         4.4044    0.1630   10.7954 N.pl3     1 RES1    0.0000
      4 N2         4.0689   -1.1265   10.4788 N.2       1 RES1    0.0000
      5 N3         4.1494    1.7377   12.6138 N.pl3     1 RES1    0.0000
      6 N4         2.4079   -1.8028   14.4083 N.2       1 RES1    0.0000
      7 C1         5.1774    0.9285    9.8730 C.ar      1 RES1    0.0000
      8 C2         4.8683    0.8593    8.5233 C.ar      1 RES1    0.0000
      9 H2         4.1286    0.3425    8.2261 H         1 RES1    0.0000
     10 C3         5.6510    1.5522    7.6124 C.ar      1 RES1    0.0000
     11 H3         5.4558    1.4996    6.6846 H         1 RES1    0.0000
     12 C4         6.7131    2.3182    8.0495 C.ar      1 RES1    0.0000
     13 H4         7.2465    2.7900    7.4207 H         1 RES1    0.0000
     14 C5         7.0037    2.4010    9.3975 C.ar      1 RES1    0.0000
     15 H5         7.7251    2.9448    9.6931 H         1 RES1    0.0000
     16 C6         6.2469    1.6943   10.3238 C.ar      1 RES1    0.0000
     17 H6         6.4568    1.7341   11.2496 H         1 RES1    0.0000
     18 C7         3.9463    0.4840   12.0324 C.2       1 RES1    0.0000
     19 C8         3.3187   -0.6281   12.5545 C.2       1 RES1    0.0000
     20 C9         3.4285   -1.6137   11.5372 C.2       1 RES1    0.0000
     21 C10        2.9103   -3.0134   11.5227 C.3       1 RES1    0.0000
     22 H7         3.0868   -3.4180   10.6475 H         1 RES1    0.0000
     23 H8         1.9450   -3.0060   11.6902 H         1 RES1    0.0000
     24 H9         3.3593   -3.5355   12.2205 H         1 RES1    0.0000
     25 C11        4.7569    1.9314   13.8412 C.2       1 RES1    0.0000
     26 H10        5.0262    1.2495   14.4462 H         1 RES1    0.0000
     27 C12        4.9004    3.2557   14.0273 C.2       1 RES1    0.0000
     28 H11        5.2868    3.6746   14.7870 H         1 RES1    0.0000
     29 C13        4.3709    3.9151   12.8902 C.2       1 RES1    0.0000
     30 H12        4.3404    4.8541   12.7520 H         1 RES1    0.0000
     31 C14        3.9160    2.9704   12.0358 C.2       1 RES1    0.0000
     32 H13        3.5109    3.1268   11.1916 H         1 RES1    0.0000
     33 C15        2.6349   -0.6761   13.8369 C.2       1 RES1    0.0000
     34 H14        2.3557    0.1300   14.2543 H         1 RES1    0.0000
     35 N5         9.8660    4.1996    6.8032 N.pl3     2 RES2    0.0000
     36 O2         8.1470    9.5548    8.1728 O.3       2 RES2    0.0000
     37 H15        7.9093    9.8976    8.9028 H         2 RES2    0.0000
     38 N6         9.8348    4.1522    8.1732 N.2       2 RES2    0.0000
     39 N7         9.4604    5.7385    4.9985 N.pl3     2 RES2    0.0000
     40 N8         8.4453    8.2243    8.4787 N.2       2 RES2    0.0000
     41 C16       10.1815    3.0152    6.0582 C.ar      2 RES2    0.0000
     42 C17       11.3624    2.3520    6.3131 C.ar      2 RES2    0.0000
     43 H16       11.9737    2.6859    6.9599 H         2 RES2    0.0000
     44 C18       11.6453    1.1929    5.6127 C.ar      2 RES2    0.0000
     45 H17       12.4567    0.7277    5.7795 H         2 RES2    0.0000
     46 C19       10.7581    0.7066    4.6732 C.ar      2 RES2    0.0000
     47 H18       10.9569   -0.0934    4.2002 H         2 RES2    0.0000
     48 C20        9.5794    1.3875    4.4220 C.ar      2 RES2    0.0000
     49 H19        8.9723    1.0576    3.7709 H         2 RES2    0.0000
     50 C21        9.2821    2.5474    5.1161 C.ar      2 RES2    0.0000
     51 H20        8.4732    3.0157    4.9475 H         2 RES2    0.0000
     52 C22        9.4680    5.4141    6.3589 C.2       2 RES2    0.0000
     53 C23        9.1461    6.1920    7.4585 C.2       2 RES2    0.0000
     54 C24        9.3903    5.3417    8.5666 C.2       2 RES2    0.0000
     55 C25        9.2285    5.6273   10.0265 C.3       2 RES2    0.0000
     56 H21        9.4769    4.8329   10.5439 H         2 RES2    0.0000
     57 H22        8.2943    5.8583   10.2119 H         2 RES2    0.0000
     58 H23        9.8064    6.3763   10.2788 H         2 RES2    0.0000
     59 C26        8.4276    6.3501    4.3255 C.2       2 RES2    0.0000
     60 H24        7.5831    6.5813    4.6938 H         2 RES2    0.0000
     61 C27        8.8196    6.5649    3.0502 C.2       2 RES2    0.0000
     62 H25        8.3036    6.9741    2.3658 H         2 RES2    0.0000
     63 C28       10.1295    6.0737    2.9207 C.2       2 RES2    0.0000
     64 H26       10.6592    6.0935    2.1323 H         2 RES2    0.0000
     65 C29       10.5044    5.5676    4.1187 C.2       2 RES2    0.0000
     66 H27       11.3411    5.1650    4.3176 H         2 RES2    0.0000
     67 C30        8.7722    7.5909    7.4159 C.2       2 RES2    0.0000
     68 H28        8.7688    8.0469    6.5824 H         2 RES2    0.0000
@<TRIPOS>BOND
     1    1    2 1
     2    3    4 1
     3    4   20 2
     4    5   18 1
     5    6    1 1
     6    7    3 1
     7    8    7 ar
     8    9    8 1
     9   10    8 ar
    10   11   10 1
    11   12   10 ar
    12   13   12 1
    13   14   12 ar
    14   15   14 1
    15   16    7 ar
    16   17   16 1
    17   18    3 1
    18   19   18 2
    19   20   19 1
    20   21   20 1
    21   22   21 1
    22   23   21 1
    23   24   21 1
    24   25    5 1
    25   26   25 1
    26   27   25 2
    27   28   27 1
    28   29   27 1
    29   30   29 1
    30   31    5 1
    31   32   31 1
    32   33    6 2
    33   34   33 1
    34   35   38 1
    35   36   37 1
    36   38   54 2
    37   39   52 1
    38   40   36 1
    39   41   35 1
    40   42   41 ar
    41   43   42 1
    42   44   42 ar
    43   45   44 1
    44   46   44 ar
    45   47   46 1
    46   48   46 ar
    47   49   48 1
    48   50   41 ar
    49   51   50 1
    50   52   35 1
    51   53   52 2
    52   54   53 1
    53   55   54 1
    54   56   55 1
    55   57   55 1
    56   58   55 1
    57   59   39 1
    58   60   59 1
    59   61   59 2
    60   62   61 1
    61   63   61 1
    62   64   63 1
    63   65   39 1
    64   66   65 1
    65   67   40 2
    66   68   67 1
    67   14   16 ar
    68   19   33 1
    69   29   31 2
    70   48   50 ar
    71   53   67 1
    72   63   65 2
@<TRIPOS>SUBSTRUCTURE
     1 RES1 1
     2 RES2 35

@<TRIPOS>CRYSIN
   9.1497   12.3932   12.7294  87.4070  82.6740  75.0190   2 1

