# MOL2 file generated by ConQuest
# Please check atom types

@<TRIPOS>MOLECULE
SOMXOJ
    92    98     2
SMALL
NO_CHARGES
****
Generated from CSD

@<TRIPOS>ATOM
      1 O1         8.2590   12.1986    5.3571 O.2       1 RES1    0.0000
      2 O2         7.1164   13.4441    6.7032 O.2       1 RES1    0.0000
      3 C1        -3.0063    2.2750    9.0402 C.2       1 RES1    0.0000
      4 C2        -2.0467    2.9595    8.2081 C.2       1 RES1    0.0000
      5 H1        -2.0047    2.8582    7.2646 H         1 RES1    0.0000
      6 C3        -1.2232    3.7524    8.9011 C.2       1 RES1    0.0000
      7 C4        -0.1265    4.5957    8.4183 C.ar      1 RES1    0.0000
      8 N1         7.2897   12.4017    6.0812 N.pl3     1 RES1    0.0000
      9 C5        -5.4674    1.4487   10.6109 C.2       1 RES1    0.0000
     10 H2        -6.0733    0.9627   11.1577 H         1 RES1    0.0000
     11 C6        -4.8644    0.7787    9.6151 C.2       1 RES1    0.0000
     12 H3        -5.1048   -0.1337    9.5016 H         1 RES1    0.0000
     13 C7        -3.8866    1.3160    8.7049 C.2       1 RES1    0.0000
     14 H4        -3.8614    0.9755    7.8182 H         1 RES1    0.0000
     15 C8         0.8286    5.1313    9.2805 C.ar      1 RES1    0.0000
     16 H5         0.7966    4.9152   10.2057 H         1 RES1    0.0000
     17 C9         1.8225    5.9713    8.8129 C.ar      1 RES1    0.0000
     18 H6         2.4733    6.3114    9.4150 H         1 RES1    0.0000
     19 C10        1.8760    6.3226    7.4705 C.ar      1 RES1    0.0000
     20 C11        2.8170    7.3196    7.0327 C.1       1 RES1    0.0000
     21 C12        3.5645    8.2161    6.7562 C.1       1 RES1    0.0000
     22 C13        4.4751    9.2975    6.5271 C.ar      1 RES1    0.0000
     23 C14        5.4638    9.2095    5.5529 C.ar      1 RES1    0.0000
     24 H7         5.5138    8.4409    4.9957 H         1 RES1    0.0000
     25 C15        6.3736   10.2372    5.3932 C.ar      1 RES1    0.0000
     26 H8         7.0510   10.1823    4.7295 H         1 RES1    0.0000
     27 C16        6.2852   11.3397    6.2069 C.ar      1 RES1    0.0000
     28 C17        4.3953   10.4406    7.3122 C.ar      1 RES1    0.0000
     29 H9         3.7074   10.5133    7.9626 H         1 RES1    0.0000
     30 C18        5.2960   11.4661    7.1620 C.ar      1 RES1    0.0000
     31 H10        5.2399   12.2441    7.7026 H         1 RES1    0.0000
     32 C19       -2.8633    2.7763   10.4513 C.3       1 RES1    0.0000
     33 H11       -2.7533    2.0020   11.0741 H         1 RES1    0.0000
     34 C20       -1.5368    3.6120   10.4071 C.3       1 RES1    0.0000
     35 C21       -0.4496    2.8173   11.0289 C.1       1 RES1    0.0000
     36 N2         0.3878    2.1549   11.4281 N.1       1 RES1    0.0000
     37 C22       -1.6440    4.9108   11.1130 C.1       1 RES1    0.0000
     38 N3        -1.7521    5.9148   11.6359 N.1       1 RES1    0.0000
     39 C23       -4.1233    3.5261   10.7924 C.2       1 RES1    0.0000
     40 H12       -4.1061    4.4674   10.9144 H         1 RES1    0.0000
     41 C24       -5.2745    2.8427   10.9223 C.2       1 RES1    0.0000
     42 H13       -6.0274    3.3224   11.2475 H         1 RES1    0.0000
     43 C25       -0.0213    4.8988    7.0611 C.ar      1 RES1    0.0000
     44 H14       -0.6412    4.5194    6.4495 H         1 RES1    0.0000
     45 C26        0.9636    5.7353    6.5917 C.ar      1 RES1    0.0000
     46 H15        1.0246    5.9162    5.6602 H         1 RES1    0.0000
     47 O3         0.6938   -1.2835   -0.4028 O.2       2 RES2    0.0000
     48 O4         0.6959   -0.8775   -2.5095 O.2       2 RES2    0.0000
     49 C27        8.8156    6.8673    0.7555 C.ar      2 RES2    0.0000
     50 N4         1.1394   -0.7223   -1.3877 N.pl3     2 RES2    0.0000
     51 C28        2.2465    0.2281   -1.2149 C.ar      2 RES2    0.0000
     52 C29        2.6194    0.5781    0.0563 C.ar      2 RES2    0.0000
     53 H16        2.1958    0.1915    0.8136 H         2 RES2    0.0000
     54 C30        3.6246    1.5077    0.2080 C.ar      2 RES2    0.0000
     55 H17        3.8995    1.7669    1.0797 H         2 RES2    0.0000
     56 C31        4.2448    2.0756   -0.9086 C.ar      2 RES2    0.0000
     57 C32        5.2454    3.0811   -0.7452 C.1       2 RES2    0.0000
     58 C33        6.0551    3.9478   -0.5901 C.1       2 RES2    0.0000
     59 C34        7.0215    4.9311   -0.2091 C.ar      2 RES2    0.0000
     60 C35        7.6743    4.7489    1.0063 C.ar      2 RES2    0.0000
     61 H18        7.5103    3.9654    1.5177 H         2 RES2    0.0000
     62 C36        8.5539    5.6951    1.4703 C.ar      2 RES2    0.0000
     63 H19        8.9967    5.5506    2.2979 H         2 RES2    0.0000
     64 C37        9.7052    7.8879    1.3069 C.2       2 RES2    0.0000
     65 C38       10.2324    7.7675    2.7580 C.3       2 RES2    0.0000
     66 C39       11.1094    9.0400    2.9974 C.3       2 RES2    0.0000
     67 H20       12.0515    8.7540    3.1738 H         2 RES2    0.0000
     68 C40       10.6787    9.9428    4.0802 C.2       2 RES2    0.0000
     69 H21        9.8879    9.7396    4.5668 H         2 RES2    0.0000
     70 C41       11.3709   11.0343    4.3919 C.2       2 RES2    0.0000
     71 H22       11.1020   11.5036    5.1736 H         2 RES2    0.0000
     72 C42       12.4891   11.5728    3.6589 C.2       2 RES2    0.0000
     73 H23       13.1531   12.0298    4.1623 H         2 RES2    0.0000
     74 C43        7.3052    6.0723   -0.9570 C.ar      2 RES2    0.0000
     75 H24        6.8905    6.1938   -1.8036 H         2 RES2    0.0000
     76 C44        8.1818    7.0260   -0.4844 C.ar      2 RES2    0.0000
     77 H25        8.3579    7.8017   -1.0052 H         2 RES2    0.0000
     78 C45       10.2133    8.9965    0.7529 C.2       2 RES2    0.0000
     79 H26       10.0336    9.2629   -0.1414 H         2 RES2    0.0000
     80 C46       11.0552    9.7439    1.6433 C.2       2 RES2    0.0000
     81 C47        9.0686    7.6605    3.6924 C.1       2 RES2    0.0000
     82 N5         8.1676    7.5869    4.3823 N.1       2 RES2    0.0000
     83 C48       11.1269    6.5942    2.9329 C.1       2 RES2    0.0000
     84 N6        11.8540    5.7157    2.9886 N.1       2 RES2    0.0000
     85 C49       12.6816   11.4882    2.3343 C.2       2 RES2    0.0000
     86 H27       13.4546   11.9222    1.9937 H         2 RES2    0.0000
     87 C50       11.8399   10.8087    1.3626 C.2       2 RES2    0.0000
     88 H28       11.8427   11.1342    0.4699 H         2 RES2    0.0000
     89 C51        3.8587    1.6641   -2.1839 C.ar      2 RES2    0.0000
     90 H29        4.2963    2.0208   -2.9487 H         2 RES2    0.0000
     91 C52        2.8483    0.7458   -2.3398 C.ar      2 RES2    0.0000
     92 H30        2.5701    0.4745   -3.2057 H         2 RES2    0.0000
@<TRIPOS>BOND
     1    1    8 2
     2    2    8 2
     3    3    4 1
     4    4    5 1
     5    6    4 2
     6    7    6 1
     7    8   27 1
     8    9   10 1
     9   11    9 2
    10   12   11 1
    11   13    3 2
    12   14   13 1
    13   15    7 ar
    14   16   15 1
    15   17   15 ar
    16   18   17 1
    17   19   17 ar
    18   20   19 1
    19   21   20 3
    20   22   21 1
    21   23   22 ar
    22   24   23 1
    23   25   23 ar
    24   26   25 1
    25   27   25 ar
    26   28   22 ar
    27   29   28 1
    28   30   27 ar
    29   31   30 1
    30   32    3 1
    31   33   32 1
    32   34    6 1
    33   35   34 1
    34   36   35 3
    35   37   34 1
    36   38   37 3
    37   39   32 1
    38   40   39 1
    39   41    9 1
    40   42   41 1
    41   43    7 ar
    42   44   43 1
    43   45   19 ar
    44   46   45 1
    45   47   50 2
    46   48   50 2
    47   49   62 ar
    48   50   51 1
    49   51   52 ar
    50   52   53 1
    51   54   52 ar
    52   55   54 1
    53   56   54 ar
    54   57   56 1
    55   58   57 3
    56   59   58 1
    57   60   59 ar
    58   61   60 1
    59   62   60 ar
    60   63   62 1
    61   64   49 1
    62   65   64 1
    63   66   65 1
    64   67   66 1
    65   68   66 1
    66   69   68 1
    67   70   68 2
    68   71   70 1
    69   72   70 1
    70   73   72 1
    71   74   59 ar
    72   75   74 1
    73   76   49 ar
    74   77   76 1
    75   78   64 2
    76   79   78 1
    77   80   66 1
    78   81   65 1
    79   82   81 3
    80   83   65 1
    81   84   83 3
    82   85   72 2
    83   86   85 1
    84   87   80 2
    85   88   87 1
    86   89   56 ar
    87   90   89 1
    88   91   51 ar
    89   92   91 1
    90   11   13 1
    91   28   30 ar
    92   32   34 1
    93   39   41 2
    94   43   45 ar
    95   74   76 ar
    96   78   80 1
    97   85   87 1
    98   89   91 ar
@<TRIPOS>SUBSTRUCTURE
     1 RES1 1
     2 RES2 47

@<TRIPOS>CRYSIN
   9.1277   14.7069   16.2724  69.2940  87.3590  76.1250   2 1

