# MOL2 file generated by ConQuest
# Please check atom types

@<TRIPOS>MOLECULE
SOMZAW
    58    61     1
SMALL
NO_CHARGES
****
Generated from CSD

@<TRIPOS>ATOM
      1 O1         8.1637    6.2499    0.9801 O.3       1 RES1    0.0000
      2 O2        10.0602    7.3879    4.6278 O.2       1 RES1    0.0000
      3 O3        11.4137    7.1010    2.8607 O.3       1 RES1    0.0000
      4 O4         8.5929   10.5814    2.8550 O.2       1 RES1    0.0000
      5 O5        10.7420   10.1069    3.1862 O.3       1 RES1    0.0000
      6 N1         8.0933    6.3143    2.4172 N.3       1 RES1    0.0000
      7 C1         7.9677    7.7451    2.8062 C.3       1 RES1    0.0000
      8 H1         7.8769    7.7586    3.7819 H         1 RES1    0.0000
      9 C2         9.3791    8.3204    2.4916 C.3       1 RES1    0.0000
     10 C3         9.7620    8.0651    1.0449 C.2       1 RES1    0.0000
     11 C4         9.4999    6.6401    0.6082 C.3       1 RES1    0.0000
     12 H2         9.6055    6.5686   -0.3530 H         1 RES1    0.0000
     13 H3        10.1422    6.0468    1.0286 H         1 RES1    0.0000
     14 C5         7.0753    5.4360    2.8764 C.ar      1 RES1    0.0000
     15 C6         6.3406    4.6205    2.0257 C.ar      1 RES1    0.0000
     16 H4         6.4545    4.6820    1.1046 H         1 RES1    0.0000
     17 C7         5.4362    3.7139    2.5578 C.ar      1 RES1    0.0000
     18 H5         4.9504    3.1626    1.9876 H         1 RES1    0.0000
     19 C8         5.2473    3.6193    3.9177 C.ar      1 RES1    0.0000
     20 H6         4.6327    3.0132    4.2642 H         1 RES1    0.0000
     21 C9         5.9768    4.4330    4.7670 C.ar      1 RES1    0.0000
     22 H7         5.8519    4.3756    5.6870 H         1 RES1    0.0000
     23 C10        6.8907    5.3293    4.2521 C.ar      1 RES1    0.0000
     24 H8         7.3858    5.8653    4.8279 H         1 RES1    0.0000
     25 C11        6.7236    8.4174    2.2522 C.ar      1 RES1    0.0000
     26 C12        5.6827    8.6509    3.1444 C.ar      1 RES1    0.0000
     27 H9         5.8050    8.4586    4.0458 H         1 RES1    0.0000
     28 C13        4.4727    9.1620    2.7208 C.ar      1 RES1    0.0000
     29 H10        3.7934    9.3260    3.3344 H         1 RES1    0.0000
     30 C14        4.2750    9.4285    1.3783 C.ar      1 RES1    0.0000
     31 H11        3.4562    9.7560    1.0840 H         1 RES1    0.0000
     32 C15        5.2984    9.2068    0.4768 C.ar      1 RES1    0.0000
     33 H12        5.1684    9.3895   -0.4258 H         1 RES1    0.0000
     34 C16        6.5267    8.7107    0.9141 C.ar      1 RES1    0.0000
     35 H13        7.2160    8.5763    0.3041 H         1 RES1    0.0000
     36 C17        9.4886    9.7968    2.8649 C.2       1 RES1    0.0000
     37 C18       11.0047   11.4820    3.5462 C.3       1 RES1    0.0000
     38 H14       10.5628   12.0658    2.9250 H         1 RES1    0.0000
     39 H15       11.9509   11.6445    3.5202 H         1 RES1    0.0000
     40 H16       10.6763   11.6498    4.4325 H         1 RES1    0.0000
     41 C19       10.3206    7.5464    3.4610 C.2       1 RES1    0.0000
     42 C20       12.3371    6.3469    3.7015 C.3       1 RES1    0.0000
     43 H17       12.5956    6.8834    4.4542 H         1 RES1    0.0000
     44 H18       13.1167    6.1145    3.1921 H         1 RES1    0.0000
     45 H19       11.9067    5.5471    4.0122 H         1 RES1    0.0000
     46 C21       10.2462    8.9972    0.2240 C.2       1 RES1    0.0000
     47 H20       10.2562    9.8774    0.5268 H         1 RES1    0.0000
     48 C22       10.7668    8.7329   -1.1266 C.ar      1 RES1    0.0000
     49 C23       10.3532    9.4750   -2.2321 C.ar      1 RES1    0.0000
     50 H21        9.7581   10.1802   -2.1212 H         1 RES1    0.0000
     51 C24       10.8278    9.1634   -3.4984 C.ar      1 RES1    0.0000
     52 H22       10.5392    9.6530   -4.2348 H         1 RES1    0.0000
     53 C25       11.7291    8.1249   -3.6711 C.ar      1 RES1    0.0000
     54 H23       12.0274    7.9035   -4.5237 H         1 RES1    0.0000
     55 C26       12.1811    7.4216   -2.5796 C.ar      1 RES1    0.0000
     56 H24       12.8069    6.7420   -2.6904 H         1 RES1    0.0000
     57 C27       11.7080    7.7253   -1.3191 C.ar      1 RES1    0.0000
     58 H25       12.0223    7.2478   -0.5854 H         1 RES1    0.0000
@<TRIPOS>BOND
     1    1    6 1
     2    2   41 2
     3    3   41 1
     4    4   36 2
     5    5   36 1
     6    6    7 1
     7    7    8 1
     8    9    7 1
     9   10    9 1
    10   11    1 1
    11   12   11 1
    12   13   11 1
    13   14    6 1
    14   15   14 ar
    15   16   15 1
    16   17   15 ar
    17   18   17 1
    18   19   17 ar
    19   20   19 1
    20   21   19 ar
    21   22   21 1
    22   23   14 ar
    23   24   23 1
    24   25    7 1
    25   26   25 ar
    26   27   26 1
    27   28   26 ar
    28   29   28 1
    29   30   28 ar
    30   31   30 1
    31   32   30 ar
    32   33   32 1
    33   34   25 ar
    34   35   34 1
    35   36    9 1
    36   37    5 1
    37   38   37 1
    38   39   37 1
    39   40   37 1
    40   41    9 1
    41   42    3 1
    42   43   42 1
    43   44   42 1
    44   45   42 1
    45   46   10 2
    46   47   46 1
    47   48   46 1
    48   49   48 ar
    49   50   49 1
    50   51   49 ar
    51   52   51 1
    52   53   51 ar
    53   54   53 1
    54   55   53 ar
    55   56   55 1
    56   57   48 ar
    57   58   57 1
    58   10   11 1
    59   21   23 ar
    60   32   34 ar
    61   55   57 ar
@<TRIPOS>SUBSTRUCTURE
     1 RES1 1

@<TRIPOS>CRYSIN
   9.4825   11.4380   11.9590  65.3300  84.6100  72.8500   2 1

