# MOL2 file generated by ConQuest
# Please check atom types

@<TRIPOS>MOLECULE
SONBUS
    33    34     1
SMALL
NO_CHARGES
****
Generated from CSD

@<TRIPOS>ATOM
      1 C1        -2.3472    2.2476    9.6190 C.2       1 RES1    0.0000
      2 N1        -2.0291    3.1118   10.5283 N.2       1 RES1    0.0000
      3 N2        -1.6491    4.3446   10.1081 N.3       1 RES1    0.0000
      4 C2        -1.3034    5.2568   11.0418 C.ar      1 RES1    0.0000
      5 C3        -0.9090    6.5828   10.7718 C.ar      1 RES1    0.0000
      6 C4        -0.6139    7.4856   11.7725 C.ar      1 RES1    0.0000
      7 C5        -0.6797    7.0812   13.0492 C.ar      1 RES1    0.0000
      8 C6        -1.0640    5.7929   13.3963 C.ar      1 RES1    0.0000
      9 C7        -1.3756    4.9089   12.4241 C.ar      1 RES1    0.0000
     10 O1        -3.2132    0.1326    8.0662 O.3       1 RES1    0.0000
     11 N3        -2.9237    1.3100    6.0892 N.ar      1 RES1    0.0000
     12 C8        -2.8595    1.2319    7.4025 C.ar      1 RES1    0.0000
     13 C9        -2.4201    2.3416    8.1596 C.ar      1 RES1    0.0000
     14 N4        -2.0572    3.4851    7.5973 N.ar      1 RES1    0.0000
     15 C10       -2.1398    3.5171    6.2536 C.ar      1 RES1    0.0000
     16 C11       -2.5692    2.4733    5.5311 C.ar      1 RES1    0.0000
     17 N5        -0.8105    7.0718    9.3957 N.pl3     1 RES1    0.0000
     18 O2        -1.0005    6.2913    8.4640 O.2       1 RES1    0.0000
     19 O3        -0.5108    8.2257    9.2191 O.2       1 RES1    0.0000
     20 N6        -0.3795    8.0489   14.1209 N.pl3     1 RES1    0.0000
     21 O4         0.0350    9.1473   13.7901 O.2       1 RES1    0.0000
     22 O5        -0.5350    7.7179   15.2819 O.2       1 RES1    0.0000
     23 C12       -3.5662   -1.0156    7.2624 C.3       1 RES1    0.0000
     24 H1        -2.5675    1.3890    9.9660 H         1 RES1    0.0000
     25 H2        -1.6295    4.5628    9.1826 H         1 RES1    0.0000
     26 H3        -0.3562    8.3724   11.5574 H         1 RES1    0.0000
     27 H4        -1.1243    5.5408   14.3097 H         1 RES1    0.0000
     28 H5        -1.6456    4.0287   12.6656 H         1 RES1    0.0000
     29 H6        -1.8976    4.3155    5.7990 H         1 RES1    0.0000
     30 H7        -2.6253    2.5532    4.5852 H         1 RES1    0.0000
     31 H8        -4.3026   -0.8050    6.7063 H         1 RES1    0.0000
     32 H9        -2.8207   -1.2611    6.7225 H         1 RES1    0.0000
     33 H10       -3.7912   -1.7435    7.8308 H         1 RES1    0.0000
@<TRIPOS>BOND
     1    1    2 2
     2    2    3 1
     3    3    4 1
     4    4    5 ar
     5    5    6 ar
     6    6    7 ar
     7    7    8 ar
     8    8    9 ar
     9    9    4 ar
    10   10   12 1
    11   11   12 ar
    12   12   13 ar
    13   13    1 1
    14   14   13 ar
    15   15   14 ar
    16   16   11 ar
    17   17    5 1
    18   18   17 2
    19   19   17 2
    20   20    7 1
    21   21   20 2
    22   22   20 2
    23   23   10 1
    24   24    1 1
    25   25    3 1
    26   26    6 1
    27   27    8 1
    28   28    9 1
    29   29   15 1
    30   30   16 1
    31   31   23 1
    32   32   23 1
    33   33   23 1
    34   15   16 ar
@<TRIPOS>SUBSTRUCTURE
     1 RES1 1

@<TRIPOS>CRYSIN
   7.1026    9.4040   21.3720  90.0000 108.2460  90.0000  14 1

