# MOL2 file generated by ConQuest
# Please check atom types

@<TRIPOS>MOLECULE
SONDEE
    22    22     1
SMALL
NO_CHARGES
****
Generated from CSD

@<TRIPOS>ATOM
      1 N1         8.9478    0.9947    3.2164 N.pl3     1 RES1    0.0000
      2 C1         9.9962    0.7956    2.3880 C.ar      1 RES1    0.0000
      3 N2        10.5490    1.9209    1.9794 N.ar      1 RES1    0.0000
      4 C2         9.8174    2.9100    2.5467 C.ar      1 RES1    0.0000
      5 C3         8.8394    2.3733    3.3035 C.ar      1 RES1    0.0000
      6 C4         8.0450   -0.0510    3.7069 C.3       1 RES1    0.0000
      7 C5        10.4457   -0.5710    1.9917 C.3       1 RES1    0.0000
      8 O1        11.5497   -0.3727    1.1100 O.3       1 RES1    0.0000
      9 C6        12.1634   -1.5100    0.6851 C.2       1 RES1    0.0000
     10 O2        11.7836   -2.6098    1.0209 O.2       1 RES1    0.0000
     11 N3        13.1831   -1.2241   -0.0983 N.am      1 RES1    0.0000
     12 N4         7.9213    3.0494    4.1483 N.pl3     1 RES1    0.0000
     13 O3         7.8652    4.2743    4.0325 O.2       1 RES1    0.0000
     14 O4         7.2593    2.4163    4.9562 O.2       1 RES1    0.0000
     15 H1         7.6651    0.2548    4.4442 H         1 RES1    0.0000
     16 H2         7.4695   -0.2548    3.0208 H         1 RES1    0.0000
     17 H3         8.5124   -0.8840    3.8605 H         1 RES1    0.0000
     18 H4        10.7164   -1.0751    2.7648 H         1 RES1    0.0000
     19 H5         9.7854   -1.0353    1.5565 H         1 RES1    0.0000
     20 H6        13.6283   -1.8317   -0.4813 H         1 RES1    0.0000
     21 H7        13.3709   -0.3902   -0.2765 H         1 RES1    0.0000
     22 H8        10.0683    3.7988    2.3347 H         1 RES1    0.0000
@<TRIPOS>BOND
     1    1    2 ar
     2    2    3 ar
     3    3    4 ar
     4    4    5 ar
     5    5    1 ar
     6    6    1 1
     7    7    2 1
     8    8    7 1
     9    9    8 1
    10   10    9 2
    11   11    9 1
    12   12    5 1
    13   13   12 2
    14   14   12 2
    15   15    6 1
    16   16    6 1
    17   17    6 1
    18   18    7 1
    19   19    7 1
    20   20   11 1
    21   21   11 1
    22   22    4 1
@<TRIPOS>SUBSTRUCTURE
     1 RES1 1

@<TRIPOS>CRYSIN
  10.3360    7.9640   10.5490  90.0000 103.9000  90.0000  14 2

