# MOL2 file generated by ConQuest
# Please check atom types

@<TRIPOS>MOLECULE
SONDOO
    43    44     1
SMALL
NO_CHARGES
****
Generated from CSD

@<TRIPOS>ATOM
      1 N1        10.0836    9.9188   -0.6199 N.am      1 RES1    0.0000
      2 C1        10.7523    9.2986   -1.6255 C.2       1 RES1    0.0000
      3 N2         9.9737    8.9479   -2.7199 N.am      1 RES1    0.0000
      4 C2         8.6039    9.1809   -2.8530 C.2       1 RES1    0.0000
      5 C3         7.9700    9.7452   -1.7069 C.2       1 RES1    0.0000
      6 C4         8.6846   10.0644   -0.6507 C.2       1 RES1    0.0000
      7 O1        11.9471    9.0704   -1.6169 O.2       1 RES1    0.0000
      8 N3         7.9520    8.9782   -3.9757 N.2       1 RES1    0.0000
      9 O2         8.8462    8.4928   -4.9666 O.3       1 RES1    0.0000
     10 C5        10.8319   10.4515    0.5090 C.3       1 RES1    0.0000
     11 C6        10.7153   11.9382    0.6938 C.3       1 RES1    0.0000
     12 C7        10.8364   12.1117    2.2183 C.3       1 RES1    0.0000
     13 C8        10.3170   10.7938    2.7630 C.3       1 RES1    0.0000
     14 O3        10.3024    9.8532    1.6798 O.3       1 RES1    0.0000
     15 O4        12.2467   12.3023    2.5178 O.3       1 RES1    0.0000
     16 C9        12.5025   12.5972    3.8328 C.2       1 RES1    0.0000
     17 C10       13.9497   12.8824    4.0497 C.3       1 RES1    0.0000
     18 C11        8.9270   10.8836    3.3916 C.3       1 RES1    0.0000
     19 O5         8.1214   11.6166    2.4032 O.3       1 RES1    0.0000
     20 C12        6.8111   11.7865    2.7298 C.2       1 RES1    0.0000
     21 O6         6.3724   11.4321    3.8032 O.2       1 RES1    0.0000
     22 C13        6.0740   12.4746    1.6280 C.3       1 RES1    0.0000
     23 O7        11.6509   12.6142    4.6671 O.2       1 RES1    0.0000
     24 C14        8.1192    8.3896   -6.1768 C.3       1 RES1    0.0000
     25 H1        10.4572    8.4333   -3.5210 H         1 RES1    0.0000
     26 H2         6.9322    9.8981   -1.7278 H         1 RES1    0.0000
     27 H3         8.1719   10.4333    0.1972 H         1 RES1    0.0000
     28 H4         9.8065   12.2998    0.3463 H         1 RES1    0.0000
     29 H5        11.4905   12.4552    0.2021 H         1 RES1    0.0000
     30 H6         8.5208    9.9382    3.1907 H         1 RES1    0.0000
     31 H7         8.9528   11.2889    4.3208 H         1 RES1    0.0000
     32 H8        11.8506   10.1809    0.3833 H         1 RES1    0.0000
     33 H9        10.2306   12.9054    2.5720 H         1 RES1    0.0000
     34 H10       10.9677   10.4673    3.5259 H         1 RES1    0.0000
     35 H11        7.3215    7.7015   -6.0499 H         1 RES1    0.0000
     36 H12        7.7288    9.2937   -6.4738 H         1 RES1    0.0000
     37 H13        8.7441    8.0085   -6.9298 H         1 RES1    0.0000
     38 H14        6.4767   13.4079    1.4961 H         1 RES1    0.0000
     39 H15        6.1211   11.9139    0.7690 H         1 RES1    0.0000
     40 H16        5.0486   12.5875    1.8967 H         1 RES1    0.0000
     41 H17       14.5466   12.0680    3.7416 H         1 RES1    0.0000
     42 H18       14.2234   13.7125    3.4618 H         1 RES1    0.0000
     43 H19       14.1831   13.0960    5.0393 H         1 RES1    0.0000
@<TRIPOS>BOND
     1    1    2 1
     2    2    3 1
     3    3    4 1
     4    4    5 1
     5    5    6 2
     6    6    1 1
     7    7    2 2
     8    8    4 2
     9    9    8 1
    10   10    1 1
    11   11   10 1
    12   12   11 1
    13   13   12 1
    14   14   10 1
    15   15   12 1
    16   16   15 1
    17   17   16 1
    18   18   13 1
    19   19   18 1
    20   20   19 1
    21   21   20 2
    22   22   20 1
    23   23   16 2
    24   24    9 1
    25   25    3 1
    26   26    5 1
    27   27    6 1
    28   28   11 1
    29   29   11 1
    30   30   18 1
    31   31   18 1
    32   32   10 1
    33   33   12 1
    34   34   13 1
    35   35   24 1
    36   36   24 1
    37   37   24 1
    38   38   22 1
    39   39   22 1
    40   40   22 1
    41   41   17 1
    42   42   17 1
    43   43   17 1
    44   13   14 1
@<TRIPOS>SUBSTRUCTURE
     1 RES1 1

@<TRIPOS>CRYSIN
  11.2190   12.1360   12.3240  90.0000  90.0000  90.0000  19 1

