# MOL2 file generated by ConQuest
# Please check atom types

@<TRIPOS>MOLECULE
SONMIT
    84    60     2
SMALL
NO_CHARGES
****
Generated from CSD

@<TRIPOS>ATOM
      1 O1        12.5644    2.0002   -2.4893 O.2       1 RES1    0.0000
      2 O2        12.5647    1.2010   -0.5064 O.2       1 RES1    0.0000
      3 O3         5.6054    8.6084    7.6952 O.2       1 RES1    0.0000
      4 O4         4.1585    7.0985    7.2868 O.2       1 RES1    0.0000
      5 N1         8.6743    6.0343    0.2870 N.pl3     1 RES1    0.0000
      6 N2        12.1882    2.0183   -1.3323 N.pl3     1 RES1    0.0000
      7 N3         8.2057    5.9147    2.6520 N.2       1 RES1    0.0000
      8 N4         5.1945    7.6820    7.0388 N.pl3     1 RES1    0.0000
      9 N5         7.4015    7.4463    0.8920 N.3       1 RES1    0.0000
     10 N6         8.0501    7.4920   -1.5284 N.2       1 RES1    0.0000
     11 C1         8.0163    7.1200   -0.3495 C.2       1 RES1    0.0000
     12 C2         8.0750    6.4015    1.5088 C.2       1 RES1    0.0000
     13 C3         9.5337    5.0293   -0.1257 C.ar      1 RES1    0.0000
     14 C4        10.0269    5.0235   -1.4119 C.ar      1 RES1    0.0000
     15 H1         9.7777    5.6921   -2.0083 H         1 RES1    0.0000
     16 C5        10.8851    4.0356   -1.8110 C.ar      1 RES1    0.0000
     17 H2        11.2096    4.0215   -2.6820 H         1 RES1    0.0000
     18 C6        11.2652    3.0605   -0.9136 C.ar      1 RES1    0.0000
     19 C7        10.7883    3.0610    0.3749 C.ar      1 RES1    0.0000
     20 H3        11.0560    2.4012    0.9724 H         1 RES1    0.0000
     21 C8         9.9185    4.0381    0.7740 C.ar      1 RES1    0.0000
     22 H4         9.5856    4.0412    1.6426 H         1 RES1    0.0000
     23 C9         7.4477    6.4040    3.7340 C.ar      1 RES1    0.0000
     24 C10        7.9666    7.3174    4.6130 C.ar      1 RES1    0.0000
     25 H5         8.8264    7.6479    4.4849 H         1 RES1    0.0000
     26 C11        7.2223    7.7466    5.6846 C.ar      1 RES1    0.0000
     27 H6         7.5661    8.3849    6.2671 H         1 RES1    0.0000
     28 C12        5.9797    7.2348    5.8876 C.ar      1 RES1    0.0000
     29 C13        5.4572    6.2979    5.0467 C.ar      1 RES1    0.0000
     30 H7         4.6144    5.9392    5.2070 H         1 RES1    0.0000
     31 C14        6.1880    5.8895    3.9612 C.ar      1 RES1    0.0000
     32 H8         5.8327    5.2606    3.3741 H         1 RES1    0.0000
     33 C15        7.1109    8.8203    1.4431 C.3       1 RES1    0.0000
     34 H9         7.5684    8.9281    2.2921 H         1 RES1    0.0000
     35 H10        7.4542    9.4900    0.8317 H         1 RES1    0.0000
     36 C16        5.6407    9.0395    1.6426 C.3       1 RES1    0.0000
     37 H11        5.2549    8.2828    2.1110 H         1 RES1    0.0000
     38 H12        5.2004    9.1213    0.7821 H         1 RES1    0.0000
     39 C17        5.4299   10.3312    2.4651 C.3       1 RES1    0.0000
     40 H13        5.8109   10.2141    3.3498 H         1 RES1    0.0000
     41 H14        5.8918   11.0665    2.0348 H         1 RES1    0.0000
     42 C18        3.9859   10.6614    2.5908 C.3       1 RES1    0.0000
     43 H15        3.6621   11.0021    1.7534 H         1 RES1    0.0000
     44 H16        3.8676   11.3245    3.2737 H         1 RES1    0.0000
     45 H17        3.4957    9.8693    2.8238 H         1 RES1    0.0000
     46 C19        7.1225    8.5254   -2.0337 C.3       1 RES1    0.0000
     47 H18        6.2102    8.2006   -1.9702 H         1 RES1    0.0000
     48 H19        7.1968    9.3216   -1.4857 H         1 RES1    0.0000
     49 C20        7.4258    8.8630   -3.4329 C.3       1 RES1    0.0000
     50 H20        6.8139    9.5511   -3.7374 H         1 RES1    0.0000
     51 H21        7.2932    8.0782   -3.9889 H         1 RES1    0.0000
     52 C21        8.9152    9.3750   -3.5967 C.3       1 RES1    0.0000
     53 H22        9.0524   10.1006   -2.9680 H         1 RES1    0.0000
     54 H23        9.5095    8.6537   -3.3383 H         1 RES1    0.0000
     55 C22        9.3052    9.8253   -4.8737 C.3       1 RES1    0.0000
     56 H24        8.7624    9.3989   -5.5427 H         1 RES1    0.0000
     57 H25       10.2277    9.6060   -5.0225 H         1 RES1    0.0000
     58 H26        9.1894   10.7770   -4.9267 H         1 RES1    0.0000
     59 C23        6.2483    8.2657    1.3289 Du        2 SUP2    0.0000
     60 H27        5.6409    8.3795    0.5814 Du        2 SUP2    0.0000
     61 H28        5.7718    7.7919    2.0279 Du        2 SUP2    0.0000
     62 C24        6.6361    9.5735    1.8249 Du        2 SUP2    0.0000
     63 H29        7.2113   10.0241    1.1870 Du        2 SUP2    0.0000
     64 H30        7.1083    9.4928    2.6681 Du        2 SUP2    0.0000
     65 C25        5.2585   10.3896    2.0221 Du        2 SUP2    0.0000
     66 H31        5.4144   11.3445    1.9506 Du        2 SUP2    0.0000
     67 H32        4.6099   10.1296    1.3485 Du        2 SUP2    0.0000
     68 C26        4.7456   10.0260    3.4364 Du        2 SUP2    0.0000
     69 H33        4.6048    9.0788    3.4929 Du        2 SUP2    0.0000
     70 H34        3.9194   10.4845    3.6048 Du        2 SUP2    0.0000
     71 H35        5.3976   10.2924    4.0904 Du        2 SUP2    0.0000
     72 C27        7.5094    8.8179   -1.8560 Du        2 SUP2    0.0000
     73 H36        6.5392    8.7641   -1.8526 Du        2 SUP2    0.0000
     74 H37        7.7681    9.4376   -1.1570 Du        2 SUP2    0.0000
     75 C28        7.9058    9.3272   -3.0545 Du        2 SUP2    0.0000
     76 H38        8.5817    9.9823   -2.8204 Du        2 SUP2    0.0000
     77 H39        7.1420    9.8422   -3.3591 Du        2 SUP2    0.0000
     78 C29        8.4119    8.7172   -4.2484 Du        2 SUP2    0.0000
     79 H40        8.9887    8.0362   -3.8666 Du        2 SUP2    0.0000
     80 H41        7.6274    8.2292   -4.5426 Du        2 SUP2    0.0000
     81 C30        9.0435    8.9282   -5.4608 Du        2 SUP2    0.0000
     82 H42        8.4935    9.4869   -6.0145 Du        2 SUP2    0.0000
     83 H43        9.1868    8.0860   -5.8980 Du        2 SUP2    0.0000
     84 H44        9.8882    9.3584   -5.3108 Du        2 SUP2    0.0000
@<TRIPOS>BOND
     1    1    6 2
     2    2    6 2
     3    3    8 2
     4    4    8 2
     5    5   11 1
     6    6   18 1
     7    7   12 2
     8    8   28 1
     9    9   11 1
    10   10   11 2
    11   12    5 1
    12   13    5 1
    13   14   13 ar
    14   15   14 1
    15   16   14 ar
    16   17   16 1
    17   18   16 ar
    18   19   18 ar
    19   20   19 1
    20   21   13 ar
    21   22   21 1
    22   23    7 1
    23   24   23 ar
    24   25   24 1
    25   26   24 ar
    26   27   26 1
    27   28   26 ar
    28   29   28 ar
    29   30   29 1
    30   31   23 ar
    31   32   31 1
    32   33    9 1
    33   34   33 1
    34   35   33 1
    35   36   33 1
    36   37   36 1
    37   38   36 1
    38   39   36 1
    39   40   39 1
    40   41   39 1
    41   42   39 1
    42   43   42 1
    43   44   42 1
    44   45   42 1
    45   46   10 1
    46   47   46 1
    47   48   46 1
    48   49   46 1
    49   50   49 1
    50   51   49 1
    51   52   49 1
    52   53   52 1
    53   54   52 1
    54   55   52 1
    55   56   55 1
    56   57   55 1
    57   58   55 1
    58    9   12 1
    59   19   21 ar
    60   29   31 ar
@<TRIPOS>SUBSTRUCTURE
     1 RES1 1
     2 SUP2 59

@<TRIPOS>CRYSIN
   9.3830   11.5671   11.8220  82.4030  77.8780  69.2450   2 1

