# MOL2 file generated by ConQuest
# Please check atom types

@<TRIPOS>MOLECULE
SOPFIM
    54    58     1
SMALL
NO_CHARGES
****
Generated from CSD

@<TRIPOS>ATOM
      1 C1        -5.9474   -1.9282   -3.6383 C.3       1 RES1    0.0000
      2 C2        -7.0130   -1.6410   -2.5573 C.3       1 RES1    0.0000
      3 C3        -7.4165   -3.0332   -2.0544 C.3       1 RES1    0.0000
      4 C4        -6.1554   -3.8603   -2.4079 C.3       1 RES1    0.0000
      5 O1        -5.7127   -3.3169   -3.6415 O.3       1 RES1    0.0000
      6 O2        -4.7975   -1.2364   -3.2414 O.3       1 RES1    0.0000
      7 C5        -5.1073   -0.3865   -2.1408 C.3       1 RES1    0.0000
      8 C6        -5.4296    0.9968   -2.6601 C.3       1 RES1    0.0000
      9 C7        -3.9821   -0.4220   -1.1886 C.3       1 RES1    0.0000
     10 O3        -6.2717   -0.9859   -1.5431 O.3       1 RES1    0.0000
     11 O4        -8.5243   -3.3818   -2.9054 O.3       1 RES1    0.0000
     12 C8        -9.5188   -4.1907   -2.2399 C.3       1 RES1    0.0000
     13 C9       -10.5678   -4.5644   -3.2451 C.ar      1 RES1    0.0000
     14 C10      -10.3547   -5.6853   -4.0468 C.ar      1 RES1    0.0000
     15 C11      -11.2802   -6.0215   -5.0346 C.ar      1 RES1    0.0000
     16 C12      -12.4189   -5.2369   -5.2200 C.ar      1 RES1    0.0000
     17 C13      -12.6320   -4.1161   -4.4188 C.ar      1 RES1    0.0000
     18 C14      -11.7064   -3.7799   -3.4311 C.ar      1 RES1    0.0000
     19 C15       -6.3613   -5.3506   -2.6426 C.3       1 RES1    0.0000
     20 C16       -5.0518   -6.0524   -2.9309 C.3       1 RES1    0.0000
     21 C17       -5.0332   -7.0488   -1.8430 C.2       1 RES1    0.0000
     22 N1        -5.9762   -6.9630   -0.9734 N.2       1 RES1    0.0000
     23 O5        -6.8287   -5.8959   -1.3385 O.3       1 RES1    0.0000
     24 C18       -3.9862   -8.1194   -1.7206 C.ar      1 RES1    0.0000
     25 C19       -2.9186   -8.1685   -2.6172 C.ar      1 RES1    0.0000
     26 C20       -1.9581   -9.1741   -2.5038 C.ar      1 RES1    0.0000
     27 C21       -2.0662  -10.1303   -1.4938 C.ar      1 RES1    0.0000
     28 C22       -3.1338  -10.0812   -0.5972 C.ar      1 RES1    0.0000
     29 C23       -4.0933   -9.0756   -0.7106 C.ar      1 RES1    0.0000
     30 H1        -6.2480   -1.6194   -4.6281 H         1 RES1    0.0000
     31 H2        -7.8736   -1.0706   -2.8699 H         1 RES1    0.0000
     32 H3        -7.6955   -3.1538   -1.0174 H         1 RES1    0.0000
     33 H4        -5.4811   -3.7953   -1.5669 H         1 RES1    0.0000
     34 H5        -5.6664    1.6464   -1.8303 H         1 RES1    0.0000
     35 H6        -6.2779    0.9430   -3.3267 H         1 RES1    0.0000
     36 H7        -4.5772    1.3914   -3.1937 H         1 RES1    0.0000
     37 H8        -4.2024    0.2164   -0.3471 H         1 RES1    0.0000
     38 H9        -3.0844   -0.0773   -1.6787 H         1 RES1    0.0000
     39 H10       -3.8349   -1.4339   -0.8420 H         1 RES1    0.0000
     40 H11       -9.0586   -5.0823   -1.8430 H         1 RES1    0.0000
     41 H12       -9.9676   -3.6291   -1.4344 H         1 RES1    0.0000
     42 H13       -9.4735   -6.2921   -3.9032 H         1 RES1    0.0000
     43 H14      -11.1155   -6.8911   -5.6551 H         1 RES1    0.0000
     44 H15      -13.1364   -5.4998   -5.9847 H         1 RES1    0.0000
     45 H16      -13.5132   -3.5093   -4.5624 H         1 RES1    0.0000
     46 H17      -11.8712   -2.9103   -2.8106 H         1 RES1    0.0000
     47 H18       -7.0377   -5.4959   -3.4708 H         1 RES1    0.0000
     48 H19       -4.2127   -5.3761   -2.8646 H         1 RES1    0.0000
     49 H20       -5.0579   -6.5240   -3.9027 H         1 RES1    0.0000
     50 H21       -2.8352   -7.4283   -3.3988 H         1 RES1    0.0000
     51 H22       -1.1314   -9.2139   -3.1979 H         1 RES1    0.0000
     52 H23       -1.3229  -10.9106   -1.4064 H         1 RES1    0.0000
     53 H24       -3.2162  -10.8217    0.1844 H         1 RES1    0.0000
     54 H25       -4.9200   -9.0361   -0.0170 H         1 RES1    0.0000
@<TRIPOS>BOND
     1    1    2 1
     2    2    3 1
     3    3    4 1
     4    4    5 1
     5    5    1 1
     6    6    1 1
     7    7    6 1
     8    8    7 1
     9    9    7 1
    10   10    2 1
    11   11    3 1
    12   12   11 1
    13   13   12 1
    14   14   13 ar
    15   15   14 ar
    16   16   15 ar
    17   17   16 ar
    18   18   13 ar
    19   19    4 1
    20   20   19 1
    21   21   20 1
    22   22   21 2
    23   23   19 1
    24   24   21 1
    25   25   24 ar
    26   26   25 ar
    27   27   26 ar
    28   28   27 ar
    29   29   24 ar
    30   30    1 1
    31   31    2 1
    32   32    3 1
    33   33    4 1
    34   34    8 1
    35   35    8 1
    36   36    8 1
    37   37    9 1
    38   38    9 1
    39   39    9 1
    40   40   12 1
    41   41   12 1
    42   42   14 1
    43   43   15 1
    44   44   16 1
    45   45   17 1
    46   46   18 1
    47   47   19 1
    48   48   20 1
    49   49   20 1
    50   50   25 1
    51   51   26 1
    52   52   27 1
    53   53   28 1
    54   54   29 1
    55    7   10 1
    56   17   18 ar
    57   22   23 1
    58   28   29 ar
@<TRIPOS>SUBSTRUCTURE
     1 RES1 1

@<TRIPOS>CRYSIN
  10.2950   38.6490    5.2990  90.0000  90.0000  90.0000  19 1

