# MOL2 file generated by ConQuest
# Please check atom types

@<TRIPOS>MOLECULE
SOPFEI
    54    58     1
SMALL
NO_CHARGES
****
Generated from CSD

@<TRIPOS>ATOM
      1 C1        13.9818    0.5660   -0.5362 C.3       1 RES1    0.0000
      2 C2        14.4441    1.8765   -1.0510 C.3       1 RES1    0.0000
      3 C3        13.3846    2.8279   -0.5371 C.3       1 RES1    0.0000
      4 C4        12.7701    2.1100    0.5496 C.3       1 RES1    0.0000
      5 O1        12.7742    0.7743    0.1106 O.3       1 RES1    0.0000
      6 C5        11.3484    2.4908    0.8967 C.3       1 RES1    0.0000
      7 C6        11.2694    3.8427    1.4596 C.3       1 RES1    0.0000
      8 C7        10.8726    4.6112    0.3364 C.2       1 RES1    0.0000
      9 N1        10.4950    3.9175   -0.6531 N.2       1 RES1    0.0000
     10 O2        10.5873    2.5610   -0.3033 O.3       1 RES1    0.0000
     11 O3        14.9466    0.1864    0.3792 O.3       1 RES1    0.0000
     12 C8        16.1355    0.9100    0.0660 C.3       1 RES1    0.0000
     13 C9        16.8252    1.1355    1.3704 C.3       1 RES1    0.0000
     14 C10       16.9215    0.1956   -0.9225 C.3       1 RES1    0.0000
     15 O4        15.6614    2.1158   -0.4229 O.3       1 RES1    0.0000
     16 O5        13.9080    4.0417   -0.0732 O.3       1 RES1    0.0000
     17 C11       14.2592    4.9230   -1.1215 C.3       1 RES1    0.0000
     18 C12       15.0144    6.0229   -0.5496 C.ar      1 RES1    0.0000
     19 C13       16.2126    5.7870    0.0571 C.ar      1 RES1    0.0000
     20 C14       16.9331    6.8374    0.5523 C.ar      1 RES1    0.0000
     21 C15       16.4746    8.0892    0.4532 C.ar      1 RES1    0.0000
     22 C16       15.3187    8.3147   -0.1124 C.ar      1 RES1    0.0000
     23 C17       14.5482    7.2700   -0.6263 C.ar      1 RES1    0.0000
     24 C18       10.8379    6.0551    0.2275 C.ar      1 RES1    0.0000
     25 C19       11.2694    6.7557    1.3124 C.ar      1 RES1    0.0000
     26 C20       11.2771    8.1478    1.2348 C.ar      1 RES1    0.0000
     27 C21       10.8572    8.7553    0.1535 C.ar      1 RES1    0.0000
     28 C22       10.4103    8.0477   -0.9074 C.ar      1 RES1    0.0000
     29 C23       10.4218    6.7017   -0.8833 C.ar      1 RES1    0.0000
     30 H1        13.8470   -0.1818   -1.3035 H         1 RES1    0.0000
     31 H2        14.5713    1.9559   -2.1208 H         1 RES1    0.0000
     32 H3        12.7008    3.1040   -1.3267 H         1 RES1    0.0000
     33 H4        13.3230    2.3240    1.4525 H         1 RES1    0.0000
     34 H5        10.9882    1.7557    1.5997 H         1 RES1    0.0000
     35 H6        12.2288    4.1660    1.8361 H         1 RES1    0.0000
     36 H7        10.5355    3.8967    2.2510 H         1 RES1    0.0000
     37 H8        17.7402    1.6843    1.2036 H         1 RES1    0.0000
     38 H9        17.0525    0.1829    1.8254 H         1 RES1    0.0000
     39 H10       16.1798    1.7027    2.0253 H         1 RES1    0.0000
     40 H11       17.2702   -0.7283   -0.5041 H         1 RES1    0.0000
     41 H12       17.7672    0.8100   -1.2098 H         1 RES1    0.0000
     42 H13       16.3108    0.0023   -1.7906 H         1 RES1    0.0000
     43 H14       14.8622    4.4030   -1.8513 H         1 RES1    0.0000
     44 H15       13.3654    5.3004   -1.5970 H         1 RES1    0.0000
     45 H16       16.5882    4.7780    0.1463 H         1 RES1    0.0000
     46 H17       17.8828    6.6533    1.0305 H         1 RES1    0.0000
     47 H18       17.0602    8.9118    0.8396 H         1 RES1    0.0000
     48 H19       14.9527    9.3283   -0.1838 H         1 RES1    0.0000
     49 H20       13.5888    7.4690   -1.0796 H         1 RES1    0.0000
     50 H21       11.5969    6.2484    2.2064 H         1 RES1    0.0000
     51 H22       11.6297    8.7288    2.0735 H         1 RES1    0.0000
     52 H23       10.8707    9.8345    0.1097 H         1 RES1    0.0000
     53 H24       10.0385    8.5643   -1.7799 H         1 RES1    0.0000
     54 H25       10.1001    6.1425   -1.7496 H         1 RES1    0.0000
@<TRIPOS>BOND
     1    1    2 1
     2    2    3 1
     3    3    4 1
     4    4    5 1
     5    5    1 1
     6    6    4 1
     7    7    6 1
     8    8    7 1
     9    9    8 2
    10   10    6 1
    11   11    1 1
    12   12   11 1
    13   13   12 1
    14   14   12 1
    15   15    2 1
    16   16    3 1
    17   17   16 1
    18   18   17 1
    19   19   18 ar
    20   20   19 ar
    21   21   20 ar
    22   22   21 ar
    23   23   18 ar
    24   24    8 1
    25   25   24 ar
    26   26   25 ar
    27   27   26 ar
    28   28   27 ar
    29   29   24 ar
    30   30    1 1
    31   31    2 1
    32   32    3 1
    33   33    4 1
    34   34    6 1
    35   35    7 1
    36   36    7 1
    37   37   13 1
    38   38   13 1
    39   39   13 1
    40   40   14 1
    41   41   14 1
    42   42   14 1
    43   43   17 1
    44   44   17 1
    45   45   19 1
    46   46   20 1
    47   47   21 1
    48   48   22 1
    49   49   23 1
    50   50   25 1
    51   51   26 1
    52   52   27 1
    53   53   28 1
    54   54   29 1
    55    9   10 1
    56   12   15 1
    57   22   23 ar
    58   28   29 ar
@<TRIPOS>SUBSTRUCTURE
     1 RES1 1

@<TRIPOS>CRYSIN
  19.2640   11.5050    8.9220  90.0000  90.0000  90.0000  19 1

