# MOL2 file generated by ConQuest
# Please check atom types

@<TRIPOS>MOLECULE
SOPTAS
    92    94     2
SMALL
NO_CHARGES
****
Generated from CSD

@<TRIPOS>ATOM
      1 C1         3.9538   13.4267    0.0929 C.2       1 RES1    0.0000
      2 O1         3.5686   13.8873    1.1757 O.2       1 RES1    0.0000
      3 O2         3.3580   13.5919   -1.0009 O.3       1 RES1    0.0000
      4 C2         5.2802   12.6731   -0.0049 C.3       1 RES1    0.0000
      5 C3         5.3476   11.7098   -1.2024 C.3       1 RES1    0.0000
      6 N1         5.6210   12.0353    1.2594 N.am      1 RES1    0.0000
      7 C4         4.8191   11.1274    1.7841 C.2       1 RES1    0.0000
      8 O3         3.7311   10.7585    1.4266 O.2       1 RES1    0.0000
      9 O4         5.4074   10.6331    2.9558 O.3       1 RES1    0.0000
     10 C5         4.6702    9.5889    3.6528 C.3       1 RES1    0.0000
     11 C6         5.4773    9.3213    4.9220 C.3       1 RES1    0.0000
     12 C7         6.8365    8.7630    4.5962 C.ar      1 RES1    0.0000
     13 C8         7.8930    9.6384    4.4577 C.ar      1 RES1    0.0000
     14 C9         9.1413    9.1778    4.0422 C.ar      1 RES1    0.0000
     15 C10        9.3187    7.8551    3.7636 C.ar      1 RES1    0.0000
     16 N2        10.5921    7.3560    3.2618 N.pl3     1 RES1    0.0000
     17 O5        11.4198    8.1722    2.8594 O.2       1 RES1    0.0000
     18 O6        10.8166    6.1539    3.3074 O.2       1 RES1    0.0000
     19 C11        8.2568    6.9460    3.9200 C.ar      1 RES1    0.0000
     20 C12        7.0036    7.4211    4.3094 C.ar      1 RES1    0.0000
     21 C13        4.7017    8.3977    5.8996 C.ar      1 RES1    0.0000
     22 C14        3.7588    7.4922    5.4776 C.ar      1 RES1    0.0000
     23 C15        3.0281    6.7314    6.3819 C.ar      1 RES1    0.0000
     24 C16        3.2934    6.8918    7.7097 C.ar      1 RES1    0.0000
     25 N3         2.5147    6.1250    8.6906 N.pl3     1 RES1    0.0000
     26 O7         1.7522    5.2508    8.2767 O.2       1 RES1    0.0000
     27 O8         2.6006    6.4047    9.8685 O.2       1 RES1    0.0000
     28 C17        4.2011    7.7876    8.1724 C.ar      1 RES1    0.0000
     29 C18        4.9270    8.5641    7.2649 C.ar      1 RES1    0.0000
     30 C19        0.8428   15.6898    0.1255 C.2       2 RES2    0.0000
     31 O9         1.2106   15.1978   -0.9305 O.2       2 RES2    0.0000
     32 O10        1.3899   15.3847    1.2588 O.3       2 RES2    0.0000
     33 C20       -0.2632   16.7231    0.2167 C.3       2 RES2    0.0000
     34 C21       -1.4523   16.1371    0.9678 C.3       2 RES2    0.0000
     35 N4        -0.6937   17.1692   -1.1089 N.am      2 RES2    0.0000
     36 C22        0.0967   18.0144   -1.8101 C.2       2 RES2    0.0000
     37 O11        1.1604   18.4544   -1.4486 O.2       2 RES2    0.0000
     38 O12       -0.4821   18.2808   -3.0039 O.3       2 RES2    0.0000
     39 C23        0.2476   19.2333   -3.7946 C.3       2 RES2    0.0000
     40 C24       -0.5556   19.4226   -5.0947 C.3       2 RES2    0.0000
     41 C25       -1.9465   19.9567   -4.8031 C.ar      2 RES2    0.0000
     42 C26       -2.2024   21.2999   -4.6043 C.ar      2 RES2    0.0000
     43 C27       -3.4512   21.7749   -4.2589 C.ar      2 RES2    0.0000
     44 C28       -4.4501   20.8779   -4.1351 C.ar      2 RES2    0.0000
     45 N5        -5.7849   21.3409   -3.7327 N.pl3     2 RES2    0.0000
     46 O13       -6.0561   22.5309   -3.8809 O.2       2 RES2    0.0000
     47 O14       -6.5878   20.5439   -3.2928 O.2       2 RES2    0.0000
     48 C29       -4.2789   19.5143   -4.3143 C.ar      2 RES2    0.0000
     49 C30       -3.0231   19.0669   -4.6662 C.ar      2 RES2    0.0000
     50 C31        0.2027   20.2642   -6.0739 C.ar      2 RES2    0.0000
     51 C32        1.0468   21.3095   -5.7269 C.ar      2 RES2    0.0000
     52 C33        1.7521   22.0450   -6.6817 C.ar      2 RES2    0.0000
     53 C34        1.5932   21.7291   -7.9867 C.ar      2 RES2    0.0000
     54 N6         2.3697   22.4706   -8.9887 N.pl3     2 RES2    0.0000
     55 O15        2.2753   22.1282  -10.1722 O.2       2 RES2    0.0000
     56 O16        3.0807   23.3749   -8.6221 O.2       2 RES2    0.0000
     57 C35        0.7145   20.7670   -8.4217 C.ar      2 RES2    0.0000
     58 C36        0.0162   20.0351   -7.4735 C.ar      2 RES2    0.0000
     59 H1         2.6827   14.3285   -1.1079 H         1 RES1    0.0000
     60 H2         6.0441   13.4098   -0.2037 H         1 RES1    0.0000
     61 H3         5.0864   12.2403   -2.1067 H         1 RES1    0.0000
     62 H4         4.6538   10.8959   -1.0493 H         1 RES1    0.0000
     63 H5         6.3492   11.3167   -1.2920 H         1 RES1    0.0000
     64 H6         6.5850   11.5156    1.1405 H         1 RES1    0.0000
     65 H7         3.6766    9.9289    3.9037 H         1 RES1    0.0000
     66 H8         4.6027    8.6979    3.0467 H         1 RES1    0.0000
     67 H9         5.6316   10.2677    5.4173 H         1 RES1    0.0000
     68 H10        7.7523   10.6861    4.6776 H         1 RES1    0.0000
     69 H11        9.9656    9.8687    3.9412 H         1 RES1    0.0000
     70 H12        8.4097    5.8923    3.7408 H         1 RES1    0.0000
     71 H13        6.1674    6.7423    4.3909 H         1 RES1    0.0000
     72 H14        3.5830    7.3704    4.4186 H         1 RES1    0.0000
     73 H15        2.2756    6.0345    6.0430 H         1 RES1    0.0000
     74 H16        4.3614    7.8997    9.2347 H         1 RES1    0.0000
     75 H17        5.6541    9.2815    7.6152 H         1 RES1    0.0000
     76 H18        2.2354   14.8289    1.2464 H         2 RES2    0.0000
     77 H19        0.1284   17.5791    0.7462 H         2 RES2    0.0000
     78 H20       -1.1318   15.8067    1.9454 H         2 RES2    0.0000
     79 H21       -1.8500   15.2979    0.4171 H         2 RES2    0.0000
     80 H22       -2.2171   16.8919    1.0770 H         2 RES2    0.0000
     81 H23       -1.6578   17.6707   -0.9596 H         2 RES2    0.0000
     82 H24        0.3284   20.1714   -3.2667 H         2 RES2    0.0000
     83 H25        1.2362   18.8571   -4.0129 H         2 RES2    0.0000
     84 H26       -0.6884   18.4593   -5.5656 H         2 RES2    0.0000
     85 H27       -1.3929   22.0052   -4.7216 H         2 RES2    0.0000
     86 H28       -3.6219   22.8287   -4.0927 H         2 RES2    0.0000
     87 H29       -5.1013   18.8258   -4.1856 H         2 RES2    0.0000
     88 H30       -2.8649   18.0120   -4.8324 H         2 RES2    0.0000
     89 H31        1.1613   21.5652   -4.6842 H         2 RES2    0.0000
     90 H32        2.4134   22.8456   -6.3868 H         2 RES2    0.0000
     91 H33        0.5714   20.5873   -9.4775 H         2 RES2    0.0000
     92 H34       -0.6807   19.2779   -7.8010 H         2 RES2    0.0000
@<TRIPOS>BOND
     1    1    2 2
     2    3    1 1
     3    4    1 1
     4    5    4 1
     5    6    4 1
     6    7    6 1
     7    8    7 2
     8    9    7 1
     9   10    9 1
    10   11   10 1
    11   12   11 1
    12   13   12 ar
    13   14   13 ar
    14   15   14 ar
    15   16   15 1
    16   17   16 2
    17   18   16 2
    18   19   15 ar
    19   20   12 ar
    20   21   11 1
    21   22   21 ar
    22   23   22 ar
    23   24   23 ar
    24   25   24 1
    25   26   25 2
    26   27   25 2
    27   28   24 ar
    28   29   21 ar
    29   30   31 2
    30   32   30 1
    31   33   30 1
    32   34   33 1
    33   35   33 1
    34   36   35 1
    35   37   36 2
    36   38   36 1
    37   39   38 1
    38   40   39 1
    39   41   40 1
    40   42   41 ar
    41   43   42 ar
    42   44   43 ar
    43   45   44 1
    44   46   45 2
    45   47   45 2
    46   48   44 ar
    47   49   41 ar
    48   50   40 1
    49   51   50 ar
    50   52   51 ar
    51   53   52 ar
    52   54   53 1
    53   55   54 2
    54   56   54 2
    55   57   53 ar
    56   58   50 ar
    57   59    3 1
    58   60    4 1
    59   61    5 1
    60   62    5 1
    61   63    5 1
    62   64    6 1
    63   65   10 1
    64   66   10 1
    65   67   11 1
    66   68   13 1
    67   69   14 1
    68   70   19 1
    69   71   20 1
    70   72   22 1
    71   73   23 1
    72   74   28 1
    73   75   29 1
    74   76   32 1
    75   77   33 1
    76   78   34 1
    77   79   34 1
    78   80   34 1
    79   81   35 1
    80   82   39 1
    81   83   39 1
    82   84   40 1
    83   85   42 1
    84   86   43 1
    85   87   48 1
    86   88   49 1
    87   89   51 1
    88   90   52 1
    89   91   57 1
    90   92   58 1
    91   19   20 ar
    92   28   29 ar
    93   48   49 ar
    94   57   58 ar
@<TRIPOS>SUBSTRUCTURE
     1 RES1 1
     2 RES2 30

@<TRIPOS>CRYSIN
   9.6580   12.0570   16.3020  90.0000  91.9300  90.0000   4 1

