# MOL2 file generated by ConQuest
# Please check atom types

@<TRIPOS>MOLECULE
SOPZOM
    27    28     1
SMALL
NO_CHARGES
****
Generated from CSD

@<TRIPOS>ATOM
      1 O1         5.2215    5.4201   -1.4096 O.2       1 RES1    0.0000
      2 O2         3.5070    4.1896   -0.9474 O.2       1 RES1    0.0000
      3 N1         4.0927    5.2165   -0.9582 N.pl3     1 RES1    0.0000
      4 N2         1.5492    9.8067    1.1641 N.pl3     1 RES1    0.0000
      5 N3         0.0000   11.3604    1.5268 N.2       1 RES1    0.0000
      6 C1         3.4727    6.4847   -0.3167 C.ar      1 RES1    0.0000
      7 C2         2.2471    6.3253    0.2423 C.ar      1 RES1    0.0000
      8 C3         1.6059    7.3589    0.8146 C.ar      1 RES1    0.0000
      9 C4         2.2211    8.6979    0.6570 C.ar      1 RES1    0.0000
     10 C5         3.4692    8.8063    0.1132 C.ar      1 RES1    0.0000
     11 C6         4.1080    7.6355   -0.4219 C.ar      1 RES1    0.0000
     12 C7         2.1762   10.8934    1.7480 C.2       1 RES1    0.0000
     13 C8         1.2186   11.8362    1.9471 C.2       1 RES1    0.0000
     14 C9         0.2244   10.1188    1.0009 C.2       1 RES1    0.0000
     15 C10        1.3166   13.1486    2.6193 C.3       1 RES1    0.0000
     16 C11       -0.7900    9.3309    0.3771 C.3       1 RES1    0.0000
     17 H1         1.7594    5.3559    0.2599 H         1 RES1    0.0000
     18 H2         0.6967    7.1486    1.3277 H         1 RES1    0.0000
     19 H3         3.9439    9.7823    0.0920 H         1 RES1    0.0000
     20 H4         5.0656    7.5913   -0.8718 H         1 RES1    0.0000
     21 H5         3.2236   10.9553    1.9835 H         1 RES1    0.0000
     22 H6         2.3144   13.3235    2.8553 H         1 RES1    0.0000
     23 H7         0.9683   13.8989    1.9195 H         1 RES1    0.0000
     24 H8         0.7085   13.1243    3.4951 H         1 RES1    0.0000
     25 H9        -1.7358    9.8709    0.4159 H         1 RES1    0.0000
     26 H10       -0.5432    9.1848   -0.6678 H         1 RES1    0.0000
     27 H11       -0.9210    8.3880    0.8638 H         1 RES1    0.0000
@<TRIPOS>BOND
     1    1    3 2
     2    2    3 2
     3    3    6 1
     4    4    9 1
     5    5   13 1
     6    6    7 ar
     7    7    8 ar
     8    8    9 ar
     9    9   10 ar
    10   10   11 ar
    11   11    6 ar
    12   12    4 1
    13   13   12 2
    14   14    4 1
    15   15   13 1
    16   16   14 1
    17   17    7 1
    18   18    8 1
    19   19   10 1
    20   20   11 1
    21   21   12 1
    22   22   15 1
    23   23   15 1
    24   24   15 1
    25   25   16 1
    26   26   16 1
    27   27   16 1
    28    5   14 2
@<TRIPOS>SUBSTRUCTURE
     1 RES1 1

@<TRIPOS>CRYSIN
  11.8080   22.1320    3.9990  90.0000  90.0000  90.0000  29 2

