# MOL2 file generated by ConQuest
# Please check atom types

@<TRIPOS>MOLECULE
SOPZIG
    48    50     2
SMALL
NO_CHARGES
****
Generated from CSD

@<TRIPOS>ATOM
      1 O1        -1.6051    1.7387    7.3190 O.2       1 RES1    0.0000
      2 O2        -2.7409    1.2744    5.5574 O.2       1 RES1    0.0000
      3 N1        -2.6612    1.5987    6.7323 N.pl3     1 RES1    0.0000
      4 N2        -7.4222    2.6540    9.5339 N.pl3     1 RES1    0.0000
      5 N3        -9.4174    2.4807   10.4540 N.2       1 RES1    0.0000
      6 C1        -3.9032    1.8542    7.4760 C.ar      1 RES1    0.0000
      7 C2        -3.8341    2.3178    8.7620 C.ar      1 RES1    0.0000
      8 C3        -5.0000    2.5651    9.4391 C.ar      1 RES1    0.0000
      9 C4        -6.2165    2.3555    8.8316 C.ar      1 RES1    0.0000
     10 C5        -6.2681    1.8905    7.5293 C.ar      1 RES1    0.0000
     11 C6        -5.1045    1.6395    6.8404 C.ar      1 RES1    0.0000
     12 C7        -7.7308    3.8832   10.0821 C.2       1 RES1    0.0000
     13 C8        -8.9435    3.7558   10.6214 C.2       1 RES1    0.0000
     14 C9        -8.4892    1.8357    9.8021 C.2       1 RES1    0.0000
     15 C10       -8.5276    0.3947    9.4139 C.3       1 RES1    0.0000
     16 O3         9.8212    1.9231   -2.0890 O.2       2 RES2    0.0000
     17 O4        10.8280    2.4377   -0.2830 O.2       2 RES2    0.0000
     18 N4         9.8356    2.0890   -0.8904 N.pl3     2 RES2    0.0000
     19 N5         5.1516    1.0197    2.0253 N.pl3     2 RES2    0.0000
     20 N6         3.2747    1.2211    3.1750 N.2       2 RES2    0.0000
     21 C11        8.5990    1.8498   -0.1274 C.ar      2 RES2    0.0000
     22 C12        7.4736    1.4729   -0.8000 C.ar      2 RES2    0.0000
     23 C13        6.3239    1.2129   -0.0815 C.ar      2 RES2    0.0000
     24 C14        6.3378    1.3373    1.2845 C.ar      2 RES2    0.0000
     25 C15        7.4694    1.7542    1.9423 C.ar      2 RES2    0.0000
     26 C16        8.6267    1.9994    1.2356 C.ar      2 RES2    0.0000
     27 C17        4.6864   -0.2607    2.2653 C.2       2 RES2    0.0000
     28 C18        3.5524   -0.1170    2.9646 C.2       2 RES2    0.0000
     29 C19        4.2543    1.8712    2.6002 C.2       2 RES2    0.0000
     30 C20        4.3881    3.3485    2.5468 C.3       2 RES2    0.0000
     31 H1        -2.9949    2.4511    9.1265 H         1 RES1    0.0000
     32 H2        -5.0328    2.8880   10.3117 H         1 RES1    0.0000
     33 H3        -7.1216    1.7772    7.1264 H         1 RES1    0.0000
     34 H4        -5.1267    1.3699    5.9559 H         1 RES1    0.0000
     35 H5        -7.1582    4.5763   10.0302 H         1 RES1    0.0000
     36 H6        -9.4573    4.3690   11.0821 H         1 RES1    0.0000
     37 H7        -7.6789   -0.0592    9.4672 H         1 RES1    0.0000
     38 H8        -9.0799   -0.0963    9.9562 H         1 RES1    0.0000
     39 H9        -8.8554    0.3110    8.4301 H         1 RES1    0.0000
     40 H10        7.4797    1.3699   -1.7631 H         2 RES2    0.0000
     41 H11        5.5134    0.9701   -0.5482 H         2 RES2    0.0000
     42 H12        7.4764    1.8364    2.9039 H         2 RES2    0.0000
     43 H13        9.4140    2.3030    1.6445 H         2 RES2    0.0000
     44 H14        5.1408   -1.0441    1.9705 H         2 RES2    0.0000
     45 H15        2.9708   -0.8442    3.3039 H         2 RES2    0.0000
     46 H16        3.6649    3.7988    3.0224 H         2 RES2    0.0000
     47 H17        4.4785    3.6729    1.7038 H         2 RES2    0.0000
     48 H18        5.2013    3.6062    2.7705 H         2 RES2    0.0000
@<TRIPOS>BOND
     1    1    3 2
     2    2    3 2
     3    3    6 1
     4    4    9 1
     5    5   13 1
     6    6    7 ar
     7    7    8 ar
     8    8    9 ar
     9    9   10 ar
    10   10   11 ar
    11   11    6 ar
    12   12    4 1
    13   13   12 2
    14   14    4 1
    15   15   14 1
    16   16   18 2
    17   17   18 2
    18   18   21 1
    19   19   24 1
    20   20   28 1
    21   21   22 ar
    22   22   23 ar
    23   23   24 ar
    24   24   25 ar
    25   25   26 ar
    26   26   21 ar
    27   27   19 1
    28   28   27 2
    29   29   19 1
    30   30   29 1
    31   31    7 1
    32   32    8 1
    33   33   10 1
    34   34   11 1
    35   35   12 1
    36   36   13 1
    37   37   15 1
    38   38   15 1
    39   39   15 1
    40   40   22 1
    41   41   23 1
    42   42   25 1
    43   43   26 1
    44   44   27 1
    45   45   28 1
    46   46   30 1
    47   47   30 1
    48   48   30 1
    49    5   14 2
    50   20   29 2
@<TRIPOS>SUBSTRUCTURE
     1 RES1 1
     2 RES2 16

@<TRIPOS>CRYSIN
  17.5130    7.4050   16.8190  90.0000 118.2500  90.0000  14 1

