# MOL2 file generated by ConQuest
# Please check atom types

@<TRIPOS>MOLECULE
SOQVEZ01
    42    43     1
SMALL
NO_CHARGES
****
Generated from CSD

@<TRIPOS>ATOM
      1 O1         2.5119    6.3804    3.7855 O.3       1 RES1    0.0000
      2 O2         3.9555    3.0252    5.4573 O.2       1 RES1    0.0000
      3 O3         4.4510    9.6704    5.6412 O.3       1 RES1    0.0000
      4 N1         3.7042    5.2788    5.4820 N.am      1 RES1    0.0000
      5 N2         3.4277    8.7500    5.2514 N.2       1 RES1    0.0000
      6 C1         1.9685    5.1483    3.4396 C.2       1 RES1    0.0000
      7 C2         2.2120    4.0155    4.1149 C.2       1 RES1    0.0000
      8 C3         3.3318    4.0449    5.1086 C.2       1 RES1    0.0000
      9 C4         2.9179    6.4199    5.1690 C.3       1 RES1    0.0000
     10 C5         4.9392    5.5749    6.2204 C.3       1 RES1    0.0000
     11 C6         5.1095    7.0654    6.0502 C.3       1 RES1    0.0000
     12 C7         3.8056    7.5739    5.4902 C.2       1 RES1    0.0000
     13 C8         1.5990    2.7015    3.7827 C.3       1 RES1    0.0000
     14 C9         1.1606    5.2678    2.1714 C.3       1 RES1    0.0000
     15 C10       -0.2801    5.7138    2.4047 C.3       1 RES1    0.0000
     16 C11       -1.1000    5.7800    1.1035 C.3       1 RES1    0.0000
     17 C12       -1.3927    4.4062    0.5161 C.3       1 RES1    0.0000
     18 C13       -2.1430    4.4789   -0.8153 C.2       1 RES1    0.0000
     19 C14       -3.3474    3.9364   -1.0212 C.2       1 RES1    0.0000
     20 C15       -4.1133    4.0412   -2.3031 C.3       1 RES1    0.0000
     21 H1         2.1250    6.4429    5.7455 H         1 RES1    0.0000
     22 H2         5.6925    5.0931    5.8471 H         1 RES1    0.0000
     23 H3         4.8492    5.3405    7.1592 H         1 RES1    0.0000
     24 H4         5.8383    7.2567    5.4380 H         1 RES1    0.0000
     25 H5         5.3015    7.4866    6.9012 H         1 RES1    0.0000
     26 H6         0.9027    2.8284    3.1322 H         1 RES1    0.0000
     27 H7         1.2277    2.3116    4.5761 H         1 RES1    0.0000
     28 H8         2.2696    2.1176    3.4231 H         1 RES1    0.0000
     29 H9         1.1534    4.4081    1.7212 H         1 RES1    0.0000
     30 H10        1.5936    5.9050    1.5839 H         1 RES1    0.0000
     31 H11       -0.2771    6.5891    2.8220 H         1 RES1    0.0000
     32 H12       -0.7077    5.0940    3.0169 H         1 RES1    0.0000
     33 H13       -1.9391    6.2324    1.2820 H         1 RES1    0.0000
     34 H14       -0.6124    6.3059    0.4502 H         1 RES1    0.0000
     35 H15       -1.9217    3.8978    1.1475 H         1 RES1    0.0000
     36 H16       -0.5560    3.9345    0.3816 H         1 RES1    0.0000
     37 H17       -1.7376    4.9248   -1.5235 H         1 RES1    0.0000
     38 H18       -3.7354    3.4638   -0.3184 H         1 RES1    0.0000
     39 H19       -4.9482    3.5750   -2.2153 H         1 RES1    0.0000
     40 H20       -3.6011    3.6495   -3.0141 H         1 RES1    0.0000
     41 H21       -4.2818    4.9653   -2.5008 H         1 RES1    0.0000
     42 H22        3.8986   10.7306    5.3529 H         1 RES1    0.0000
@<TRIPOS>BOND
     1    1    6 1
     2    2    8 2
     3    3    5 1
     4    4    8 1
     5    5   12 2
     6    6    7 2
     7    7    8 1
     8    9    1 1
     9   10    4 1
    10   11   10 1
    11   12    9 1
    12   13    7 1
    13   14    6 1
    14   15   14 1
    15   16   15 1
    16   17   16 1
    17   18   17 1
    18   19   18 2
    19   20   19 1
    20   21    9 1
    21   22   10 1
    22   23   10 1
    23   24   11 1
    24   25   11 1
    25   26   13 1
    26   27   13 1
    27   28   13 1
    28   29   14 1
    29   30   14 1
    30   31   15 1
    31   32   15 1
    32   33   16 1
    33   34   16 1
    34   35   17 1
    35   36   17 1
    36   37   18 1
    37   38   19 1
    38   39   20 1
    39   40   20 1
    40   41   20 1
    41   42    3 1
    42    4    9 1
    43   11   12 1
@<TRIPOS>SUBSTRUCTURE
     1 RES1 1

@<TRIPOS>CRYSIN
   5.9978    9.1950   27.4510  90.0000  90.0000  90.0000  19 1

