# MOL2 file generated by ConQuest
# Please check atom types

@<TRIPOS>MOLECULE
SOQVEZ
    41    42     1
SMALL
NO_CHARGES
****
Generated from CSD

@<TRIPOS>ATOM
      1 O1         6.9964    3.0067   22.1324 O.2       1 RES1    0.0000
      2 O2         5.5968    6.3708   23.8972 O.3       1 RES1    0.0000
      3 N1         6.7562    5.2510   22.1600 N.am      1 RES1    0.0000
      4 C1         5.0207    5.1318   24.1987 C.2       1 RES1    0.0000
      5 C2         5.2747    4.0386   23.5791 C.2       1 RES1    0.0000
      6 C3         6.4119    4.0019   22.5030 C.2       1 RES1    0.0000
      7 C4         7.9536    5.5516   21.3163 C.3       1 RES1    0.0000
      8 C5         8.1439    7.0783   21.5127 C.3       1 RES1    0.0000
      9 C6         6.8592    7.5356   22.1407 C.2       1 RES1    0.0000
     10 C7         5.9791    6.3910   22.5307 C.3       1 RES1    0.0000
     11 C8         4.2495    5.2739   25.5293 C.3       1 RES1    0.0000
     12 C9         2.7710    5.6386   25.2748 C.3       1 RES1    0.0000
     13 C10        2.0546    5.7293   26.5583 C.3       1 RES1    0.0000
     14 C11        1.7584    4.3886   27.1060 C.3       1 RES1    0.0000
     15 C12        1.0029    4.4280   28.3646 C.2       1 RES1    0.0000
     16 C13       -0.1607    3.9698   28.7049 C.2       1 RES1    0.0000
     17 C14       -0.9427    4.0752   30.0437 C.3       1 RES1    0.0000
     18 C15        4.7143    2.6640   23.8585 C.3       1 RES1    0.0000
     19 N2         6.4847    8.7461   22.4477 N.2       1 RES1    0.0000
     20 O3         7.4901    9.6341   21.9498 O.3       1 RES1    0.0000
     21 H1         7.7881    5.3371   20.3841 H         1 RES1    0.0000
     22 H2         8.7302    5.0567   21.6234 H         1 RES1    0.0000
     23 H3         8.9030    7.2588   22.0964 H         1 RES1    0.0000
     24 H4         8.2980    7.5209   20.6635 H         1 RES1    0.0000
     25 H5         5.1700    6.4139   21.9775 H         1 RES1    0.0000
     26 H6         4.2959    4.4390   26.0216 H         1 RES1    0.0000
     27 H7         4.6637    5.9639   26.0714 H         1 RES1    0.0000
     28 H8         2.7186    6.4881   24.8100 H         1 RES1    0.0000
     29 H9         2.3580    4.9614   24.7160 H         1 RES1    0.0000
     30 H10        1.2245    6.2141   26.4283 H         1 RES1    0.0000
     31 H11        2.5952    6.2242   27.1945 H         1 RES1    0.0000
     32 H12        1.2504    3.8865   26.4504 H         1 RES1    0.0000
     33 H13        2.5940    3.9185   27.2554 H         1 RES1    0.0000
     34 H14        1.4466    4.8688   29.0534 H         1 RES1    0.0000
     35 H15       -0.6020    3.4988   28.0354 H         1 RES1    0.0000
     36 H16       -1.7843    3.6207   29.9607 H         1 RES1    0.0000
     37 H17       -1.0974    4.9999   30.2512 H         1 RES1    0.0000
     38 H18       -0.4292    3.6702   30.7463 H         1 RES1    0.0000
     39 H19        5.0833    2.0353   23.2333 H         1 RES1    0.0000
     40 H20        3.7589    2.6832   23.7672 H         1 RES1    0.0000
     41 H21        4.9448    2.4001   24.7520 H         1 RES1    0.0000
@<TRIPOS>BOND
     1    1    6 2
     2    2    4 1
     3    3    6 1
     4    4    5 2
     5    5    6 1
     6    7    3 1
     7    8    7 1
     8    9    8 1
     9   10    2 1
    10   11    4 1
    11   12   11 1
    12   13   12 1
    13   14   13 1
    14   15   14 1
    15   16   15 2
    16   17   16 1
    17   18    5 1
    18   19    9 2
    19   20   19 1
    20   21    7 1
    21   22    7 1
    22   23    8 1
    23   24    8 1
    24   25   10 1
    25   26   11 1
    26   27   11 1
    27   28   12 1
    28   29   12 1
    29   30   13 1
    30   31   13 1
    31   32   14 1
    32   33   14 1
    33   34   15 1
    34   35   16 1
    35   36   17 1
    36   37   17 1
    37   38   17 1
    38   39   18 1
    39   40   18 1
    40   41   18 1
    41    3   10 1
    42    9   10 1
@<TRIPOS>SUBSTRUCTURE
     1 RES1 1

@<TRIPOS>CRYSIN
   6.0200    9.1640   27.6620  90.0000  90.0000  90.0000  19 1

