# MOL2 file generated by ConQuest
# Please check atom types

@<TRIPOS>MOLECULE
SORBAC
    62    66     2
SMALL
NO_CHARGES
****
Generated from CSD

@<TRIPOS>ATOM
      1 O1        -5.3490   11.8852    1.8416 O.2       1 RES1    0.0000
      2 O2        -3.9010   13.4753    2.0296 O.2       1 RES1    0.0000
      3 N1        -4.2855   12.3425    2.2175 N.pl3     1 RES1    0.0000
      4 N2        -0.8240    8.9265    5.0556 N.pl3     1 RES1    0.0000
      5 N3         0.1256    7.1231    5.9586 N.2       1 RES1    0.0000
      6 C1        -3.3620   11.4166    2.9255 C.ar      1 RES1    0.0000
      7 C2        -3.8211   10.1777    3.2813 C.ar      1 RES1    0.0000
      8 C3        -2.9801    9.3539    4.0083 C.ar      1 RES1    0.0000
      9 C4        -1.6987    9.7742    4.3156 C.ar      1 RES1    0.0000
     10 C5        -1.2520   11.0211    3.9279 C.ar      1 RES1    0.0000
     11 C6        -2.1050   11.8596    3.2364 C.ar      1 RES1    0.0000
     12 C7        -0.0211    9.3669    6.0981 C.2       1 RES1    0.0000
     13 C8         0.5220    8.2690    6.6206 C.2       1 RES1    0.0000
     14 C9        -0.6957    7.5425    5.0130 C.2       1 RES1    0.0000
     15 C10       -1.2953    6.6700    3.9953 C.ar      1 RES1    0.0000
     16 C11       -1.3507    7.0074    2.6572 C.ar      1 RES1    0.0000
     17 C12       -1.8838    6.1091    1.7376 C.ar      1 RES1    0.0000
     18 C13       -2.3495    4.8775    2.1584 C.ar      1 RES1    0.0000
     19 C14       -2.2859    4.5464    3.4787 C.ar      1 RES1    0.0000
     20 C15       -1.7607    5.4219    4.3995 C.ar      1 RES1    0.0000
     21 O3         1.6225    0.5616    0.2636 O.2       2 RES2    0.0000
     22 O4         0.2929    2.1521   -0.3298 O.2       2 RES2    0.0000
     23 N4         1.1753    1.6958    0.3747 N.pl3     2 RES2    0.0000
     24 N5         3.4265    5.1032    4.2518 N.pl3     2 RES2    0.0000
     25 N6         3.9767    6.9565    5.3475 N.2       2 RES2    0.0000
     26 C16        1.7345    2.5672    1.4291 C.ar      2 RES2    0.0000
     27 C17        1.0948    3.7279    1.7352 C.ar      2 RES2    0.0000
     28 C18        1.6354    4.5619    2.6856 C.ar      2 RES2    0.0000
     29 C19        2.8364    4.2371    3.2861 C.ar      2 RES2    0.0000
     30 C20        3.4662    3.0423    2.9669 C.ar      2 RES2    0.0000
     31 C21        2.9013    2.1865    2.0390 C.ar      2 RES2    0.0000
     32 C22        3.9525    4.7042    5.4634 C.2       2 RES2    0.0000
     33 C23        4.2750    5.8370    6.1052 C.2       2 RES2    0.0000
     34 C24        3.4687    6.4822    4.2340 C.2       2 RES2    0.0000
     35 C25        3.1120    7.3040    3.0709 C.ar      2 RES2    0.0000
     36 C26        3.7000    7.0550    1.8345 C.ar      2 RES2    0.0000
     37 C27        3.3751    7.8679    0.7435 C.ar      2 RES2    0.0000
     38 C28        2.4975    8.9128    0.9066 C.ar      2 RES2    0.0000
     39 C29        1.9195    9.1591    2.1194 C.ar      2 RES2    0.0000
     40 C30        2.2252    8.3723    3.2140 C.ar      2 RES2    0.0000
     41 H1        -4.7869    9.9419    3.0260 H         1 RES1    0.0000
     42 H2        -3.3053    8.4587    4.3262 H         1 RES1    0.0000
     43 H3        -0.3528   11.3152    4.2435 H         1 RES1    0.0000
     44 H4        -1.7985   12.7832    2.9551 H         1 RES1    0.0000
     45 H5         0.0371   10.2941    6.2766 H         1 RES1    0.0000
     46 H6         1.1238    8.2599    7.3995 H         1 RES1    0.0000
     47 H7        -0.9389    7.8997    2.3286 H         1 RES1    0.0000
     48 H8        -1.9664    6.3803    0.8392 H         1 RES1    0.0000
     49 H9        -2.7596    4.2999    1.4657 H         1 RES1    0.0000
     50 H10       -2.5228    3.6407    3.8416 H         1 RES1    0.0000
     51 H11       -1.7908    5.2053    5.4610 H         1 RES1    0.0000
     52 H12        0.2607    3.9140    1.3712 H         2 RES2    0.0000
     53 H13        1.1472    5.4249    2.9314 H         2 RES2    0.0000
     54 H14        4.2538    2.7679    3.5106 H         2 RES2    0.0000
     55 H15        3.3752    1.3249    1.7967 H         2 RES2    0.0000
     56 H16        4.5950    5.9490    7.0213 H         2 RES2    0.0000
     57 H17        4.3142    6.1949    1.6076 H         2 RES2    0.0000
     58 H18        3.9299    7.7582   -0.0946 H         2 RES2    0.0000
     59 H19        2.4398    9.5165    0.0709 H         2 RES2    0.0000
     60 H20        1.2555    9.9030    2.2577 H         2 RES2    0.0000
     61 H21        1.8127    8.4726    4.1135 H         2 RES2    0.0000
     62 H22        4.0275    3.7935    5.7329 H         2 RES2    0.0000
@<TRIPOS>BOND
     1    1    3 2
     2    2    3 2
     3    3    6 1
     4    4    9 1
     5    5   13 1
     6    6    7 ar
     7    7    8 ar
     8    8    9 ar
     9    9   10 ar
    10   10   11 ar
    11   11    6 ar
    12   12    4 1
    13   13   12 2
    14   14    4 1
    15   15   14 1
    16   16   15 ar
    17   17   16 ar
    18   18   17 ar
    19   19   18 ar
    20   20   15 ar
    21   21   23 2
    22   22   23 2
    23   23   26 1
    24   24   29 1
    25   25   33 1
    26   26   27 ar
    27   27   28 ar
    28   28   29 ar
    29   29   30 ar
    30   30   31 ar
    31   31   26 ar
    32   32   24 1
    33   33   32 2
    34   34   24 1
    35   35   34 1
    36   36   35 ar
    37   37   36 ar
    38   38   37 ar
    39   39   38 ar
    40   40   35 ar
    41   41    7 1
    42   42    8 1
    43   43   10 1
    44   44   11 1
    45   45   12 1
    46   46   13 1
    47   47   16 1
    48   48   17 1
    49   49   18 1
    50   50   19 1
    51   51   20 1
    52   52   27 1
    53   53   28 1
    54   54   30 1
    55   55   31 1
    56   56   33 1
    57   57   36 1
    58   58   37 1
    59   59   38 1
    60   60   39 1
    61   61   40 1
    62   62   32 1
    63    5   14 2
    64   19   20 ar
    65   25   34 2
    66   39   40 ar
@<TRIPOS>SUBSTRUCTURE
     1 RES1 1
     2 RES2 21

@<TRIPOS>CRYSIN
   9.3500   11.8930   12.6580 103.7300 103.6800  97.0500   2 1

