# MOL2 file generated by ConQuest
# Please check atom types

@<TRIPOS>MOLECULE
SORBEG
    21    22     1
SMALL
NO_CHARGES
****
Generated from CSD

@<TRIPOS>ATOM
      1 O1        -3.9258    2.4790    4.2819 O.2       1 RES1    0.0000
      2 O2        -3.9938    0.6691    5.4656 O.2       1 RES1    0.0000
      3 N1        -3.3833    1.5399    4.8561 N.pl3     1 RES1    0.0000
      4 N2         2.2228    1.1697    4.6986 N.pl3     1 RES1    0.0000
      5 N3         2.9754    2.1594    4.1357 N.2       1 RES1    0.0000
      6 C1        -1.9194    1.4458    4.8053 C.ar      1 RES1    0.0000
      7 C2        -1.1987    2.4624    4.2205 C.ar      1 RES1    0.0000
      8 C3         0.1782    2.3756    4.1781 C.ar      1 RES1    0.0000
      9 C4         0.8126    1.2741    4.7389 C.ar      1 RES1    0.0000
     10 C5         0.0678    0.2565    5.3215 C.ar      1 RES1    0.0000
     11 C6        -1.3072    0.3413    5.3519 C.ar      1 RES1    0.0000
     12 C7         4.2184    1.7137    4.2424 C.2       1 RES1    0.0000
     13 C8         4.2875    0.4747    4.8512 C.2       1 RES1    0.0000
     14 C9         3.0080    0.1448    5.1337 C.2       1 RES1    0.0000
     15 H1        -1.6303    3.2164    3.8561 H         1 RES1    0.0000
     16 H2         0.6905    3.0405    3.7713 H         1 RES1    0.0000
     17 H3         0.4969   -0.5274    5.7064 H         1 RES1    0.0000
     18 H4        -1.8211   -0.3516    5.7488 H         1 RES1    0.0000
     19 H5         4.9328    2.2546    3.8984 H         1 RES1    0.0000
     20 H6         5.0785   -0.0310    5.0355 H         1 RES1    0.0000
     21 H7         2.6610   -0.6205    5.5511 H         1 RES1    0.0000
@<TRIPOS>BOND
     1    1    3 2
     2    2    3 2
     3    3    6 1
     4    4    5 1
     5    5   12 2
     6    6    7 ar
     7    7    8 ar
     8    8    9 ar
     9    9    4 1
    10   10    9 ar
    11   11    6 ar
    12   12   13 1
    13   13   14 2
    14   14    4 1
    15   15    7 1
    16   16    8 1
    17   17   10 1
    18   18   11 1
    19   19   12 1
    20   20   13 1
    21   21   14 1
    22   10   11 ar
@<TRIPOS>SUBSTRUCTURE
     1 RES1 1

@<TRIPOS>CRYSIN
  11.5190   10.3420    7.0770  90.0000  93.6800  90.0000 231 1

