# MOL2 file generated by ConQuest
# Please check atom types

@<TRIPOS>MOLECULE
SORBUW
    22    23     1
SMALL
NO_CHARGES
****
Generated from CSD

@<TRIPOS>ATOM
      1 O1         0.2867    6.4946    8.2973 O.2       1 RES1    0.0000
      2 N1         0.0000    5.4650    7.7253 N.pl3     1 RES1    0.0000
      3 N2         0.0000    5.4650    2.0992 N.pl3     1 RES1    0.0000
      4 C1         0.0000    5.4650    6.2637 C.ar      1 RES1    0.0000
      5 C2         0.3003    6.6280    5.5851 C.ar      1 RES1    0.0000
      6 C3         0.2976    6.6247    4.2207 C.ar      1 RES1    0.0000
      7 C4         0.0000    5.4650    3.5233 C.ar      1 RES1    0.0000
      8 C5         0.5447    6.4367    1.2823 C.2       1 RES1    0.0000
      9 C6         0.3536    6.0771    0.0000 C.2       1 RES1    0.0000
     10 H1         0.4641    7.3996    6.0949 H         1 RES1    0.0000
     11 H2         0.5051    7.4652    3.7507 H         1 RES1    0.0000
     12 H3         1.0511    7.1701    1.6409 H         1 RES1    0.0000
     13 H4         0.6006    6.6017   -0.8322 H         1 RES1    0.0000
     14 O1N       -0.2867    4.4354    8.2973 O.2       1 RES1    0.0000
     15 C2N       -0.3003    4.3020    5.5851 C.ar      1 RES1    0.0000
     16 C3N       -0.2976    4.3053    4.2207 C.ar      1 RES1    0.0000
     17 C5N       -0.5447    4.4933    1.2823 C.2       1 RES1    0.0000
     18 C6N       -0.3536    4.8529    0.0000 C.2       1 RES1    0.0000
     19 H1N       -0.4641    3.5304    6.0949 H         1 RES1    0.0000
     20 H2N       -0.5051    3.4648    3.7507 H         1 RES1    0.0000
     21 H3N       -1.0511    3.7599    1.6409 H         1 RES1    0.0000
     22 H4N       -0.6006    4.3283   -0.8322 H         1 RES1    0.0000
@<TRIPOS>BOND
     1    1    2 2
     2    2    4 1
     3    3    7 1
     4    4    5 ar
     5    5    6 ar
     6    6    7 ar
     7    7   16 ar
     8    8    3 1
     9    9    8 2
    10   10    5 1
    11   11    6 1
    12   12    8 1
    13   13    9 1
    14   14    2 2
    15   15    4 ar
    16   16   15 ar
    17   17    3 1
    18   18    9 1
    19   19   15 1
    20   20   16 1
    21   21   17 1
    22   22   18 1
    23   17   18 2
@<TRIPOS>SUBSTRUCTURE
     1 RES1 1

@<TRIPOS>CRYSIN
  13.6510   10.9300   11.7210  90.0000  90.0000  90.0000  43 1

