# MOL2 file generated by ConQuest
# Please check atom types

@<TRIPOS>MOLECULE
SORYII
    50    51     1
SMALL
NO_CHARGES
****
Generated from CSD

@<TRIPOS>ATOM
      1 O1         3.6126   13.2932    2.7782 O.2       1 RES1    0.0000
      2 O2         4.4732   11.9244    1.3329 O.2       1 RES1    0.0000
      3 O3         5.9885   12.5774    3.9761 O.2       1 RES1    0.0000
      4 O4         5.0655   13.6489    5.6267 O.2       1 RES1    0.0000
      5 N1         6.7813   17.6035   -0.1119 N.3       1 RES1    0.0000
      6 N2         8.1601   17.9736    2.3571 N.3       1 RES1    0.0000
      7 N3         4.4453   13.0010    1.9203 N.pl3     1 RES1    0.0000
      8 N4         5.5987   13.6210    4.5059 N.pl3     1 RES1    0.0000
      9 C1         6.4880   16.3690    0.4390 C.ar      1 RES1    0.0000
     10 C2         6.1096   15.3164   -0.3809 C.ar      1 RES1    0.0000
     11 H1         6.2293   15.3851   -1.3200 H         1 RES1    0.0000
     12 C3         5.5595   14.1676    0.1577 C.ar      1 RES1    0.0000
     13 H2         5.2958   13.4591   -0.4184 H         1 RES1    0.0000
     14 C4         5.3898   14.0379    1.5049 C.ar      1 RES1    0.0000
     15 C5         5.9261   14.9732    2.4124 C.ar      1 RES1    0.0000
     16 C6         5.8496   14.8793    3.8376 C.ar      1 RES1    0.0000
     17 C7         6.1792   15.9395    4.6381 C.ar      1 RES1    0.0000
     18 H3         5.9536   15.9135    5.5606 H         1 RES1    0.0000
     19 C8         6.8305   17.0434    4.1317 C.ar      1 RES1    0.0000
     20 H4         7.0257   17.7802    4.6982 H         1 RES1    0.0000
     21 C9         7.2037   17.0801    2.7927 C.ar      1 RES1    0.0000
     22 C10        6.5653   16.1453    1.8805 C.ar      1 RES1    0.0000
     23 C11        7.1136   17.6565   -1.5352 C.3       1 RES1    0.0000
     24 H5         6.2758   17.6544   -2.0633 H         1 RES1    0.0000
     25 H6         7.6259   16.8447   -1.7775 H         1 RES1    0.0000
     26 C12        7.9256   18.8830   -1.9027 C.3       1 RES1    0.0000
     27 H7         8.1166   18.8724   -2.8645 H         1 RES1    0.0000
     28 H8         8.7670   18.8795   -1.4016 H         1 RES1    0.0000
     29 H9         7.4162   19.6906   -1.6806 H         1 RES1    0.0000
     30 C13        6.1049   18.7999    0.4450 C.3       1 RES1    0.0000
     31 H10        6.7414   19.5592    0.4423 H         1 RES1    0.0000
     32 H11        5.8541   18.6181    1.3863 H         1 RES1    0.0000
     33 C14        4.8651   19.1969   -0.3261 C.3       1 RES1    0.0000
     34 H12        4.4685   19.9958    0.0816 H         1 RES1    0.0000
     35 H13        4.2167   18.4626   -0.3028 H         1 RES1    0.0000
     36 H14        5.1064   19.3896   -1.2553 H         1 RES1    0.0000
     37 C15        8.5053   19.0982    3.2273 C.3       1 RES1    0.0000
     38 H15        9.0968   18.7763    3.9531 H         1 RES1    0.0000
     39 H16        7.6788   19.4489    3.6452 H         1 RES1    0.0000
     40 C16        9.1970   20.2192    2.4892 C.3       1 RES1    0.0000
     41 H17        9.4050   20.9439    3.1162 H         1 RES1    0.0000
     42 H18        8.6079   20.5582    1.7826 H         1 RES1    0.0000
     43 H19       10.0266   19.8842    2.0905 H         1 RES1    0.0000
     44 C17        9.2346   17.4836    1.4870 C.3       1 RES1    0.0000
     45 H20        9.5294   18.2196    0.8947 H         1 RES1    0.0000
     46 H21        8.8791   16.7585    0.9151 H         1 RES1    0.0000
     47 C18       10.4443   16.9564    2.2666 C.3       1 RES1    0.0000
     48 H22       11.1308   16.6526    1.6381 H         1 RES1    0.0000
     49 H23       10.1657   16.2075    2.8339 H         1 RES1    0.0000
     50 H24       10.8086   17.6728    2.8271 H         1 RES1    0.0000
@<TRIPOS>BOND
     1    1    7 2
     2    2    7 2
     3    3    8 2
     4    4    8 2
     5    5    9 1
     6    6   21 1
     7    7   14 1
     8    8   16 1
     9    9   10 ar
    10   10   11 1
    11   12   10 ar
    12   13   12 1
    13   14   12 ar
    14   15   14 ar
    15   16   15 ar
    16   17   16 ar
    17   18   17 1
    18   19   17 ar
    19   20   19 1
    20   21   19 ar
    21   22    9 ar
    22   23    5 1
    23   24   23 1
    24   25   23 1
    25   26   23 1
    26   27   26 1
    27   28   26 1
    28   29   26 1
    29   30    5 1
    30   31   30 1
    31   32   30 1
    32   33   30 1
    33   34   33 1
    34   35   33 1
    35   36   33 1
    36   37    6 1
    37   38   37 1
    38   39   37 1
    39   40   37 1
    40   41   40 1
    41   42   40 1
    42   43   40 1
    43   44    6 1
    44   45   44 1
    45   46   44 1
    46   47   44 1
    47   48   47 1
    48   49   47 1
    49   50   47 1
    50   15   22 ar
    51   21   22 ar
@<TRIPOS>SUBSTRUCTURE
     1 RES1 1

@<TRIPOS>CRYSIN
   7.4837   14.1303   17.1124  90.0000  96.2720  90.0000 231 1

