# MOL2 file generated by ConQuest
# Please check atom types

@<TRIPOS>MOLECULE
SORYAA
   132   126     3
SMALL
NO_CHARGES
****
Generated from CSD

@<TRIPOS>ATOM
      1 N1        12.1742    4.6582    3.6729 N.3       1 RES1    0.0000
      2 N2        17.6559    3.6881    2.9280 N.pl3     1 RES1    0.0000
      3 N3         6.0494    7.2774    1.2117 N.pl3     2 RES2    0.0000
      4 N4         5.2633    8.1828    6.7055 N.3       2 RES2    0.0000
      5 O1        18.1473    2.6217    3.3018 O.2       1 RES1    0.0000
      6 O2        18.2753    4.5267    2.2687 O.2       1 RES1    0.0000
      7 O3         6.5856    8.1920    0.5968 O.2       2 RES2    0.0000
      8 O4         5.8136    6.1686    0.7095 O.2       2 RES2    0.0000
      9 C1        13.4901    4.3096    3.4360 C.ar      1 RES1    0.0000
     10 C2        14.1945    4.7878    2.3432 C.ar      1 RES1    0.0000
     11 H1        13.7337    5.2707    1.6681 H         1 RES1    0.0000
     12 C3        15.5399    4.5779    2.2174 C.ar      1 RES1    0.0000
     13 H2        15.9910    4.8786    1.4373 H         1 RES1    0.0000
     14 C4        16.2451    3.9391    3.2043 C.ar      1 RES1    0.0000
     15 C5        15.6100    3.4279    4.3712 C.ar      1 RES1    0.0000
     16 C6        14.1826    3.4279    4.3712 C.ar      1 RES1    0.0000
     17 C7        11.4151    5.2613    2.5734 C.3       1 RES1    0.0000
     18 H3        11.6537    4.8004    1.7310 H         1 RES1    0.0000
     19 H4        11.6836    6.2100    2.4829 H         1 RES1    0.0000
     20 C8         9.9250    5.1953    2.7563 C.3       1 RES1    0.0000
     21 H5         9.6632    5.7301    3.5477 H         1 RES1    0.0000
     22 H6         9.6520    4.2561    2.9147 H         1 RES1    0.0000
     23 C9         9.2209    5.7273    1.5296 C.3       1 RES1    0.0000
     24 H7         8.2511    5.6341    1.6436 H         1 RES1    0.0000
     25 H8         9.5084    5.2186    0.7414 H         1 RES1    0.0000
     26 H9         9.4468    6.6734    1.4075 H         1 RES1    0.0000
     27 C10       11.8518    5.1674    5.0143 C.3       1 RES1    0.0000
     28 H10       12.4428    4.7278    5.6756 H         1 RES1    0.0000
     29 H11       10.9187    4.9238    5.2350 H         1 RES1    0.0000
     30 C11       12.0124    6.6885    5.1369 C.3       1 RES1    0.0000
     31 H12       12.8793    6.9573    4.7402 H         1 RES1    0.0000
     32 H13       11.2918    7.1341    4.6248 H         1 RES1    0.0000
     33 C12       11.9602    7.1506    6.5624 C.3       1 RES1    0.0000
     34 H14       12.0436    8.1255    6.5936 H         1 RES1    0.0000
     35 H15       12.6965    6.7434    7.0639 H         1 RES1    0.0000
     36 H16       11.1071    6.8819    6.9607 H         1 RES1    0.0000
     37 C13        5.5123    7.8218    5.3848 C.ar      2 RES2    0.0000
     38 C14        4.6637    6.8558    4.7069 C.ar      2 RES2    0.0000
     39 C15        4.6637    6.8558    3.2658 C.ar      2 RES2    0.0000
     40 C16        5.7528    7.4879    2.6117 C.ar      2 RES2    0.0000
     41 C17        6.6876    8.2050    3.3290 C.ar      2 RES2    0.0000
     42 H17        7.4414    8.5670    2.8798 H         2 RES2    0.0000
     43 C18        6.5477    8.4038    4.6746 C.ar      2 RES2    0.0000
     44 H18        7.1747    8.9523    5.1318 H         2 RES2    0.0000
     45 C19        3.8858    8.4121    7.1498 C.3       2 RES2    0.0000
     46 H19        3.3243    7.8129    6.6513 H         2 RES2    0.0000
     47 H20        3.7534    8.0761    8.0396 H         2 RES2    0.0000
     48 C20        3.2086    9.9354    6.9870 C.3       2 RES2    0.0000
     49 H21        2.2927    9.9176    7.3629 H         2 RES2    0.0000
     50 H22        3.7403   10.5771    7.5220 H         2 RES2    0.0000
     51 C21        3.1396   10.4428    5.5287 C.3       2 RES2    0.0000
     52 H23        2.7740   11.3518    5.5147 H         2 RES2    0.0000
     53 H24        2.5595    9.8504    5.0042 H         2 RES2    0.0000
     54 H25        4.0388   10.4455    5.1388 H         2 RES2    0.0000
     55 C22        6.3408    8.8988    7.4708 C.3       2 RES2    0.0000
     56 H26        6.5926    9.7106    6.9625 H         2 RES2    0.0000
     57 H27        5.9584    9.1977    8.3333 H         2 RES2    0.0000
     58 C23        7.5440    8.1447    7.7458 C.3       2 RES2    0.0000
     59 H28        7.9936    7.9226    6.8925 H         2 RES2    0.0000
     60 H29        7.3034    7.2959    8.1934 H         2 RES2    0.0000
     61 C24        8.5234    8.9427    8.6496 C.3       2 RES2    0.0000
     62 H30        9.3275    8.4066    8.8124 H         2 RES2    0.0000
     63 H31        8.0869    9.1456    9.5030 H         2 RES2    0.0000
     64 H32        8.7715    9.7777    8.2022 H         2 RES2    0.0000
     65 C25        3.6508    9.8230    7.1548 Du        3 SUP3    0.0000
     66 C26        2.2740    9.9135    7.6077 Du        3 SUP3    0.0000
     67 H33        3.2627    7.9856    6.5568 Du        3 SUP3    0.0000
     68 H34        3.7552   10.2083    6.2491 Du        3 SUP3    0.0000
     69 H35        4.2645   10.2864    7.7790 Du        3 SUP3    0.0000
     70 H36        2.0241   10.8555    7.7056 Du        3 SUP3    0.0000
     71 H37        2.1845    9.4610    8.4732 Du        3 SUP3    0.0000
     72 H38        1.6864    9.4843    6.9537 Du        3 SUP3    0.0000
     73 N1C       12.1742    2.1976    5.0696 N.3       1 RES1    0.0000
     74 N2C       17.6559    3.1677    5.8144 N.pl3     1 RES1    0.0000
     75 N3A        3.2780    6.4342    1.2117 N.pl3     2 RES2    0.0000
     76 N4A        4.0642    5.5288    6.7055 N.3       2 RES2    0.0000
     77 O1C       18.1473    4.2341    5.4406 O.2       1 RES1    0.0000
     78 O2C       18.2753    2.3291    6.4738 O.2       1 RES1    0.0000
     79 O3A        2.7419    5.5196    0.5968 O.2       2 RES2    0.0000
     80 O4A        3.5138    7.5430    0.7095 O.2       2 RES2    0.0000
     81 C1C       13.4901    2.5462    5.3065 C.ar      1 RES1    0.0000
     82 C2C       14.1945    2.0680    6.3993 C.ar      1 RES1    0.0000
     83 H1C       13.7337    1.5851    7.0744 H         1 RES1    0.0000
     84 C3C       15.5399    2.2779    6.5250 C.ar      1 RES1    0.0000
     85 H2C       15.9910    1.9772    7.3052 H         1 RES1    0.0000
     86 C4C       16.2451    2.9167    5.5382 C.ar      1 RES1    0.0000
     87 C7C       11.4151    1.5945    6.1690 C.3       1 RES1    0.0000
     88 H3C       11.6537    2.0554    7.0114 H         1 RES1    0.0000
     89 H4C       11.6836    0.6458    6.2596 H         1 RES1    0.0000
     90 C8C        9.9250    1.6605    5.9861 C.3       1 RES1    0.0000
     91 H5C        9.6632    1.1257    5.1948 H         1 RES1    0.0000
     92 H6C        9.6520    2.5997    5.8277 H         1 RES1    0.0000
     93 C9C        9.2209    1.1285    7.2129 C.3       1 RES1    0.0000
     94 H7C        8.2511    1.2217    7.0989 H         1 RES1    0.0000
     95 H8C        9.5084    1.6372    8.0011 H         1 RES1    0.0000
     96 H9C        9.4468    0.1824    7.3349 H         1 RES1    0.0000
     97 C10C      11.8518    1.6884    3.7281 C.3       1 RES1    0.0000
     98 H10C      12.4428    2.1280    3.0669 H         1 RES1    0.0000
     99 H11C      10.9187    1.9320    3.5075 H         1 RES1    0.0000
    100 C11C      12.0124    0.1673    3.6056 C.3       1 RES1    0.0000
    101 H12C      12.8793   -0.1015    4.0023 H         1 RES1    0.0000
    102 H13C      11.2918   -0.2783    4.1177 H         1 RES1    0.0000
    103 C12C      11.9602   -0.2948    2.1800 C.3       1 RES1    0.0000
    104 H14C      12.0436   -1.2697    2.1489 H         1 RES1    0.0000
    105 H15C      12.6965    0.1124    1.6786 H         1 RES1    0.0000
    106 H16C      11.1071   -0.0261    1.7817 H         1 RES1    0.0000
    107 C13A       3.8151    5.8898    5.3848 C.ar      2 RES2    0.0000
    108 C16A       3.5747    6.2237    2.6117 C.ar      2 RES2    0.0000
    109 C17A       2.6399    5.5066    3.3290 C.ar      2 RES2    0.0000
    110 H17A       1.8860    5.1446    2.8798 H         2 RES2    0.0000
    111 C18A       2.7798    5.3078    4.6746 C.ar      2 RES2    0.0000
    112 H18A       2.1528    4.7593    5.1318 H         2 RES2    0.0000
    113 C19A       5.4416    5.2995    7.1498 C.3       2 RES2    0.0000
    114 H19A       6.0031    5.8987    6.6513 H         2 RES2    0.0000
    115 H20A       5.5741    5.6355    8.0396 H         2 RES2    0.0000
    116 C20A       6.1188    3.7762    6.9870 C.3       2 RES2    0.0000
    117 H21A       7.0348    3.7940    7.3629 H         2 RES2    0.0000
    118 H22A       5.5871    3.1345    7.5220 H         2 RES2    0.0000
    119 C21A       6.1878    3.2688    5.5287 C.3       2 RES2    0.0000
    120 H23A       6.5535    2.3598    5.5147 H         2 RES2    0.0000
    121 H24A       6.7680    3.8612    5.0042 H         2 RES2    0.0000
    122 H25A       5.2887    3.2661    5.1388 H         2 RES2    0.0000
    123 C22A       2.9866    4.8128    7.4708 C.3       2 RES2    0.0000
    124 H26A       2.7348    4.0010    6.9625 H         2 RES2    0.0000
    125 H27A       3.3691    4.5139    8.3333 H         2 RES2    0.0000
    126 C23A       1.7834    5.5669    7.7458 C.3       2 RES2    0.0000
    127 H28A       1.3338    5.7890    6.8925 H         2 RES2    0.0000
    128 H29A       2.0241    6.4157    8.1934 H         2 RES2    0.0000
    129 C24A       0.8040    4.7689    8.6496 C.3       2 RES2    0.0000
    130 H30A       0.0000    5.3050    8.8124 H         2 RES2    0.0000
    131 H31A       1.2406    4.5660    9.5030 H         2 RES2    0.0000
    132 H32A       0.5559    3.9339    8.2022 H         2 RES2    0.0000
@<TRIPOS>BOND
     1    1    9 1
     2    2    5 2
     3    3    7 2
     4    4   37 1
     5    6    2 2
     6    8    3 2
     7    9   10 ar
     8   10   11 1
     9   12   10 ar
    10   13   12 1
    11   14    2 1
    12   15   14 ar
    13   16    9 ar
    14   17    1 1
    15   18   17 1
    16   19   17 1
    17   20   17 1
    18   21   20 1
    19   22   20 1
    20   23   20 1
    21   24   23 1
    22   25   23 1
    23   26   23 1
    24   27    1 1
    25   28   27 1
    26   29   27 1
    27   30   27 1
    28   31   30 1
    29   32   30 1
    30   33   30 1
    31   34   33 1
    32   35   33 1
    33   36   33 1
    34   37   38 ar
    35   38   39 ar
    36   39   40 ar
    37   40    3 1
    38   41   40 ar
    39   42   41 1
    40   43   37 ar
    41   44   43 1
    42   45    4 1
    43   46   45 1
    44   47   45 1
    45   48   45 1
    46   49   48 1
    47   50   48 1
    48   51   48 1
    49   52   51 1
    50   53   51 1
    51   54   51 1
    52   55    4 1
    53   56   55 1
    54   57   55 1
    55   58   55 1
    56   59   58 1
    57   60   58 1
    58   61   58 1
    59   62   61 1
    60   63   61 1
    61   64   61 1
    62   73   81 1
    63   74   77 2
    64   75   79 2
    65   76  107 1
    66   78   74 2
    67   80   75 2
    68   81   16 ar
    69   82   81 ar
    70   83   82 1
    71   84   82 ar
    72   85   84 1
    73   86   15 ar
    74   87   73 1
    75   88   87 1
    76   89   87 1
    77   90   87 1
    78   91   90 1
    79   92   90 1
    80   93   90 1
    81   94   93 1
    82   95   93 1
    83   96   93 1
    84   97   73 1
    85   98   97 1
    86   99   97 1
    87  100   97 1
    88  101  100 1
    89  102  100 1
    90  103  100 1
    91  104  103 1
    92  105  103 1
    93  106  103 1
    94  107   38 ar
    95  108   39 ar
    96  109  108 ar
    97  110  109 1
    98  111  107 ar
    99  112  111 1
   100  113   76 1
   101  114  113 1
   102  115  113 1
   103  116  113 1
   104  117  116 1
   105  118  116 1
   106  119  116 1
   107  120  119 1
   108  121  119 1
   109  122  119 1
   110  123   76 1
   111  124  123 1
   112  125  123 1
   113  126  123 1
   114  127  126 1
   115  128  126 1
   116  129  126 1
   117  130  129 1
   118  131  129 1
   119  132  129 1
   120   12   14 ar
   121   15   16 ar
   122   41   43 ar
   123   74   86 1
   124   75  108 1
   125   84   86 ar
   126  109  111 ar
@<TRIPOS>SUBSTRUCTURE
     1 RES1 1
     2 RES2 3
     3 SUP3 65

@<TRIPOS>CRYSIN
  18.6549   13.7116   17.4849  90.0000  90.0000  90.0000  52 1

