# MOL2 file generated by ConQuest
# Please check atom types

@<TRIPOS>MOLECULE
SORYEE
    38    39     1
SMALL
NO_CHARGES
****
Generated from CSD

@<TRIPOS>ATOM
      1 O1         0.4467    7.6466   -2.6099 O.2       1 RES1    0.0000
      2 O2         1.3317    9.6241   -2.7390 O.2       1 RES1    0.0000
      3 N1         2.4180    8.5063    3.3221 N.3       1 RES1    0.0000
      4 N2         1.1070    8.5728   -2.1267 N.pl3     1 RES1    0.0000
      5 C1         2.0232    8.4717    2.0140 C.ar      1 RES1    0.0000
      6 C2         1.9278    9.6665    1.2966 C.ar      1 RES1    0.0000
      7 H1         2.0536   10.4762    1.7383 H         1 RES1    0.0000
      8 C3         1.6498    9.6665   -0.0548 C.ar      1 RES1    0.0000
      9 H2         1.5184   10.4724   -0.5011 H         1 RES1    0.0000
     10 C4         1.5648    8.4746   -0.7508 C.ar      1 RES1    0.0000
     11 C5         1.7286    7.2210   -0.1101 C.ar      1 RES1    0.0000
     12 C6         1.7286    7.2210    1.3327 C.ar      1 RES1    0.0000
     13 C7         3.3134    7.4983    3.8910 C.3       1 RES1    0.0000
     14 H3         3.2761    6.7001    3.3590 H         1 RES1    0.0000
     15 H4         3.0389    7.2961    4.7880 H         1 RES1    0.0000
     16 H5         4.2116    7.8353    3.8992 H         1 RES1    0.0000
     17 C8         2.3910    9.7464    4.0572 C.3       1 RES1    0.0000
     18 H6         1.7846   10.3578    3.6312 H         1 RES1    0.0000
     19 H7         3.2719   10.1287    4.0725 H         1 RES1    0.0000
     20 H8         2.0992    9.5799    4.9570 H         1 RES1    0.0000
     21 O1A        3.0106    6.7954   -2.6099 O.2       1 RES1    0.0000
     22 O2A        2.1255    4.8179   -2.7390 O.2       1 RES1    0.0000
     23 N1A        1.0392    5.9357    3.3221 N.3       1 RES1    0.0000
     24 N2A        2.3502    5.8692   -2.1267 N.pl3     1 RES1    0.0000
     25 C1A        1.4341    5.9703    2.0140 C.ar      1 RES1    0.0000
     26 C2A        1.5295    4.7755    1.2966 C.ar      1 RES1    0.0000
     27 H1A        1.4036    3.9658    1.7383 H         1 RES1    0.0000
     28 C3A        1.8075    4.7755   -0.0548 C.ar      1 RES1    0.0000
     29 H2A        1.9388    3.9696   -0.5011 H         1 RES1    0.0000
     30 C4A        1.8925    5.9674   -0.7508 C.ar      1 RES1    0.0000
     31 C7A        0.1438    6.9437    3.8910 C.3       1 RES1    0.0000
     32 H3A        0.1812    7.7419    3.3590 H         1 RES1    0.0000
     33 H4A        0.4183    7.1459    4.7880 H         1 RES1    0.0000
     34 H5A       -0.7544    6.6067    3.8992 H         1 RES1    0.0000
     35 C8A        1.0662    4.6956    4.0572 C.3       1 RES1    0.0000
     36 H6A        1.6726    4.0842    3.6312 H         1 RES1    0.0000
     37 H7A        0.1853    4.3133    4.0725 H         1 RES1    0.0000
     38 H8A        1.3580    4.8621    4.9570 H         1 RES1    0.0000
@<TRIPOS>BOND
     1    1    4 2
     2    2    4 2
     3    3    5 1
     4    4   10 1
     5    5    6 ar
     6    6    7 1
     7    8    6 ar
     8    9    8 1
     9   10    8 ar
    10   11   10 ar
    11   12    5 ar
    12   13    3 1
    13   14   13 1
    14   15   13 1
    15   16   13 1
    16   17    3 1
    17   18   17 1
    18   19   17 1
    19   20   17 1
    20   21   24 2
    21   22   24 2
    22   23   25 1
    23   24   30 1
    24   25   12 ar
    25   26   25 ar
    26   27   26 1
    27   28   26 ar
    28   29   28 1
    29   30   11 ar
    30   31   23 1
    31   32   31 1
    32   33   31 1
    33   34   31 1
    34   35   23 1
    35   36   35 1
    36   37   35 1
    37   38   35 1
    38   11   12 ar
    39   28   30 ar
@<TRIPOS>SUBSTRUCTURE
     1 RES1 1

@<TRIPOS>CRYSIN
   6.9145    9.6280   20.6200  90.0000  90.0000  90.0000  56 1

