# MOL2 file generated by ConQuest
# Please check atom types

@<TRIPOS>MOLECULE
SORYOP
    44    46     3
SMALL
NO_CHARGES
****
Generated from CSD

@<TRIPOS>ATOM
      1 C1         4.7144    5.7242    7.6829 C.2       1 RES1    0.0000
      2 C2         5.6278    5.5965    8.7453 C.2       1 RES1    0.0000
      3 H1         5.4265    5.9534    9.6025 H         1 RES1    0.0000
      4 C3         6.8074    4.9491    8.5204 C.2       1 RES1    0.0000
      5 C4         7.1108    4.4202    7.2374 C.2       1 RES1    0.0000
      6 C5         8.3455    3.7900    7.0448 C.2       1 RES1    0.0000
      7 C6         8.6248    3.2640    5.7477 C.2       1 RES1    0.0000
      8 H2         9.4522    2.8213    5.5988 H         1 RES1    0.0000
      9 C7         7.7318    3.3783    4.7106 C.2       1 RES1    0.0000
     10 H3         7.9426    3.0127    3.8604 H         1 RES1    0.0000
     11 C8         6.4946    4.0416    4.9102 C.2       1 RES1    0.0000
     12 C9         5.5305    4.2256    3.9222 C.2       1 RES1    0.0000
     13 H4         5.6929    3.8982    3.0453 H         1 RES1    0.0000
     14 C10        4.3105    4.8947    4.2019 C.2       1 RES1    0.0000
     15 H5         3.6788    5.0109    3.5020 H         1 RES1    0.0000
     16 C11        4.0137    5.3784    5.4526 C.2       1 RES1    0.0000
     17 C12        5.0405    5.2000    6.4616 C.2       1 RES1    0.0000
     18 C13        6.1968    4.5318    6.1651 C.2       1 RES1    0.0000
     19 N1         3.1611    6.0484    6.0991 N.2       1 RES1    0.0000
     20 O1         3.5691    6.2886    7.5775 O.3       1 RES1    0.0000
     21 N2         8.8974    3.8644    8.1396 Du        3 SUP3    0.0000
     22 O2         7.8758    4.6272    9.1289 Du        3 SUP3    0.0000
     23 C14        0.8821    7.8065   -1.3842 C.2       2 RES2    0.0000
     24 C15        1.1937    9.0600   -1.6709 C.2       2 RES2    0.0000
     25 H6         1.0945    9.3953   -2.5549 H         2 RES2    0.0000
     26 C16        1.6837    9.9006   -0.6197 C.2       2 RES2    0.0000
     27 C17        1.8432    9.4849    0.6549 C.2       2 RES2    0.0000
     28 C18        2.3433   10.3652    1.6765 C.2       2 RES2    0.0000
     29 C19        2.4704    9.8700    2.9343 C.2       2 RES2    0.0000
     30 H7         2.8075   10.4304    3.6229 H         2 RES2    0.0000
     31 C20        2.1006    8.4967    3.2449 C.2       2 RES2    0.0000
     32 H8         2.2029    8.1876    4.1372 H         2 RES2    0.0000
     33 C21        1.6402    7.6859    2.3581 C.2       2 RES2    0.0000
     34 C22        1.2794    6.3256    2.5802 C.2       2 RES2    0.0000
     35 H9         1.3604    5.9453    3.4472 H         2 RES2    0.0000
     36 C23        0.7940    5.5350    1.4896 C.2       2 RES2    0.0000
     37 H10        0.5532    4.6308    1.6541 H         2 RES2    0.0000
     38 C24        0.6554    6.0572    0.1476 C.2       2 RES2    0.0000
     39 C25        1.0359    7.3088    0.0436 C.2       2 RES2    0.0000
     40 C26        1.5152    8.2052    0.9655 C.2       2 RES2    0.0000
     41 N3         0.2875    5.6184   -0.9767 N.2       2 RES2    0.0000
     42 O3         0.4236    6.8608   -1.9955 O.3       2 RES2    0.0000
     43 N4         2.4971   11.3069    0.9120 Du        3 SUP3    0.0000
     44 O4         2.0696   11.0698   -0.5692 Du        3 SUP3    0.0000
@<TRIPOS>BOND
     1    1    2 1
     2    2    3 1
     3    4    2 2
     4    5    4 1
     5    6    5 1
     6    7    6 2
     7    8    7 1
     8    9    7 1
     9   10    9 1
    10   11    9 2
    11   12   11 1
    12   13   12 1
    13   14   12 2
    14   15   14 1
    15   16   14 1
    16   17    1 2
    17   18    5 2
    18   19   16 2
    19   20    1 1
    20   23   24 1
    21   24   25 1
    22   26   24 2
    23   27   26 1
    24   28   27 1
    25   29   28 2
    26   30   29 1
    27   31   29 1
    28   32   31 1
    29   33   31 2
    30   34   33 1
    31   35   34 1
    32   36   34 2
    33   37   36 1
    34   38   36 1
    35   39   23 2
    36   40   27 2
    37   41   38 2
    38   42   23 1
    39   11   18 1
    40   16   17 1
    41   17   18 1
    42   19   20 1
    43   33   40 1
    44   38   39 1
    45   39   40 1
    46   41   42 1
@<TRIPOS>SUBSTRUCTURE
     1 RES1 1
     2 RES2 23
     3 SUP3 21

@<TRIPOS>CRYSIN
   7.5727    8.2341   14.4327 100.9490  96.4400  94.0280   2 1

