# MOL2 file generated by ConQuest
# Please check atom types

@<TRIPOS>MOLECULE
SORYEE01
    38    39     1
SMALL
NO_CHARGES
****
Generated from CSD

@<TRIPOS>ATOM
      1 N1         1.0529    8.5205   -3.3090 N.3       1 RES1    0.0000
      2 N2         2.3831    8.5905    2.1216 N.pl3     1 RES1    0.0000
      3 O1         2.1676    9.6372    2.7370 O.2       1 RES1    0.0000
      4 O2         3.0387    7.6671    2.6032 O.2       1 RES1    0.0000
      5 C1         1.4565    8.4854   -2.0034 C.ar      1 RES1    0.0000
      6 C2         1.5632    9.6844   -1.2909 C.ar      1 RES1    0.0000
      7 H1         1.4481   10.4943   -1.7340 H         1 RES1    0.0000
      8 C3         1.8377    9.6788    0.0596 C.ar      1 RES1    0.0000
      9 H2         1.9676   10.4846    0.5051 H         1 RES1    0.0000
     10 C4         1.9219    8.4930    0.7567 C.ar      1 RES1    0.0000
     11 C5         1.7549    7.2381    0.1117 C.ar      1 RES1    0.0000
     12 C6         1.7549    7.2381   -1.3278 C.ar      1 RES1    0.0000
     13 C7         1.0747    9.7685   -4.0502 C.3       1 RES1    0.0000
     14 H3         1.6812   10.3814   -3.6267 H         1 RES1    0.0000
     15 H4         0.1930   10.1488   -4.0638 H         1 RES1    0.0000
     16 H5         1.3646    9.6016   -4.9504 H         1 RES1    0.0000
     17 C8         0.1530    7.5131   -3.8774 C.3       1 RES1    0.0000
     18 H6         0.1853    6.7170   -3.3422 H         1 RES1    0.0000
     19 H7         0.4275    7.3086   -4.7730 H         1 RES1    0.0000
     20 H8        -0.7441    7.8558   -3.8885 H         1 RES1    0.0000
     21 N1A        2.4568    5.9557   -3.3090 N.3       1 RES1    0.0000
     22 N2A        1.1266    5.8857    2.1216 N.pl3     1 RES1    0.0000
     23 O1A        1.3421    4.8390    2.7370 O.2       1 RES1    0.0000
     24 O2A        0.4710    6.8091    2.6032 O.2       1 RES1    0.0000
     25 C1A        2.0532    5.9908   -2.0034 C.ar      1 RES1    0.0000
     26 C2A        1.9465    4.7918   -1.2909 C.ar      1 RES1    0.0000
     27 H1A        2.0616    3.9819   -1.7340 H         1 RES1    0.0000
     28 C3A        1.6720    4.7974    0.0596 C.ar      1 RES1    0.0000
     29 H2A        1.5422    3.9916    0.5051 H         1 RES1    0.0000
     30 C4A        1.5878    5.9832    0.7567 C.ar      1 RES1    0.0000
     31 C7A        2.4351    4.7077   -4.0502 C.3       1 RES1    0.0000
     32 H3A        1.8286    4.0948   -3.6267 H         1 RES1    0.0000
     33 H4A        3.3167    4.3274   -4.0638 H         1 RES1    0.0000
     34 H5A        2.1452    4.8746   -4.9504 H         1 RES1    0.0000
     35 C8A        3.3567    6.9631   -3.8774 C.3       1 RES1    0.0000
     36 H6A        3.3244    7.7592   -3.3422 H         1 RES1    0.0000
     37 H7A        3.0823    7.1676   -4.7730 H         1 RES1    0.0000
     38 H8A        4.2538    6.6204   -3.8885 H         1 RES1    0.0000
@<TRIPOS>BOND
     1    1    5 1
     2    2    3 2
     3    4    2 2
     4    5    6 ar
     5    6    7 1
     6    8    6 ar
     7    9    8 1
     8   10    2 1
     9   11   10 ar
    10   12    5 ar
    11   13    1 1
    12   14   13 1
    13   15   13 1
    14   16   13 1
    15   17    1 1
    16   18   17 1
    17   19   17 1
    18   20   17 1
    19   21   25 1
    20   22   23 2
    21   24   22 2
    22   25   12 ar
    23   26   25 ar
    24   27   26 1
    25   28   26 ar
    26   29   28 1
    27   30   11 ar
    28   31   21 1
    29   32   31 1
    30   33   31 1
    31   34   31 1
    32   35   21 1
    33   36   35 1
    34   37   35 1
    35   38   35 1
    36    8   10 ar
    37   11   12 ar
    38   22   30 1
    39   28   30 ar
@<TRIPOS>SUBSTRUCTURE
     1 RES1 1

@<TRIPOS>CRYSIN
   7.0195    9.6508   20.6179  90.0000  90.0000  90.0000  56 1

