# MOL2 file generated by ConQuest
# Please check atom types

@<TRIPOS>MOLECULE
SOSBEH
    81    85     1
SMALL
NO_CHARGES
****
Generated from CSD

@<TRIPOS>ATOM
      1 C1         0.5094   11.5279    6.2198 C.3       1 RES1    0.0000
      2 C2        -0.4507   11.3112    5.0391 C.3       1 RES1    0.0000
      3 C3         0.0167   10.1402    4.1998 C.3       1 RES1    0.0000
      4 O1        -1.0188    9.8940    3.2200 O.3       1 RES1    0.0000
      5 C4        -0.6674    9.2897    2.0903 C.2       1 RES1    0.0000
      6 O2         0.4435    8.9481    1.8510 O.2       1 RES1    0.0000
      7 C5        -1.8129    9.0518    1.1361 C.3       1 RES1    0.0000
      8 C6         0.1935    8.8786    5.0295 C.3       1 RES1    0.0000
      9 C7         1.0231    9.1107    6.2869 C.3       1 RES1    0.0000
     10 O3         1.0210    7.8938    7.1262 O.3       1 RES1    0.0000
     11 C8         2.5702    9.0011    6.2996 C.2       1 RES1    0.0000
     12 N1         3.5911    9.2072    5.6167 N.2       1 RES1    0.0000
     13 O4         3.2861    9.9105    4.4263 O.3       1 RES1    0.0000
     14 C9         2.3796    8.2401    7.5985 C.3       1 RES1    0.0000
     15 C10        2.1803    9.1590    8.7952 C.3       1 RES1    0.0000
     16 C11        1.6608   10.5219    8.2463 C.3       1 RES1    0.0000
     17 C12        0.5695   10.3087    7.1517 C.3       1 RES1    0.0000
     18 C13        1.3057   11.4454    9.4048 C.3       1 RES1    0.0000
     19 C14        2.4731   11.6516   10.3558 C.3       1 RES1    0.0000
     20 C15        3.0969   10.3228   10.8568 C.3       1 RES1    0.0000
     21 C16        3.4230    9.4593    9.6186 C.3       1 RES1    0.0000
     22 C17        4.2563    8.3167   10.1643 C.3       1 RES1    0.0000
     23 C18        5.0823    8.9728   11.2972 C.3       1 RES1    0.0000
     24 C19        4.5179   10.3970   11.5046 C.3       1 RES1    0.0000
     25 C20        2.1310    9.6125   11.8238 C.3       1 RES1    0.0000
     26 C21       -0.8007   10.0212    7.7804 C.3       1 RES1    0.0000
     27 C22        4.6787   10.8977   12.9503 C.3       1 RES1    0.0000
     28 C23        4.1121   12.2748   13.1769 C.3       1 RES1    0.0000
     29 C24        6.1279   10.8506   13.3875 C.3       1 RES1    0.0000
     30 C25        6.3787   11.0673   14.8746 C.3       1 RES1    0.0000
     31 C26        7.8068   10.8741   15.2640 C.3       1 RES1    0.0000
     32 C27        8.2344   11.1745   16.6394 C.3       1 RES1    0.0000
     33 C28        7.2431   11.0037   17.7404 C.3       1 RES1    0.0000
     34 C29        9.6560   10.8671   16.9745 C.3       1 RES1    0.0000
     35 H1         0.1848   12.3878    6.7879 H         1 RES1    0.0000
     36 H2         1.4985   11.7105    5.8241 H         1 RES1    0.0000
     37 H3        -0.4833   12.2017    4.4263 H         1 RES1    0.0000
     38 H4        -1.4376   11.1015    5.4220 H         1 RES1    0.0000
     39 H5         0.8840   10.5054    3.7179 H         1 RES1    0.0000
     40 H6        -2.7216    9.4464    1.5669 H         1 RES1    0.0000
     41 H7        -1.9282    7.9927    0.9606 H         1 RES1    0.0000
     42 H8        -1.6115    9.5512    0.2011 H         1 RES1    0.0000
     43 H9        -0.7826    8.5169    5.3199 H         1 RES1    0.0000
     44 H10        0.6876    8.1329    4.4263 H         1 RES1    0.0000
     45 H11        4.0309   10.0201    3.7242 H         1 RES1    0.0000
     46 H12        2.9738    7.6099    7.7198 H         1 RES1    0.0000
     47 H13        1.4999    8.6418    9.4558 H         1 RES1    0.0000
     48 H14        2.4520   11.0096    7.8091 H         1 RES1    0.0000
     49 H15        0.4790   11.0167    9.9537 H         1 RES1    0.0000
     50 H16        1.0130   12.4055    9.0058 H         1 RES1    0.0000
     51 H17        3.2368   12.2241    9.8515 H         1 RES1    0.0000
     52 H18        2.1173   12.2053   11.2142 H         1 RES1    0.0000
     53 H19        4.0121    9.9494    9.0920 H         1 RES1    0.0000
     54 H20        3.6237    7.5333   10.5536 H         1 RES1    0.0000
     55 H21        4.9034    7.9091    9.3984 H         1 RES1    0.0000
     56 H22        4.9838    8.4003   12.2067 H         1 RES1    0.0000
     57 H23        6.1236    9.0223   11.0132 H         1 RES1    0.0000
     58 H24        5.0613   11.1945   11.0196 H         1 RES1    0.0000
     59 H25        1.1485    9.5595   11.3770 H         1 RES1    0.0000
     60 H26        2.0782   10.1709   12.7461 H         1 RES1    0.0000
     61 H27        2.4890    8.6147   12.0280 H         1 RES1    0.0000
     62 H28       -1.1036   10.8647    8.3835 H         1 RES1    0.0000
     63 H29       -0.7311    9.1413    8.4027 H         1 RES1    0.0000
     64 H30       -1.5296    9.8540    7.0017 H         1 RES1    0.0000
     65 H31        4.0976   10.2180   13.5566 H         1 RES1    0.0000
     66 H32        3.0796   12.2995   12.8641 H         1 RES1    0.0000
     67 H33        4.6809   12.9922   12.6056 H         1 RES1    0.0000
     68 H34        4.1744   12.5198   14.2268 H         1 RES1    0.0000
     69 H35        6.5236    9.8822   13.1194 H         1 RES1    0.0000
     70 H36        6.6634   11.6186   12.8482 H         1 RES1    0.0000
     71 H37        5.7751   10.3640   15.4299 H         1 RES1    0.0000
     72 H38        6.0852   12.0745   15.1300 H         1 RES1    0.0000
     73 H39        8.3974   11.4867   14.5970 H         1 RES1    0.0000
     74 H40        8.0409    9.8328   15.0980 H         1 RES1    0.0000
     75 H41        8.2416   12.2524   16.5852 H         1 RES1    0.0000
     76 H42        6.2562   11.2687   17.3894 H         1 RES1    0.0000
     77 H43        7.5054   11.6269   18.5829 H         1 RES1    0.0000
     78 H44        7.2518    9.9671   18.0436 H         1 RES1    0.0000
     79 H45        9.8575   11.1439   17.9989 H         1 RES1    0.0000
     80 H46       10.3154   11.4148   16.3171 H         1 RES1    0.0000
     81 H47        9.8220    9.8069   16.8469 H         1 RES1    0.0000
@<TRIPOS>BOND
     1    1    2 1
     2    2    3 1
     3    3    4 1
     4    4    5 1
     5    5    6 2
     6    7    5 1
     7    8    3 1
     8    9    8 1
     9   10    9 1
    10   11    9 1
    11   12   11 2
    12   13   12 1
    13   14   10 1
    14   15   14 1
    15   16   15 1
    16   17    1 1
    17   18   16 1
    18   19   18 1
    19   20   19 1
    20   21   15 1
    21   22   21 1
    22   23   22 1
    23   24   20 1
    24   25   20 1
    25   26   17 1
    26   27   24 1
    27   28   27 1
    28   29   27 1
    29   30   29 1
    30   31   30 1
    31   32   31 1
    32   33   32 1
    33   34   32 1
    34   35    1 1
    35   36    1 1
    36   37    2 1
    37   38    2 1
    38   39    3 1
    39   40    7 1
    40   41    7 1
    41   42    7 1
    42   43    8 1
    43   44    8 1
    44   45   13 1
    45   46   14 1
    46   47   15 1
    47   48   16 1
    48   49   18 1
    49   50   18 1
    50   51   19 1
    51   52   19 1
    52   53   21 1
    53   54   22 1
    54   55   22 1
    55   56   23 1
    56   57   23 1
    57   58   24 1
    58   59   25 1
    59   60   25 1
    60   61   25 1
    61   62   26 1
    62   63   26 1
    63   64   26 1
    64   65   27 1
    65   66   28 1
    66   67   28 1
    67   68   28 1
    68   69   29 1
    69   70   29 1
    70   71   30 1
    71   72   30 1
    72   73   31 1
    73   74   31 1
    74   75   32 1
    75   76   33 1
    76   77   33 1
    77   78   33 1
    78   79   34 1
    79   80   34 1
    80   81   34 1
    81    9   17 1
    82   11   14 1
    83   16   17 1
    84   20   21 1
    85   23   24 1
@<TRIPOS>SUBSTRUCTURE
     1 RES1 1

@<TRIPOS>CRYSIN
   7.2460   11.7800   31.9130  90.0000  90.0000  90.0000  19 1

