# MOL2 file generated by ConQuest
# Please check atom types

@<TRIPOS>MOLECULE
SOSDOT
    58    26     3
SMALL
NO_CHARGES
****
Generated from CSD

@<TRIPOS>ATOM
      1 O1         0.2086    4.7925    4.3717 O.3       1 RES1    0.0000
      2 N1        -0.1218    4.5034    3.0088 N.2       1 RES1    0.0000
      3 C1        -1.2927    5.2110    1.0214 C.3       1 RES1    0.0000
      4 C2        -0.8688    5.3595    2.4697 C.2       1 RES1    0.0000
      5 C3        -1.4560    6.6578    3.0131 C.3       1 RES1    0.0000
      6 C4        -2.2108    7.1494    1.7242 C.3       1 RES1    0.0000
      7 C5        -3.4375    6.2797    1.4383 C.3       1 RES1    0.0000
      8 C6        -2.8122    4.9219    1.0328 C.3       1 RES1    0.0000
      9 C7        -1.2730    6.6960    0.6089 C.3       1 RES1    0.0000
     10 C8        -0.3308    7.6624    3.3830 C.3       1 RES1    0.0000
     11 C9        -2.4013    6.4170    4.2081 C.3       1 RES1    0.0000
     12 C10       -0.4689    4.2233    0.2120 C.3       1 RES1    0.0000
     13 O2         1.5281    2.2871    2.7570 O.3       2 RES2    0.0000
     14 N2         1.8826    2.5391    4.1042 N.2       2 RES2    0.0000
     15 C11        3.2378    1.8383    5.9906 C.3       2 RES2    0.0000
     16 C12        2.7546    1.7100    4.5538 C.2       2 RES2    0.0000
     17 C13        3.4399    0.5220    3.9051 C.3       2 RES2    0.0000
     18 C14        4.3578    0.0776    5.1072 C.3       2 RES2    0.0000
     19 C15        3.4940   -0.5827    6.1628 C.3       2 RES2    0.0000
     20 C16        2.6679    0.6098    6.7204 C.3       2 RES2    0.0000
     21 C17        4.7204    1.4254    5.7587 C.3       2 RES2    0.0000
     22 C18        2.4535   -0.5366    3.4257 C.3       2 RES2    0.0000
     23 C19        4.3617    1.0103    2.7357 C.3       2 RES2    0.0000
     24 C20        2.9849    3.1624    6.6550 C.3       2 RES2    0.0000
     25 H1         2.7096    7.3035    9.9540 Du        3 SUP3    0.0000
     26 H2         2.6369    8.1315   11.3738 Du        3 SUP3    0.0000
     27 H3         6.0456    3.1163   12.3767 Du        3 SUP3    0.0000
     28 H4         7.5518    4.5338   13.5290 Du        3 SUP3    0.0000
     29 H5         7.5526    5.0738   11.9357 Du        3 SUP3    0.0000
     30 H6         6.6968    6.5700   14.1408 Du        3 SUP3    0.0000
     31 H7         6.6194    7.0763   12.5332 Du        3 SUP3    0.0000
     32 H8         3.8905    4.1063   13.5860 Du        3 SUP3    0.0000
     33 H9         5.2324    4.4213   14.5533 Du        3 SUP3    0.0000
     34 H10        4.0931    7.9650   13.6002 Du        3 SUP3    0.0000
     35 H11        4.3962    7.0425   14.9659 Du        3 SUP3    0.0000
     36 H12        3.0276    6.7388   14.0412 Du        3 SUP3    0.0000
     37 H13        3.2590    3.4088   11.6512 Du        3 SUP3    0.0000
     38 H14        4.3354    2.7113   10.5558 Du        3 SUP3    0.0000
     39 H15        3.3158    3.9488   10.0579 Du        3 SUP3    0.0000
     40 H16        6.8872    4.4325   10.1148 Du        3 SUP3    0.0000
     41 H17        5.9645    5.6025    9.3323 Du        3 SUP3    0.0000
     42 H18        5.2945    4.1063    9.6880 Du        3 SUP3    0.0000
     43 H19       -1.5223   11.8350    9.4604 Du        3 SUP3    0.0000
     44 H20       -0.5493   12.2287    7.3265 Du        3 SUP3    0.0000
     45 H21        0.6602   12.5775    8.4361 Du        3 SUP3    0.0000
     46 H22        0.7589   10.5525    6.4871 Du        3 SUP3    0.0000
     47 H23        1.8759   10.7663    7.7248 Du        3 SUP3    0.0000
     48 H24       -1.6989    9.1800    9.0763 Du        3 SUP3    0.0000
     49 H25       -1.6857    9.9563    7.5825 Du        3 SUP3    0.0000
     50 H26        1.5837    7.9763    7.5256 Du        3 SUP3    0.0000
     51 H27        0.1689    8.0887    6.6151 Du        3 SUP3    0.0000
     52 H28        0.1557    7.3013    8.1089 Du        3 SUP3    0.0000
     53 H29        1.6820   12.1050   10.0152 Du        3 SUP3    0.0000
     54 H30        1.6883   11.3175   11.4378 Du        3 SUP3    0.0000
     55 H31        0.6214   12.6000   11.2244 Du        3 SUP3    0.0000
     56 H32       -1.8121   10.4850   11.4663 Du        3 SUP3    0.0000
     57 H33       -0.2709   11.0362   11.8361 Du        3 SUP3    0.0000
     58 H34       -0.6788    9.4388   12.1207 Du        3 SUP3    0.0000
@<TRIPOS>BOND
     1    1    2 1
     2    2    4 2
     3    3    4 1
     4    4    5 1
     5    5    6 1
     6    6    7 1
     7    7    8 1
     8    8    3 1
     9    9    3 1
    10   10    5 1
    11   11    5 1
    12   12    3 1
    13   13   14 1
    14   14   16 2
    15   15   16 1
    16   16   17 1
    17   17   18 1
    18   18   19 1
    19   19   20 1
    20   20   15 1
    21   21   15 1
    22   22   17 1
    23   23   17 1
    24   24   15 1
    25    6    9 1
    26   18   21 1
@<TRIPOS>SUBSTRUCTURE
     1 RES1 1
     2 RES2 13
     3 SUP3 25

@<TRIPOS>CRYSIN
   6.2190   11.2500   14.4750  90.0000 100.6400  90.0000   4 1

