# MOL2 file generated by ConQuest
# Please check atom types

@<TRIPOS>MOLECULE
SOSFUB
    23    24     1
SMALL
NO_CHARGES
****
Generated from CSD

@<TRIPOS>ATOM
      1 O1        -3.6085    4.6310   10.6682 O.3       1 RES1    0.0000
      2 O2        -3.2587    4.6727    7.3328 O.3       1 RES1    0.0000
      3 O3        -4.0757    2.8118    8.3249 O.3       1 RES1    0.0000
      4 O4        -4.4810    7.2795   10.3405 O.3       1 RES1    0.0000
      5 O5        -1.3329    6.9910    9.4413 O.2       1 RES1    0.0000
      6 O6        -1.6160    6.1520   11.4280 O.2       1 RES1    0.0000
      7 O7        -0.7748    3.3360   10.7185 O.3       1 RES1    0.0000
      8 O8         0.3703    3.0141   12.5984 O.2       1 RES1    0.0000
      9 N1        -1.9032    6.2465   10.2425 N.pl3     1 RES1    0.0000
     10 C1        -4.1408    6.4516    9.2492 C.3       1 RES1    0.0000
     11 C2        -3.0949    5.4283    9.6623 C.3       1 RES1    0.0000
     12 C3        -2.5377    4.5010    8.5509 C.3       1 RES1    0.0000
     13 C4        -2.8769    3.1003    9.0432 C.3       1 RES1    0.0000
     14 C5        -3.1656    3.2505   10.5263 C.3       1 RES1    0.0000
     15 C6        -1.9872    2.9418   11.4180 C.3       1 RES1    0.0000
     16 C7        -3.9290    3.4263    7.0540 C.3       1 RES1    0.0000
     17 C8        -5.2979    3.7225    6.5102 C.3       1 RES1    0.0000
     18 C9        -3.0759    2.5922    6.1284 C.3       1 RES1    0.0000
     19 C10        0.3684    3.2449   11.4129 C.2       1 RES1    0.0000
     20 C11        1.5914    3.4208   10.5452 C.3       1 RES1    0.0000
     21 C12        1.5486    2.3913    9.4275 C.3       1 RES1    0.0000
     22 C13        2.8464    3.2463   11.4155 C.3       1 RES1    0.0000
     23 C14        1.5895    4.8590    9.9964 C.3       1 RES1    0.0000
@<TRIPOS>BOND
     1    1   11 1
     2    2   12 1
     3    3   13 1
     4    4   10 1
     5    5    9 2
     6    6    9 2
     7    7   15 1
     8    8   19 2
     9    9   11 1
    10   10   11 1
    11   11   12 1
    12   12   13 1
    13   13   14 1
    14   14    1 1
    15   15   14 1
    16   16    2 1
    17   17   16 1
    18   18   16 1
    19   19    7 1
    20   20   19 1
    21   21   20 1
    22   22   20 1
    23   23   20 1
    24    3   16 1
@<TRIPOS>SUBSTRUCTURE
     1 RES1 1

@<TRIPOS>CRYSIN
   9.7010    6.9514   12.8860  90.0000 102.9500  90.0000   4 1

