# MOL2 file generated by ConQuest
# Please check atom types

@<TRIPOS>MOLECULE
SOSHAL
   106   108     2
SMALL
NO_CHARGES
****
Generated from CSD

@<TRIPOS>ATOM
      1 O1        -5.3399   -1.4928  -11.7360 O.2       1 RES1    0.0000
      2 O2        -5.3681   -2.5974  -13.5569 O.2       1 RES1    0.0000
      3 O3        -1.9959    0.0044  -15.5375 O.3       1 RES1    0.0000
      4 O4        -0.4411    1.3396  -14.5700 O.2       1 RES1    0.0000
      5 O5         0.1683    0.6870  -11.9839 O.3       1 RES1    0.0000
      6 O6         0.7614    2.7434  -11.9476 O.3       1 RES1    0.0000
      7 O7        -1.4381    2.2476  -11.6896 O.2       1 RES1    0.0000
      8 N1        -5.0493   -2.4485  -12.3924 N.pl3     1 RES1    0.0000
      9 N2        -1.4556   -0.3595  -13.4177 N.am      1 RES1    0.0000
     10 C1        -4.1995   -3.4797  -11.7797 C.ar      1 RES1    0.0000
     11 C2        -4.8165   -4.6454  -11.3858 C.ar      1 RES1    0.0000
     12 H1        -5.7292   -4.7669  -11.5178 H         1 RES1    0.0000
     13 C3        -4.0603   -5.6250  -10.7938 C.ar      1 RES1    0.0000
     14 H2        -4.4540   -6.4291  -10.5422 H         1 RES1    0.0000
     15 C4        -2.7114   -5.4148  -10.5720 C.ar      1 RES1    0.0000
     16 H3        -2.2035   -6.0715  -10.1515 H         1 RES1    0.0000
     17 C5        -2.1147   -4.2329  -10.9721 C.ar      1 RES1    0.0000
     18 H4        -1.2078   -4.1030  -10.8114 H         1 RES1    0.0000
     19 C6        -2.8479   -3.2335  -11.6099 C.ar      1 RES1    0.0000
     20 C7        -2.1749   -2.0156  -12.1011 C.2       1 RES1    0.0000
     21 C8        -2.2978   -1.4638  -13.3377 C.2       1 RES1    0.0000
     22 H5        -2.8525   -1.7729  -14.0175 H         1 RES1    0.0000
     23 C9        -0.8074   -0.2562  -12.1836 C.2       1 RES1    0.0000
     24 C10       -1.2175   -1.2405  -11.3680 C.2       1 RES1    0.0000
     25 H6        -0.9347   -1.3908  -10.4957 H         1 RES1    0.0000
     26 C11       -1.2288    0.4341  -14.5550 C.2       1 RES1    0.0000
     27 C12       -1.8492    0.5538  -16.9199 C.3       1 RES1    0.0000
     28 C13       -2.9109   -0.2392  -17.6605 C.3       1 RES1    0.0000
     29 H7        -2.6988   -1.1747  -17.6170 H         1 RES1    0.0000
     30 H8        -2.9376    0.0412  -18.5770 H         1 RES1    0.0000
     31 H9        -3.7669   -0.0862  -17.2547 H         1 RES1    0.0000
     32 C14       -0.4662    0.2376  -17.4315 C.3       1 RES1    0.0000
     33 H10        0.1740    0.8067  -16.9959 H         1 RES1    0.0000
     34 H11       -0.4344    0.3860  -18.3804 H         1 RES1    0.0000
     35 H12       -0.2578   -0.6806  -17.2444 H         1 RES1    0.0000
     36 C15       -2.1545    2.0368  -16.9388 C.3       1 RES1    0.0000
     37 H13       -3.0252    2.1885  -16.5638 H         1 RES1    0.0000
     38 H14       -2.1349    2.3558  -17.8447 H         1 RES1    0.0000
     39 H15       -1.4974    2.5050  -16.4189 H         1 RES1    0.0000
     40 C16       -0.2967    1.9659  -11.8612 C.2       1 RES1    0.0000
     41 C17        0.6003    4.2117  -11.8687 C.3       1 RES1    0.0000
     42 C18       -0.3988    4.6893  -12.8937 C.3       1 RES1    0.0000
     43 H16       -0.2223    4.2625  -13.7355 H         1 RES1    0.0000
     44 H17       -0.3239    5.6405  -12.9954 H         1 RES1    0.0000
     45 H18       -1.2866    4.4684  -12.6021 H         1 RES1    0.0000
     46 C19        1.9937    4.6902  -12.2077 C.3       1 RES1    0.0000
     47 H19        2.6214    4.3114  -11.5877 H         1 RES1    0.0000
     48 H20        2.0257    5.6482  -12.1492 H         1 RES1    0.0000
     49 H21        2.2188    4.4156  -13.0989 H         1 RES1    0.0000
     50 C20        0.2108    4.5739  -10.4418 C.3       1 RES1    0.0000
     51 H22        0.1930    5.5285  -10.3482 H         1 RES1    0.0000
     52 H23        0.8535    4.2033   -9.8306 H         1 RES1    0.0000
     53 H24       -0.6592    4.2162  -10.2473 H         1 RES1    0.0000
     54 O8        -2.0041   -2.3489   -6.4741 O.2       2 RES2    0.0000
     55 O9        -0.7032   -2.5364   -8.1893 O.2       2 RES2    0.0000
     56 O10       -7.5316   -4.5275   -4.9999 O.3       2 RES2    0.0000
     57 O11       -8.2925   -2.8041   -6.2550 O.2       2 RES2    0.0000
     58 O12       -6.4608   -1.7360   -7.9833 O.3       2 RES2    0.0000
     59 O13       -8.1183   -0.8665   -9.0207 O.3       2 RES2    0.0000
     60 O14       -7.6776   -3.0778   -9.3460 O.2       2 RES2    0.0000
     61 N3        -1.4321   -3.0160   -7.3278 N.pl3     2 RES2    0.0000
     62 N4        -6.1989   -3.6727   -6.5645 N.am      2 RES2    0.0000
     63 C21       -1.5944   -4.4687   -7.2955 C.ar      2 RES2    0.0000
     64 C22       -0.4360   -5.2139   -7.3998 C.ar      2 RES2    0.0000
     65 H25        0.3810   -4.7939   -7.5431 H         2 RES2    0.0000
     66 C23       -0.5034   -6.5916   -7.2898 C.ar      2 RES2    0.0000
     67 H26        0.2692   -7.1072   -7.3413 H         2 RES2    0.0000
     68 C24       -1.7318   -7.1890   -7.1019 C.ar      2 RES2    0.0000
     69 H27       -1.7831   -8.1133   -7.0178 H         2 RES2    0.0000
     70 C25       -2.8878   -6.4363   -7.0352 C.ar      2 RES2    0.0000
     71 H28       -3.7047   -6.8692   -6.9298 H         2 RES2    0.0000
     72 C26       -2.8625   -5.0480   -7.1213 C.ar      2 RES2    0.0000
     73 C27       -4.1175   -4.2853   -7.0890 C.2       2 RES2    0.0000
     74 C28       -5.1783   -4.5779   -6.2922 C.2       2 RES2    0.0000
     75 H29       -5.2161   -5.2673   -5.6696 H         2 RES2    0.0000
     76 C29       -5.7351   -2.8148   -7.5654 C.2       2 RES2    0.0000
     77 C30       -4.4808   -3.1618   -7.8989 C.2       2 RES2    0.0000
     78 H30       -3.9473   -2.7482   -8.5394 H         2 RES2    0.0000
     79 C31       -7.4619   -3.5985   -5.9382 C.2       2 RES2    0.0000
     80 C32       -8.6678   -4.5290   -4.0192 C.3       2 RES2    0.0000
     81 C33       -9.9790   -4.7916   -4.7352 C.3       2 RES2    0.0000
     82 H31      -10.1375   -4.0965   -5.3772 H         2 RES2    0.0000
     83 H32      -10.6950   -4.8055   -4.0963 H         2 RES2    0.0000
     84 H33       -9.9343   -5.6392   -5.1857 H         2 RES2    0.0000
     85 C34       -8.6624   -3.2101   -3.2685 C.3       2 RES2    0.0000
     86 H34       -7.7828   -3.0428   -2.9215 H         2 RES2    0.0000
     87 H35       -9.2891   -3.2525   -2.5437 H         2 RES2    0.0000
     88 H36       -8.9119   -2.5012   -3.8660 H         2 RES2    0.0000
     89 C35       -8.3035   -5.6863   -3.1246 C.3       2 RES2    0.0000
     90 H37       -8.2133   -6.4832   -3.6538 H         2 RES2    0.0000
     91 H38       -8.9919   -5.8129   -2.4687 H         2 RES2    0.0000
     92 H39       -7.4704   -5.5002   -2.6834 H         2 RES2    0.0000
     93 C36       -7.4851   -2.0092   -8.8597 C.2       2 RES2    0.0000
     94 C37       -9.2615   -0.7712   -9.9797 C.3       2 RES2    0.0000
     95 C38       -8.7811   -1.1102  -11.3701 C.3       2 RES2    0.0000
     96 H40       -7.9847   -0.6098  -11.5644 H         2 RES2    0.0000
     97 H41       -9.4631   -0.8865  -12.0069 H         2 RES2    0.0000
     98 H42       -8.5893   -2.0496  -11.4221 H         2 RES2    0.0000
     99 C39      -10.3800   -1.6726   -9.5188 C.3       2 RES2    0.0000
    100 H43      -10.0955   -2.5874   -9.5719 H         2 RES2    0.0000
    101 H44      -11.1471   -1.5426  -10.0816 H         2 RES2    0.0000
    102 H45      -10.6086   -1.4603   -8.6118 H         2 RES2    0.0000
    103 C40       -9.6129    0.6948   -9.8648 C.3       2 RES2    0.0000
    104 H46       -9.8339    0.9006   -8.9534 H         2 RES2    0.0000
    105 H47      -10.3648    0.8890  -10.4284 H         2 RES2    0.0000
    106 H48       -8.8611    1.2261  -10.1386 H         2 RES2    0.0000
@<TRIPOS>BOND
     1    1    8 2
     2    2    8 2
     3    3   26 1
     4    4   26 2
     5    5   23 1
     6    6   40 1
     7    7   40 2
     8    8   10 1
     9    9   21 1
    10   10   11 ar
    11   11   12 1
    12   13   11 ar
    13   14   13 1
    14   15   13 ar
    15   16   15 1
    16   17   15 ar
    17   18   17 1
    18   19   10 ar
    19   20   19 1
    20   21   20 2
    21   22   21 1
    22   23    9 1
    23   24   20 1
    24   25   24 1
    25   26    9 1
    26   27    3 1
    27   28   27 1
    28   29   28 1
    29   30   28 1
    30   31   28 1
    31   32   27 1
    32   33   32 1
    33   34   32 1
    34   35   32 1
    35   36   27 1
    36   37   36 1
    37   38   36 1
    38   39   36 1
    39   40    5 1
    40   41    6 1
    41   42   41 1
    42   43   42 1
    43   44   42 1
    44   45   42 1
    45   46   41 1
    46   47   46 1
    47   48   46 1
    48   49   46 1
    49   50   41 1
    50   51   50 1
    51   52   50 1
    52   53   50 1
    53   54   61 2
    54   55   61 2
    55   56   79 1
    56   57   79 2
    57   58   76 1
    58   59   93 1
    59   60   93 2
    60   61   63 1
    61   62   74 1
    62   63   64 ar
    63   64   65 1
    64   66   64 ar
    65   67   66 1
    66   68   66 ar
    67   69   68 1
    68   70   68 ar
    69   71   70 1
    70   72   63 ar
    71   73   72 1
    72   74   73 2
    73   75   74 1
    74   76   62 1
    75   77   73 1
    76   78   77 1
    77   79   62 1
    78   80   56 1
    79   81   80 1
    80   82   81 1
    81   83   81 1
    82   84   81 1
    83   85   80 1
    84   86   85 1
    85   87   85 1
    86   88   85 1
    87   89   80 1
    88   90   89 1
    89   91   89 1
    90   92   89 1
    91   93   58 1
    92   94   59 1
    93   95   94 1
    94   96   95 1
    95   97   95 1
    96   98   95 1
    97   99   94 1
    98  100   99 1
    99  101   99 1
   100  102   99 1
   101  103   94 1
   102  104  103 1
   103  105  103 1
   104  106  103 1
   105   17   19 ar
   106   23   24 2
   107   70   72 ar
   108   76   77 2
@<TRIPOS>SUBSTRUCTURE
     1 RES1 1
     2 RES2 54

@<TRIPOS>CRYSIN
  12.7004   12.8660   25.8769  90.0000  90.0000  90.0000  19 1

