# MOL2 file generated by ConQuest
# Please check atom types

@<TRIPOS>MOLECULE
SOSWOO
    46    48     2
SMALL
NO_CHARGES
****
Generated from CSD

@<TRIPOS>ATOM
      1 O1         3.6846   10.5928   -1.3183 O.2       1 RES1    0.0000
      2 O2         4.5773    6.4553    0.4326 O.2       1 RES1    0.0000
      3 O3         4.4168    9.2145    1.0453 O.3       1 RES1    0.0000
      4 O4         2.5133    8.3887    2.0183 O.2       1 RES1    0.0000
      5 O5         4.0156    9.7126    3.0907 O.3       1 RES1    0.0000
      6 N1         3.9700    8.6194   -0.1225 N.am      1 RES1    0.0000
      7 C1         3.7050    9.3912   -1.2709 C.2       1 RES1    0.0000
      8 C2         3.5177    8.3643   -2.3328 C.ar      1 RES1    0.0000
      9 C3         3.1326    8.5219   -3.6523 C.ar      1 RES1    0.0000
     10 H1         2.9337    9.3790   -4.0095 H         1 RES1    0.0000
     11 C4         3.0480    7.3697   -4.4406 C.ar      1 RES1    0.0000
     12 H2         2.7847    7.4435   -5.3505 H         1 RES1    0.0000
     13 C5         3.3440    6.1158   -3.9114 C.ar      1 RES1    0.0000
     14 H3         3.2864    5.3495   -4.4703 H         1 RES1    0.0000
     15 C6         3.7237    5.9603   -2.5754 C.ar      1 RES1    0.0000
     16 H4         3.9202    5.1049   -2.2126 H         1 RES1    0.0000
     17 C7         3.8007    7.1039   -1.8043 C.ar      1 RES1    0.0000
     18 C8         4.1758    7.2533   -0.3758 C.2       1 RES1    0.0000
     19 C9         3.5055    9.0454    2.0791 C.2       1 RES1    0.0000
     20 C10        3.2350    9.6333    4.3122 C.3       1 RES1    0.0000
     21 H5         3.6980   10.1168    5.0274 H         1 RES1    0.0000
     22 H6         3.1266    8.6942    4.5703 H         1 RES1    0.0000
     23 H7         2.3541   10.0348    4.1631 H         1 RES1    0.0000
     24 O6        -1.7346    4.4131    7.3776 O.2       2 RES2    0.0000
     25 O7        -2.1781    8.9567    7.8982 O.2       2 RES2    0.0000
     26 O8        -2.2384    6.8560    6.0009 O.3       2 RES2    0.0000
     27 O9        -0.0409    7.5041    5.8872 O.2       2 RES2    0.0000
     28 O10       -1.4077    7.3288    4.0803 O.3       2 RES2    0.0000
     29 N2        -2.0068    6.7162    7.3535 N.am      2 RES2    0.0000
     30 C11       -1.7112    5.4776    7.9360 C.2       2 RES2    0.0000
     31 C12       -1.4126    5.8346    9.3501 C.ar      2 RES2    0.0000
     32 C13       -1.0191    5.0151   10.3907 C.ar      2 RES2    0.0000
     33 H8        -0.9315    4.0761   10.2767 H         2 RES2    0.0000
     34 C14       -0.7553    5.6281   11.6194 C.ar      2 RES2    0.0000
     35 H9        -0.4780    5.0942   12.3552 H         2 RES2    0.0000
     36 C15       -0.8902    7.0058   11.7878 C.ar      2 RES2    0.0000
     37 H10       -0.7014    7.3934   12.6343 H         2 RES2    0.0000
     38 C16       -1.2994    7.8255   10.7307 C.ar      2 RES2    0.0000
     39 H11       -1.4001    8.7635   10.8423 H         2 RES2    0.0000
     40 C17       -1.5507    7.2137    9.5157 C.ar      2 RES2    0.0000
     41 C18       -1.9455    7.8226    8.2135 C.2       2 RES2    0.0000
     42 C19       -1.0727    7.2653    5.3468 C.2       2 RES2    0.0000
     43 C20       -0.3107    7.7156    3.2055 C.3       2 RES2    0.0000
     44 H12       -0.6023    7.6605    2.2711 H         2 RES2    0.0000
     45 H13        0.4481    7.1122    3.3463 H         2 RES2    0.0000
     46 H14       -0.0390    8.6356    3.4085 H         2 RES2    0.0000
@<TRIPOS>BOND
     1    1    7 2
     2    2   18 2
     3    3    6 1
     4    4   19 2
     5    5   19 1
     6    6    7 1
     7    7    8 1
     8    8    9 ar
     9    9   10 1
    10   11    9 ar
    11   12   11 1
    12   13   11 ar
    13   14   13 1
    14   15   13 ar
    15   16   15 1
    16   17    8 ar
    17   18    6 1
    18   19    3 1
    19   20    5 1
    20   21   20 1
    21   22   20 1
    22   23   20 1
    23   24   30 2
    24   25   41 2
    25   26   29 1
    26   27   42 2
    27   28   42 1
    28   29   30 1
    29   30   31 1
    30   31   32 ar
    31   32   33 1
    32   34   32 ar
    33   35   34 1
    34   36   34 ar
    35   37   36 1
    36   38   36 ar
    37   39   38 1
    38   40   31 ar
    39   41   29 1
    40   42   26 1
    41   43   28 1
    42   44   43 1
    43   45   43 1
    44   46   43 1
    45   15   17 ar
    46   17   18 1
    47   38   40 ar
    48   40   41 1
@<TRIPOS>SUBSTRUCTURE
     1 RES1 1
     2 RES2 24

@<TRIPOS>CRYSIN
   7.0363   11.0082   12.4239  98.8840  96.1590  93.0090   2 1

