# MOL2 file generated by ConQuest
# Please check atom types

@<TRIPOS>MOLECULE
SOSWUU
    58    62     2
SMALL
NO_CHARGES
****
Generated from CSD

@<TRIPOS>ATOM
      1 O1         5.6074    5.8583    0.9443 O.2       1 RES1    0.0000
      2 O2         8.7712    8.2186    3.1598 O.2       1 RES1    0.0000
      3 O3         6.5688    8.1551    1.7271 O.3       1 RES1    0.0000
      4 O4         4.8679    7.7493    3.1989 O.2       1 RES1    0.0000
      5 O5         4.8558    9.4370    1.6956 O.3       1 RES1    0.0000
      6 N1         7.1297    6.9675    2.1974 N.am      1 RES1    0.0000
      7 C1         6.5623    5.7892    1.6866 C.2       1 RES1    0.0000
      8 C2         7.2012    4.5481    2.1546 C.ar      1 RES1    0.0000
      9 C3         8.3144    4.6150    3.0171 C.ar      1 RES1    0.0000
     10 C4         8.8673    5.8431    3.4363 C.ar      1 RES1    0.0000
     11 C5         8.3082    7.1139    2.9555 C.2       1 RES1    0.0000
     12 C6         6.7079    3.3424    1.7347 C.ar      1 RES1    0.0000
     13 H1         5.9532    3.3164    1.1592 H         1 RES1    0.0000
     14 C7         7.3140    2.1347    2.1516 C.ar      1 RES1    0.0000
     15 H2         6.9841    1.3005    1.8413 H         1 RES1    0.0000
     16 C8         8.3764    2.1812    3.0020 C.ar      1 RES1    0.0000
     17 H3         8.7698    1.3656    3.2875 H         1 RES1    0.0000
     18 C9         8.9141    3.3962    3.4723 C.ar      1 RES1    0.0000
     19 C10       10.0251    3.4798    4.3288 C.ar      1 RES1    0.0000
     20 H4        10.4347    2.6809    4.6360 H         1 RES1    0.0000
     21 C11       10.5285    4.6801    4.7277 C.ar      1 RES1    0.0000
     22 H5        11.2787    4.7079    5.3107 H         1 RES1    0.0000
     23 C12        9.9497    5.8672    4.2859 C.ar      1 RES1    0.0000
     24 H6        10.3049    6.6996    4.5729 H         1 RES1    0.0000
     25 C13        5.3503    8.3866    2.3131 C.2       1 RES1    0.0000
     26 C14        3.5284    9.8023    2.1479 C.3       1 RES1    0.0000
     27 H7         3.2424   10.6216    1.6926 H         1 RES1    0.0000
     28 H8         3.5426    9.9546    3.1155 H         1 RES1    0.0000
     29 H9         2.9024    9.0777    1.9405 H         1 RES1    0.0000
     30 O6         2.1070   15.3308    3.9050 O.2       2 RES2    0.0000
     31 O7        -0.9273   17.6972    1.5063 O.2       2 RES2    0.0000
     32 O8         1.1801   17.6162    3.0441 O.3       2 RES2    0.0000
     33 O9         2.8311   17.1941    1.5048 O.2       2 RES2    0.0000
     34 O10        2.8189   18.9848    2.8901 O.3       2 RES2    0.0000
     35 N2         0.5928   16.4276    2.6136 N.am      2 RES2    0.0000
     36 C15        1.1547   15.2589    3.1568 C.2       2 RES2    0.0000
     37 C16        0.5359   14.0179    2.6775 C.ar      2 RES2    0.0000
     38 C17       -0.6143   14.0755    1.8489 C.ar      2 RES2    0.0000
     39 C18       -1.1766   15.3165    1.4469 C.ar      2 RES2    0.0000
     40 C19       -0.5617   16.5966    1.8301 C.2       2 RES2    0.0000
     41 C20        1.0536   12.8121    3.0501 C.ar      2 RES2    0.0000
     42 H10        1.8124   12.7805    3.6211 H         2 RES2    0.0000
     43 C21        0.4725   11.6137    2.5918 C.ar      2 RES2    0.0000
     44 H11        0.8541   10.7795    2.8398 H         2 RES2    0.0000
     45 C22       -0.6203   11.6416    1.8053 C.ar      2 RES2    0.0000
     46 H12       -1.0013   10.8223    1.5145 H         2 RES2    0.0000
     47 C23       -1.2151   12.8622    1.4003 C.ar      2 RES2    0.0000
     48 C24       -2.3733   12.9421    0.6093 C.ar      2 RES2    0.0000
     49 H13       -2.7771   12.1414    0.2967 H         2 RES2    0.0000
     50 C25       -2.9277   14.1405    0.2787 C.ar      2 RES2    0.0000
     51 H14       -3.7297   14.1683   -0.2306 H         2 RES2    0.0000
     52 C26       -2.3188   15.3407    0.6889 C.ar      2 RES2    0.0000
     53 H15       -2.7017   16.1730    0.4395 H         2 RES2    0.0000
     54 C27        2.3503   17.8619    2.3612 C.2       2 RES2    0.0000
     55 C28        4.1026   19.4151    2.3590 C.3       2 RES2    0.0000
     56 H16        4.4043   20.2140    2.8390 H         2 RES2    0.0000
     57 H17        4.0084   19.6231    1.4056 H         2 RES2    0.0000
     58 H18        4.7606   18.6960    2.4731 H         2 RES2    0.0000
@<TRIPOS>BOND
     1    1    7 2
     2    2   11 2
     3    3    6 1
     4    4   25 2
     5    5   25 1
     6    6    7 1
     7    7    8 1
     8    8    9 ar
     9    9   10 ar
    10   10   11 1
    11   11    6 1
    12   12    8 ar
    13   13   12 1
    14   14   12 ar
    15   15   14 1
    16   16   14 ar
    17   17   16 1
    18   18    9 ar
    19   19   18 ar
    20   20   19 1
    21   21   19 ar
    22   22   21 1
    23   23   10 ar
    24   24   23 1
    25   25    3 1
    26   26    5 1
    27   27   26 1
    28   28   26 1
    29   29   26 1
    30   30   36 2
    31   31   40 2
    32   32   35 1
    33   33   54 2
    34   34   54 1
    35   35   36 1
    36   36   37 1
    37   37   38 ar
    38   38   39 ar
    39   39   40 1
    40   40   35 1
    41   41   37 ar
    42   42   41 1
    43   43   41 ar
    44   44   43 1
    45   45   43 ar
    46   46   45 1
    47   47   38 ar
    48   48   47 ar
    49   49   48 1
    50   50   48 ar
    51   51   50 1
    52   52   39 ar
    53   53   52 1
    54   54   32 1
    55   55   34 1
    56   56   55 1
    57   57   55 1
    58   58   55 1
    59   16   18 ar
    60   21   23 ar
    61   45   47 ar
    62   50   52 ar
@<TRIPOS>SUBSTRUCTURE
     1 RES1 1
     2 RES2 30

@<TRIPOS>CRYSIN
  16.5120   18.5790    7.6156  90.0000  99.4340  90.0000  14 1

