# MOL2 file generated by ConQuest
# Please check atom types

@<TRIPOS>MOLECULE
SOSYAC
    39    40     1
SMALL
NO_CHARGES
****
Generated from CSD

@<TRIPOS>ATOM
      1 O1        -0.2183    2.9338    6.8603 O.3       1 RES1    0.0000
      2 O2         1.7777    2.9957    5.8635 O.2       1 RES1    0.0000
      3 O3         2.7654    3.7184    3.0047 O.2       1 RES1    0.0000
      4 O4         2.4388    1.5354    3.4409 O.3       1 RES1    0.0000
      5 O5         6.2876    1.8922    1.6284 O.2       1 RES1    0.0000
      6 O6         6.4773    2.3543   -0.4773 O.2       1 RES1    0.0000
      7 N1         2.7037    0.7262   -0.7723 N.2       1 RES1    0.0000
      8 N2         3.8373    0.5816    1.1246 N.pl3     1 RES1    0.0000
      9 N3         5.8603    1.8866    0.4851 N.pl3     1 RES1    0.0000
     10 C1         0.5710    2.9568    5.8008 C.2       1 RES1    0.0000
     11 C2        -0.1698    2.9338    4.5031 C.ar      1 RES1    0.0000
     12 C3        -1.5630    2.9665    4.4707 C.ar      1 RES1    0.0000
     13 H1        -2.0444    3.0033    5.2659 H         1 RES1    0.0000
     14 C4        -2.2303    2.9442    3.2608 C.ar      1 RES1    0.0000
     15 H2        -3.1602    2.9505    3.2442 H         1 RES1    0.0000
     16 C5        -1.5242    2.9123    2.0785 C.ar      1 RES1    0.0000
     17 H3        -1.9784    2.9102    1.2660 H         1 RES1    0.0000
     18 C6        -0.1429    2.8824    2.0955 C.ar      1 RES1    0.0000
     19 H4         0.3293    2.8629    1.2937 H         1 RES1    0.0000
     20 C7         0.5431    2.8810    3.3038 C.ar      1 RES1    0.0000
     21 C8         2.0395    2.7990    3.2593 C.2       1 RES1    0.0000
     22 C9         3.8745    1.2828    3.5022 C.3       1 RES1    0.0000
     23 H5         4.3708    2.0951    3.2699 H         1 RES1    0.0000
     24 C10        4.1697    0.1848    2.4982 C.3       1 RES1    0.0000
     25 H6         5.1114   -0.0438    2.5439 H         1 RES1    0.0000
     26 H7         3.6590   -0.6059    2.7339 H         1 RES1    0.0000
     27 C11        2.7021    0.2377    0.4633 C.2       1 RES1    0.0000
     28 C12        3.8728    1.3946   -0.9294 C.2       1 RES1    0.0000
     29 H8         4.1427    1.8345   -1.7032 H         1 RES1    0.0000
     30 C13        4.5861    1.3210    0.2222 C.2       1 RES1    0.0000
     31 C14        4.2200    0.8429    4.9047 C.3       1 RES1    0.0000
     32 H9         4.0290    1.5559    5.5191 H         1 RES1    0.0000
     33 H10        5.1524    0.6219    4.9494 H         1 RES1    0.0000
     34 H11        3.6959    0.0723    5.1373 H         1 RES1    0.0000
     35 C15        1.6255   -0.6059    1.0350 C.3       1 RES1    0.0000
     36 H12        0.9267   -0.7157    0.3857 H         1 RES1    0.0000
     37 H13        1.2708   -0.1828    1.8199 H         1 RES1    0.0000
     38 H14        1.9822   -1.4662    1.2680 H         1 RES1    0.0000
     39 H15        0.2787    2.8977    7.6754 H         1 RES1    0.0000
@<TRIPOS>BOND
     1    1   10 1
     2    2   10 2
     3    3   21 2
     4    4   21 1
     5    5    9 2
     6    6    9 2
     7    7   27 2
     8    8   24 1
     9    9   30 1
    10   10   11 1
    11   11   12 ar
    12   12   13 1
    13   14   12 ar
    14   15   14 1
    15   16   14 ar
    16   17   16 1
    17   18   16 ar
    18   19   18 1
    19   20   11 ar
    20   21   20 1
    21   22    4 1
    22   23   22 1
    23   24   22 1
    24   25   24 1
    25   26   24 1
    26   27    8 1
    27   28    7 1
    28   29   28 1
    29   30    8 1
    30   31   22 1
    31   32   31 1
    32   33   31 1
    33   34   31 1
    34   35   27 1
    35   36   35 1
    36   37   35 1
    37   38   35 1
    38   39    1 1
    39   18   20 ar
    40   28   30 2
@<TRIPOS>SUBSTRUCTURE
     1 RES1 1

@<TRIPOS>CRYSIN
  11.1890    6.9489   19.9790  90.0000  98.0560  90.0000  14 1

