# MOL2 file generated by ConQuest
# Please check atom types

@<TRIPOS>MOLECULE
SOSZEF
    14    15     1
SMALL
NO_CHARGES
****
Generated from CSD

@<TRIPOS>ATOM
      1 O1         2.4176    1.4117    4.2726 O.3       1 RES1    0.0000
      2 N1         1.2793    1.4675    5.1233 N.2       1 RES1    0.0000
      3 C1         1.3884    0.9870    6.2956 C.2       1 RES1    0.0000
      4 C2         2.6163    0.3398    6.8983 C.3       1 RES1    0.0000
      5 C3         3.7657    0.2556    5.8991 C.3       1 RES1    0.0000
      6 C4         3.6739    1.4166    4.9630 C.3       1 RES1    0.0000
      7 C5         0.1646    1.1221    7.1484 C.3       1 RES1    0.0000
      8 O2         3.2306   -3.6632    6.9603 O.3       1 RES1    0.0000
      9 N2         3.9493   -2.8388    7.8676 N.2       1 RES1    0.0000
     10 C6         3.4846   -1.6787    8.1070 C.2       1 RES1    0.0000
     11 C7         2.2554   -1.0379    7.5064 C.3       1 RES1    0.0000
     12 C8         1.5829   -1.9675    6.4933 C.3       1 RES1    0.0000
     13 C9         1.8384   -3.3913    6.9058 C.3       1 RES1    0.0000
     14 C10        4.2580   -0.8907    9.1201 C.3       1 RES1    0.0000
@<TRIPOS>BOND
     1    1    2 1
     2    2    3 2
     3    3    4 1
     4    4    5 1
     5    5    6 1
     6    6    1 1
     7    7    3 1
     8    8    9 1
     9    9   10 2
    10   10   11 1
    11   11    4 1
    12   12   11 1
    13   13    8 1
    14   14   10 1
    15   12   13 1
@<TRIPOS>SUBSTRUCTURE
     1 RES1 1

@<TRIPOS>CRYSIN
  12.0160    8.0900   10.7160  90.0000  94.2300  90.0000  14 1

