# MOL2 file generated by ConQuest
# Please check atom types

@<TRIPOS>MOLECULE
SOVGIT
    37    37     1
SMALL
NO_CHARGES
****
Generated from CSD

@<TRIPOS>ATOM
      1 O1        -0.4006    3.6676    6.5709 O.3       1 RES1    0.0000
      2 N1        -0.7930    4.9944    6.9067 N.2       1 RES1    0.0000
      3 C1         0.2610    5.4820    7.5215 C.2       1 RES1    0.0000
      4 C2         1.3142    4.5737    7.6658 C.2       1 RES1    0.0000
      5 C3         0.8564    3.4454    7.0311 C.2       1 RES1    0.0000
      6 C4         2.6248    4.8606    8.3759 C.3       1 RES1    0.0000
      7 C5         0.1592    6.8670    8.0326 C.2       1 RES1    0.0000
      8 C6        -0.9148    7.2079    9.0058 C.3       1 RES1    0.0000
      9 N2         0.9530    7.8184    7.7167 N.2       1 RES1    0.0000
     10 O2         1.8891    7.3567    6.7294 O.3       1 RES1    0.0000
     11 C7         2.9485    8.1895    6.5653 C.2       1 RES1    0.0000
     12 O3         3.1165    9.1646    7.2179 O.2       1 RES1    0.0000
     13 C8         3.8321    7.6760    5.4752 C.3       1 RES1    0.0000
     14 N3         1.3476    2.2243    6.7614 N.3       1 RES1    0.0000
     15 C9         0.5991    1.2642    5.9372 C.3       1 RES1    0.0000
     16 C10       -0.3718    0.4984    6.7775 C.3       1 RES1    0.0000
     17 C11        2.6296    1.7971    7.3074 C.3       1 RES1    0.0000
     18 C12        2.5174    1.2686    8.7418 C.3       1 RES1    0.0000
     19 H1         2.4739    5.6955    8.9964 H         1 RES1    0.0000
     20 H2         3.4580    4.8757    7.6384 H         1 RES1    0.0000
     21 H3         2.7767    4.1854    9.1190 H         1 RES1    0.0000
     22 H4        -1.8363    6.9684    8.5815 H         1 RES1    0.0000
     23 H5        -0.8665    8.1765    9.0907 H         1 RES1    0.0000
     24 H6        -0.8709    6.7095    9.7036 H         1 RES1    0.0000
     25 H7         4.5163    8.4139    5.2055 H         1 RES1    0.0000
     26 H8         3.3407    7.3999    4.5171 H         1 RES1    0.0000
     27 H9         4.0162    6.9253    5.7335 H         1 RES1    0.0000
     28 H10        1.1646    0.5178    5.5072 H         1 RES1    0.0000
     29 H11        0.2156    1.7475    5.1394 H         1 RES1    0.0000
     30 H12        0.3787   -0.2373    7.1669 H         1 RES1    0.0000
     31 H13       -0.4603    0.0647    5.9316 H         1 RES1    0.0000
     32 H14       -0.8807    1.4886    7.1575 H         1 RES1    0.0000
     33 H15        3.2782    2.7615    7.2235 H         1 RES1    0.0000
     34 H16        2.9304    0.9924    6.6388 H         1 RES1    0.0000
     35 H17        2.3462    2.1358    9.4962 H         1 RES1    0.0000
     36 H18        3.4809    0.9493    9.0152 H         1 RES1    0.0000
     37 H19        1.9077    0.4746    8.8266 H         1 RES1    0.0000
@<TRIPOS>BOND
     1    1    2 1
     2    2    3 2
     3    3    4 1
     4    4    5 2
     5    5    1 1
     6    6    4 1
     7    7    3 1
     8    8    7 1
     9    9    7 2
    10   10    9 1
    11   11   10 1
    12   12   11 2
    13   13   11 1
    14   14    5 1
    15   15   14 1
    16   16   15 1
    17   17   14 1
    18   18   17 1
    19   19    6 1
    20   20    6 1
    21   21    6 1
    22   22    8 1
    23   23    8 1
    24   24    8 1
    25   25   13 1
    26   26   13 1
    27   27   13 1
    28   28   15 1
    29   29   15 1
    30   30   16 1
    31   31   16 1
    32   32   16 1
    33   33   17 1
    34   34   17 1
    35   35   18 1
    36   36   18 1
    37   37   18 1
@<TRIPOS>SUBSTRUCTURE
     1 RES1 1

@<TRIPOS>CRYSIN
   6.7490   21.5740    9.7990  90.0000 105.7700  90.0000 231 1

