# MOL2 file generated by ConQuest
# Please check atom types

@<TRIPOS>MOLECULE
SOVGOB
    48    49     1
SMALL
USER_CHARGES
****
Generated from CSD

@<TRIPOS>ATOM
      1 C1         1.4379    3.0408    7.7860 C.2       1 RES1    0.0000
      2 C2         2.4020    2.0272    8.2876 C.2       1 RES1    0.0000
      3 C3         4.6294    1.6265    9.0152 C.3       1 RES1    0.0000
      4 H1         4.3663    1.4225    9.9266 H         1 RES1    0.0000
      5 H2         4.7034    0.7942    8.5231 H         1 RES1    0.0000
      6 C4         5.8855    2.3204    9.0064 C.3       1 RES1    0.0000
      7 H3         6.1796    2.4382    8.1016 H         1 RES1    0.0000
      8 H4         6.5379    1.8065    9.4912 H         1 RES1    0.0000
      9 H5         5.7804    3.1778    9.4248 H         1 RES1    0.0000
     10 C5         0.3789    2.6276    6.8966 C.2       1 RES1    0.0000
     11 C6        -1.0142    3.0360    7.2165 C.2       1 RES1    0.0000
     12 C7        -3.1179    3.6611    6.3290 C.3       1 RES1    0.0000
     13 H6        -3.5110    3.1015    7.0161 H         1 RES1    0.0000
     14 H7        -3.1870    4.5862    6.6116 H         1 RES1    0.0000
     15 C8        -3.8161    3.4767    5.0907 C.3       1 RES1    0.0000
     16 H8        -3.3621    3.9567    4.3928 H         1 RES1    0.0000
     17 H9        -4.7126    3.8084    5.1772 H         1 RES1    0.0000
     18 H10       -3.8394    2.5429    4.8730 H         1 RES1    0.0000
     19 C9         2.2062    4.7732    9.3220 C.ar      1 RES1    0.0000
     20 C10        2.0677    4.1378   10.5277 C.ar      1 RES1    0.0000
     21 H11        1.5045    3.4036   10.6168 H         1 RES1    0.0000
     22 C11        2.7838    4.6135   11.6058 C.ar      1 RES1    0.0000
     23 H12        2.7025    4.2000   12.4341 H         1 RES1    0.0000
     24 C12        3.6197    5.6989   11.4592 C.ar      1 RES1    0.0000
     25 H13        4.1211    5.9967   12.1840 H         1 RES1    0.0000
     26 C13        3.7172    6.3415   10.2516 C.ar      1 RES1    0.0000
     27 H14        4.2716    7.0833   10.1644 H         1 RES1    0.0000
     28 C14        2.9957    5.8923    9.1674 C.ar      1 RES1    0.0000
     29 H15        3.0407    6.3338    8.3502 H         1 RES1    0.0000
     30 C15       -0.3139    1.1374    5.1078 C.ar      1 RES1    0.0000
     31 C16       -0.3514    1.3189    3.7481 C.ar      1 RES1    0.0000
     32 H16        0.2669    1.8720    3.3274 H         1 RES1    0.0000
     33 C17       -1.3191    0.6676    3.0174 C.ar      1 RES1    0.0000
     34 H17       -1.3729    0.7953    2.0983 H         1 RES1    0.0000
     35 C18       -2.1972   -0.1625    3.6378 C.ar      1 RES1    0.0000
     36 H18       -2.8517   -0.5956    3.1390 H         1 RES1    0.0000
     37 C19       -2.1334   -0.3676    4.9871 C.ar      1 RES1    0.0000
     38 H19       -2.7334   -0.9480    5.3964 H         1 RES1    0.0000
     39 C20       -1.1773    0.2858    5.7466 C.ar      1 RES1    0.0000
     40 H20       -1.1223    0.1505    6.6656 H         1 RES1    0.0000
     41 N1         1.4529    4.3044    8.1737 N.pl3     1 RES1    1.0000
     42 N2         0.6916    1.8477    5.8768 N.pl3     1 RES1    1.0000
     43 O1         1.9066    1.6248    5.5462 O.2       1 RES1   -1.0000
     44 O2        -1.3935    3.1213    8.3471 O.2       1 RES1    0.0000
     45 O3        -1.7216    3.3056    6.1374 O.3       1 RES1    0.0000
     46 O4         0.7296    5.1839    7.5900 O.2       1 RES1   -1.0000
     47 O5         2.0573    0.9073    8.5419 O.2       1 RES1    0.0000
     48 O6         3.6340    2.4989    8.3844 O.3       1 RES1    0.0000
@<TRIPOS>BOND
     1    1    2 1
     2    2   47 2
     3    3    4 1
     4    5    3 1
     5    6    3 1
     6    7    6 1
     7    8    6 1
     8    9    6 1
     9   10    1 1
    10   11   10 1
    11   12   13 1
    12   14   12 1
    13   15   12 1
    14   16   15 1
    15   17   15 1
    16   18   15 1
    17   19   20 ar
    18   20   21 1
    19   22   20 ar
    20   23   22 1
    21   24   22 ar
    22   25   24 1
    23   26   24 ar
    24   27   26 1
    25   28   19 ar
    26   29   28 1
    27   30   31 ar
    28   31   32 1
    29   33   31 ar
    30   34   33 1
    31   35   33 ar
    32   36   35 1
    33   37   35 ar
    34   38   37 1
    35   39   30 ar
    36   40   39 1
    37   41    1 2
    38   42   10 2
    39   43   42 1
    40   44   11 2
    41   45   11 1
    42   46   41 1
    43   48    2 1
    44    3   48 1
    45   12   45 1
    46   19   41 1
    47   26   28 ar
    48   30   42 1
    49   37   39 ar
@<TRIPOS>SUBSTRUCTURE
     1 RES1 1

@<TRIPOS>CRYSIN
  11.8424   10.9091   16.0091  90.0000 105.3180  90.0000  14 1

