# MOL2 file generated by ConQuest
# Please check atom types

@<TRIPOS>MOLECULE
SOWDEN
    33    38     1
SMALL
NO_CHARGES
****
Generated from CSD

@<TRIPOS>ATOM
      1 C1         9.9261    5.6776    2.8249 C.3       1 RES1    0.0000
      2 C2        11.8664    7.1530    2.1854 C.2       1 RES1    0.0000
      3 C3        13.0403    7.8357    2.9756 C.3       1 RES1    0.0000
      4 C4        13.5053    9.1287    2.3752 C.ar      1 RES1    0.0000
      5 C5        13.3590   10.3351    2.9922 C.ar      1 RES1    0.0000
      6 C6        13.8772   11.5016    2.4061 C.ar      1 RES1    0.0000
      7 C7        14.5052   11.4012    1.2173 C.ar      1 RES1    0.0000
      8 C8        14.6266   10.2242    0.5422 C.ar      1 RES1    0.0000
      9 C9        14.1200    9.0800    1.1437 C.ar      1 RES1    0.0000
     10 C10       13.9747    6.8849    3.7491 C.3       1 RES1    0.0000
     11 C11       15.3674    7.2658    4.2605 C.ar      1 RES1    0.0000
     12 C12       16.2110    8.1645    3.6317 C.ar      1 RES1    0.0000
     13 C13       17.4505    8.4696    4.2795 C.ar      1 RES1    0.0000
     14 C14       17.8126    7.8891    5.4386 C.ar      1 RES1    0.0000
     15 C15       16.9804    6.9760    6.0544 C.ar      1 RES1    0.0000
     16 C16       15.7279    6.6554    5.4635 C.ar      1 RES1    0.0000
     17 C17       14.6507    4.5510    3.0337 C.ar      1 RES1    0.0000
     18 C18       15.4230    4.9739    1.9647 C.ar      1 RES1    0.0000
     19 C19       16.3025    4.1339    1.3502 C.ar      1 RES1    0.0000
     20 C20       16.4274    2.8234    1.7749 C.ar      1 RES1    0.0000
     21 C21       15.6466    2.3923    2.8261 C.ar      1 RES1    0.0000
     22 C22       14.7746    3.2325    3.4573 C.ar      1 RES1    0.0000
     23 C23       12.5337    5.1388    4.2249 C.2       1 RES1    0.0000
     24 C24       12.7961    7.4763    4.4088 C.3       1 RES1    0.0000
     25 C25       12.7854    8.3287    5.6237 C.3       1 RES1    0.0000
     26 N1        11.7770    6.3601    4.4183 N.am      1 RES1    0.0000
     27 N2        11.1345    6.5209    3.1013 N.am      1 RES1    0.0000
     28 N3        15.1115   12.6195    0.6122 N.pl3     1 RES1    0.0000
     29 N4        13.7650    5.4432    3.6649 N.am      1 RES1    0.0000
     30 O1        11.6159    7.3201    1.0239 O.2       1 RES1    0.0000
     31 O2        14.8689   13.7023    1.1283 O.2       1 RES1    0.0000
     32 O3        15.8135   12.4722   -0.3654 O.2       1 RES1    0.0000
     33 O4        12.0873    4.0368    4.4420 O.2       1 RES1    0.0000
@<TRIPOS>BOND
     1    1   27 1
     2    2    3 1
     3    3    4 1
     4    4    5 ar
     5    5    6 ar
     6    6    7 ar
     7    7    8 ar
     8    8    9 ar
     9    9    4 ar
    10   10    3 1
    11   11   10 1
    12   12   11 ar
    13   13   12 ar
    14   14   13 ar
    15   15   14 ar
    16   16   11 ar
    17   17   18 ar
    18   18   19 ar
    19   19   20 ar
    20   20   21 ar
    21   21   22 ar
    22   22   17 ar
    23   23   26 1
    24   24    3 1
    25   25   24 1
    26   26   24 1
    27   27    2 1
    28   28    7 1
    29   29   10 1
    30   30    2 2
    31   31   28 2
    32   32   28 2
    33   33   23 2
    34   10   24 1
    35   15   16 ar
    36   17   29 1
    37   23   29 1
    38   26   27 1
@<TRIPOS>SUBSTRUCTURE
     1 RES1 1

@<TRIPOS>CRYSIN
   9.0270   10.4100   12.6920  86.4800  69.3300  73.6400   2 1

