# MOL2 file generated by ConQuest
# Please check atom types

@<TRIPOS>MOLECULE
SOWNID
    52    56     1
SMALL
NO_CHARGES
****
Generated from CSD

@<TRIPOS>ATOM
      1 C1        11.4981    7.3515    6.9730 C.3       1 RES1    0.0000
      2 H1        10.7840    7.5292    7.6356 H         1 RES1    0.0000
      3 H2        11.9273    6.4921    7.2108 H         1 RES1    0.0000
      4 C2        10.8856    7.2360    5.6018 C.3       1 RES1    0.0000
      5 H3        11.6818    7.0690    4.9979 H         1 RES1    0.0000
      6 C3        10.0031    5.9806    5.5833 C.ar      1 RES1    0.0000
      7 C4        10.6175    4.7262    5.4085 C.ar      1 RES1    0.0000
      8 H4        11.5605    4.6834    5.2896 H         1 RES1    0.0000
      9 C5         9.8975    3.5746    5.4021 C.ar      1 RES1    0.0000
     10 H5        10.3372    2.7431    5.2753 H         1 RES1    0.0000
     11 C6         8.4962    3.6057    5.5866 C.ar      1 RES1    0.0000
     12 C7         7.8589    4.8482    5.7423 C.ar      1 RES1    0.0000
     13 C8         8.6355    6.0298    5.7352 C.ar      1 RES1    0.0000
     14 H6         8.2061    6.8721    5.8364 H         1 RES1    0.0000
     15 C9         6.4964    2.4412    5.7776 C.ar      1 RES1    0.0000
     16 C10        5.7859    3.6528    5.9046 C.ar      1 RES1    0.0000
     17 H7         4.8407    3.6314    5.9981 H         1 RES1    0.0000
     18 C11        6.4283    4.8525    5.8935 C.ar      1 RES1    0.0000
     19 C12        5.6665    6.1390    6.0695 C.3       1 RES1    0.0000
     20 H8         6.2890    6.8946    6.0362 H         1 RES1    0.0000
     21 H9         5.2089    6.1304    6.9365 H         1 RES1    0.0000
     22 H10        5.0054    6.2289    5.3530 H         1 RES1    0.0000
     23 C13        5.7816    1.1452    5.9005 C.ar      1 RES1    0.0000
     24 C14        6.3715    0.0867    6.5830 C.ar      1 RES1    0.0000
     25 H11        7.2486    0.1830    6.9349 H         1 RES1    0.0000
     26 C15        5.6860   -1.1109    6.7542 C.ar      1 RES1    0.0000
     27 H12        6.0902   -1.8269    7.2314 H         1 RES1    0.0000
     28 C16        4.4114   -1.2565    6.2296 C.ar      1 RES1    0.0000
     29 H13        3.9513   -2.0806    6.3294 H         1 RES1    0.0000
     30 C17        3.8078   -0.2087    5.5622 C.ar      1 RES1    0.0000
     31 H14        2.9286   -0.3093    5.2167 H         1 RES1    0.0000
     32 C18        4.4862    0.9900    5.3974 C.ar      1 RES1    0.0000
     33 H15        4.0676    1.7103    4.9408 H         1 RES1    0.0000
     34 C19       10.1937    8.4871    5.1453 C.2       1 RES1    0.0000
     35 C20        9.8406    8.7386    3.7837 C.ar      1 RES1    0.0000
     36 C21        9.3122   10.0539    3.7393 C.ar      1 RES1    0.0000
     37 C22        9.8412    9.5894    5.8586 C.2       1 RES1    0.0000
     38 H16       10.1173    9.6815    6.9460 H         1 RES1    0.0000
     39 C23        9.9460    8.0140    2.5853 C.ar      1 RES1    0.0000
     40 H17       10.2799    7.1247    2.5853 H         1 RES1    0.0000
     41 C24        9.5526    8.6198    1.4044 C.ar      1 RES1    0.0000
     42 H18        9.6026    8.1371    0.5881 H         1 RES1    0.0000
     43 C25        9.0819    9.9394    1.4013 C.ar      1 RES1    0.0000
     44 H19        8.8517   10.3450    0.5738 H         1 RES1    0.0000
     45 C26        8.9459   10.6565    2.5521 C.ar      1 RES1    0.0000
     46 H20        8.6093   11.5448    2.5378 H         1 RES1    0.0000
     47 N1        12.5235    8.4539    7.0411 N.pl3     1 RES1    0.0000
     48 N2         7.8201    2.3984    5.6147 N.ar      1 RES1    0.0000
     49 N3         9.3290   10.5505    5.0238 N.pl3     1 RES1    0.0000
     50 H21        8.8595   11.4784    5.2357 H         1 RES1    0.0000
     51 O1        13.4489    8.4143    6.2724 O.2       1 RES1    0.0000
     52 O2        12.3505    9.3337    7.8691 O.2       1 RES1    0.0000
@<TRIPOS>BOND
     1    1    2 1
     2    3    1 1
     3    4    1 1
     4    5    4 1
     5    6    4 1
     6    7    6 ar
     7    8    7 1
     8    9    7 ar
     9   10    9 1
    10   11    9 ar
    11   12   11 ar
    12   13    6 ar
    13   14   13 1
    14   15   16 ar
    15   16   17 1
    16   18   12 ar
    17   19   18 1
    18   20   19 1
    19   21   19 1
    20   22   19 1
    21   23   15 1
    22   24   23 ar
    23   25   24 1
    24   26   24 ar
    25   27   26 1
    26   28   26 ar
    27   29   28 1
    28   30   28 ar
    29   31   30 1
    30   32   23 ar
    31   33   32 1
    32   34    4 1
    33   35   34 1
    34   36   35 ar
    35   37   34 2
    36   38   37 1
    37   39   35 ar
    38   40   39 1
    39   41   39 ar
    40   42   41 1
    41   43   41 ar
    42   44   43 1
    43   45   36 ar
    44   46   45 1
    45   47    1 1
    46   48   11 ar
    47   49   36 1
    48   50   49 1
    49   51   47 2
    50   52   47 2
    51   12   13 ar
    52   15   48 ar
    53   16   18 ar
    54   30   32 ar
    55   37   49 1
    56   43   45 ar
@<TRIPOS>SUBSTRUCTURE
     1 RES1 1

@<TRIPOS>CRYSIN
  12.3676   10.7025   16.0560  90.0000  99.1590  90.0000  14 1

