# MOL2 file generated by ConQuest
# Please check atom types

@<TRIPOS>MOLECULE
SOWNUP
   136   144     2
SMALL
NO_CHARGES
****
Generated from CSD

@<TRIPOS>ATOM
      1 C1       -10.2986   -2.2512    0.1643 C.ar      1 RES1    0.0000
      2 C2       -11.0301   -1.2277   -0.4444 C.ar      1 RES1    0.0000
      3 H1       -10.6218   -0.4129   -0.6330 H         1 RES1    0.0000
      4 C3       -12.3415   -1.4223   -0.7631 C.ar      1 RES1    0.0000
      5 H2       -12.8210   -0.7488   -1.1889 H         1 RES1    0.0000
      6 C4       -12.9716   -2.6437   -0.4487 C.ar      1 RES1    0.0000
      7 H3       -13.8714   -2.7646   -0.6502 H         1 RES1    0.0000
      8 C5       -12.2788   -3.6390    0.1415 C.ar      1 RES1    0.0000
      9 C6       -12.9817   -4.8855    0.5459 C.2       1 RES1    0.0000
     10 C7       -12.2967   -5.6956    1.5576 C.ar      1 RES1    0.0000
     11 C8       -13.0608   -6.6595    2.3249 C.ar      1 RES1    0.0000
     12 H4       -13.9661   -6.7851    2.1492 H         1 RES1    0.0000
     13 C9       -12.4603   -7.3644    3.2838 C.ar      1 RES1    0.0000
     14 H5       -12.9599   -7.9610    3.7953 H         1 RES1    0.0000
     15 C10      -11.1840   -7.2310    3.5181 C.ar      1 RES1    0.0000
     16 H6       -10.7982   -7.7475    4.1883 H         1 RES1    0.0000
     17 C11      -10.3756   -6.3534    2.8065 C.ar      1 RES1    0.0000
     18 C12      -10.9807   -5.5810    1.7505 C.ar      1 RES1    0.0000
     19 C13      -10.2147   -4.6548    0.8474 C.2       1 RES1    0.0000
     20 C14      -10.9095   -3.5181    0.4115 C.ar      1 RES1    0.0000
     21 C15       -8.2928   -0.9231    0.3844 C.3       1 RES1    0.0000
     22 H7        -8.7221   -0.1821    0.8402 H         1 RES1    0.0000
     23 H8        -8.2648   -0.7222   -0.5644 H         1 RES1    0.0000
     24 C16       -6.9564   -1.1052    0.8902 C.3       1 RES1    0.0000
     25 H9        -6.4810   -0.2606    0.8631 H         1 RES1    0.0000
     26 H10       -6.9966   -1.4004    1.8134 H         1 RES1    0.0000
     27 C17       -4.8562   -2.1052    0.3315 C.3       1 RES1    0.0000
     28 H11       -4.4517   -2.6516   -0.3615 H         1 RES1    0.0000
     29 H12       -4.5164   -1.2041    0.2229 H         1 RES1    0.0000
     30 C18       -4.4198   -2.5888    1.5761 C.3       1 RES1    0.0000
     31 H13       -3.4606   -2.4506    1.6147 H         1 RES1    0.0000
     32 H14       -4.8115   -2.0189    2.2563 H         1 RES1    0.0000
     33 C19       -5.2648   -4.2984    2.7808 C.3       1 RES1    0.0000
     34 H15       -6.1929   -4.1445    2.5464 H         1 RES1    0.0000
     35 H16       -5.0893   -3.7536    3.5653 H         1 RES1    0.0000
     36 C20       -5.1933   -5.5951    3.2009 C.3       1 RES1    0.0000
     37 H17       -4.5540   -6.0551    2.6350 H         1 RES1    0.0000
     38 H18       -4.8317   -5.5967    4.1011 H         1 RES1    0.0000
     39 C21       -7.1188   -5.9358    4.3155 C.3       1 RES1    0.0000
     40 H19       -7.2474   -4.9734    4.3155 H         1 RES1    0.0000
     41 H20       -6.6847   -6.1917    5.1457 H         1 RES1    0.0000
     42 C22       -8.4260   -6.6438    4.1626 C.3       1 RES1    0.0000
     43 H21       -8.2729   -7.5983    4.0883 H         1 RES1    0.0000
     44 H22       -8.9764   -6.4853    4.9456 H         1 RES1    0.0000
     45 C23       -7.2350   -4.9106   -1.0317 C.ar      1 RES1    0.0000
     46 C24       -6.5971   -5.9813   -0.3858 C.ar      1 RES1    0.0000
     47 H23       -6.9885   -6.3895    0.3530 H         1 RES1    0.0000
     48 C25       -5.3922   -6.4130   -0.8588 C.ar      1 RES1    0.0000
     49 H24       -4.9864   -7.1462   -0.4573 H         1 RES1    0.0000
     50 C26       -4.7804   -5.8149   -1.8805 C.ar      1 RES1    0.0000
     51 C27       -5.3307   -4.7285   -2.5121 C.ar      1 RES1    0.0000
     52 H25       -4.8813   -4.3015   -3.2066 H         1 RES1    0.0000
     53 C28       -6.5709   -4.2811   -2.0891 C.ar      1 RES1    0.0000
     54 N1        -9.0866   -5.1461    0.4230 N.2       1 RES1    0.0000
     55 N2        -8.4515   -4.4931   -0.5616 N.pl3     1 RES1    0.0000
     56 N3        -7.1147   -3.1367   -2.8251 N.pl3     1 RES1    0.0000
     57 N4        -3.4931   -6.3110   -2.3649 N.pl3     1 RES1    0.0000
     58 O1       -14.1074   -5.0488    0.0629 O.2       1 RES1    0.0000
     59 O2        -9.1043   -6.1728    2.9965 O.3       1 RES1    0.0000
     60 O3        -6.3498   -6.3330    3.2123 O.3       1 RES1    0.0000
     61 O4        -4.6486   -3.8431    1.9391 O.3       1 RES1    0.0000
     62 O5        -6.2559   -2.0770    0.1057 O.3       1 RES1    0.0000
     63 O6        -9.0320   -2.1366    0.6102 O.3       1 RES1    0.0000
     64 O7        -8.2291   -2.7034   -2.4907 O.2       1 RES1    0.0000
     65 O8        -6.5083   -2.7065   -3.7582 O.2       1 RES1    0.0000
     66 O9        -2.8897   -5.6595   -3.2094 O.2       1 RES1    0.0000
     67 O10       -3.0922   -7.3377   -1.8819 O.2       1 RES1    0.0000
     68 H26       -8.7811   -3.9561   -0.9717 H         1 RES1    0.0000
     69 C29       -7.4305   -5.6202   -6.5032 C.ar      2 RES2    0.0000
     70 C30       -6.7553   -6.6532   -5.8673 C.ar      2 RES2    0.0000
     71 H27       -7.1867   -7.4539   -5.6701 H         2 RES2    0.0000
     72 C31       -5.4147   -6.4664   -5.5287 C.ar      2 RES2    0.0000
     73 H28       -4.9592   -7.1415   -5.0814 H         2 RES2    0.0000
     74 C32       -4.7785   -5.3518   -5.8302 C.ar      2 RES2    0.0000
     75 H29       -3.8684   -5.2764   -5.6544 H         2 RES2    0.0000
     76 C33       -5.4705   -4.2780   -6.4146 C.ar      2 RES2    0.0000
     77 C34       -4.7382   -3.0487   -6.8333 C.2       2 RES2    0.0000
     78 C35       -5.3614   -2.1806   -7.8664 C.ar      2 RES2    0.0000
     79 C36       -4.5868   -1.3281   -8.5695 C.ar      2 RES2    0.0000
     80 H30       -3.6687   -1.2999   -8.4223 H         2 RES2    0.0000
     81 C37       -5.1580   -0.5149   -9.4926 C.ar      2 RES2    0.0000
     82 H31       -4.6338    0.1225   -9.9227 H         2 RES2    0.0000
     83 C38       -6.5803   -0.6154   -9.8284 C.ar      2 RES2    0.0000
     84 H32       -6.9639   -0.0926  -10.4957 H         2 RES2    0.0000
     85 C39       -7.3237   -1.5275   -9.1011 C.ar      2 RES2    0.0000
     86 C40       -6.7769   -2.2999   -8.1351 C.ar      2 RES2    0.0000
     87 C41       -7.5385   -3.1555   -7.2105 C.2       2 RES2    0.0000
     88 C42       -6.8221   -4.3957   -6.6847 C.ar      2 RES2    0.0000
     89 C43       -9.4295   -6.9154   -6.6718 C.3       2 RES2    0.0000
     90 H33       -9.4608   -7.0379   -5.7101 H         2 RES2    0.0000
     91 H34       -9.0092   -7.6941   -7.0691 H         2 RES2    0.0000
     92 C44      -10.8410   -6.7286   -7.2320 C.3       2 RES2    0.0000
     93 H35      -10.7942   -6.4130   -8.1479 H         2 RES2    0.0000
     94 H36      -11.3150   -7.5748   -7.2234 H         2 RES2    0.0000
     95 C45      -12.8980   -5.7443   -6.6818 C.3       2 RES2    0.0000
     96 H37      -13.3032   -5.1367   -6.0431 H         2 RES2    0.0000
     97 H38      -13.2922   -6.6218   -6.5561 H         2 RES2    0.0000
     98 C46      -13.1938   -5.2215   -8.1980 C.3       2 RES2    0.0000
     99 H39      -12.7948   -5.8196   -8.8496 H         2 RES2    0.0000
    100 H40      -14.1484   -5.1713   -8.3623 H         2 RES2    0.0000
    101 C47      -13.1418   -3.4444   -9.3268 C.3       2 RES2    0.0000
    102 H41      -14.1076   -3.4805   -9.2454 H         2 RES2    0.0000
    103 H42      -12.8778   -3.9671  -10.0999 H         2 RES2    0.0000
    104 C48      -12.6837   -2.0330   -9.4712 C.3       2 RES2    0.0000
    105 H43      -13.1111   -1.7096  -10.2800 H         2 RES2    0.0000
    106 H44      -13.1016   -1.5542   -8.7395 H         2 RES2    0.0000
    107 C49      -10.5885   -1.7693  -10.6458 C.3       2 RES2    0.0000
    108 H45      -11.0340   -1.4223  -11.4346 H         2 RES2    0.0000
    109 H46      -10.4649   -2.7238  -10.7687 H         2 RES2    0.0000
    110 C50       -9.2778   -1.1256  -10.5086 C.3       2 RES2    0.0000
    111 H47       -8.7309   -1.2905  -11.2917 H         2 RES2    0.0000
    112 H48       -9.3762   -0.1680  -10.3914 H         2 RES2    0.0000
    113 C51      -10.4929   -2.9765   -5.3386 C.ar      2 RES2    0.0000
    114 C52      -11.1448   -1.9074   -5.9388 C.ar      2 RES2    0.0000
    115 H49      -10.7221   -1.4883   -6.6547 H         2 RES2    0.0000
    116 C53      -12.3647   -1.4286   -5.5501 C.ar      2 RES2    0.0000
    117 H50      -12.7668   -0.7112   -5.9859 H         2 RES2    0.0000
    118 C54      -12.9980   -2.0770   -4.4469 C.ar      2 RES2    0.0000
    119 C55      -12.4132   -3.1367   -3.8339 C.ar      2 RES2    0.0000
    120 H51      -12.8511   -3.5668   -3.1351 H         2 RES2    0.0000
    121 C56      -11.1704   -3.5825   -4.2440 C.ar      2 RES2    0.0000
    122 N5        -8.6658   -2.6987   -6.7661 N.2       2 RES2    0.0000
    123 N6        -9.2785   -3.3988   -5.7644 N.pl3     2 RES2    0.0000
    124 N7       -10.5963   -4.6830   -3.5338 N.pl3     2 RES2    0.0000
    125 N8       -14.2642   -1.5464   -3.9754 N.pl3     2 RES2    0.0000
    126 O11       -3.6320   -2.7363   -6.4375 O.2       2 RES2    0.0000
    127 O12       -8.6889   -1.7190   -9.3468 O.3       2 RES2    0.0000
    128 O13      -11.3916   -1.5479   -9.5283 O.3       2 RES2    0.0000
    129 O14      -12.5865   -3.8996   -8.2694 O.3       2 RES2    0.0000
    130 O15      -11.5065   -5.8118   -6.4560 O.3       2 RES2    0.0000
    131 O16       -8.7006   -5.7443   -6.9962 O.3       2 RES2    0.0000
    132 O17      -14.6543   -0.4663   -4.4284 O.2       2 RES2    0.0000
    133 O18      -14.8724   -2.1555   -3.1294 O.2       2 RES2    0.0000
    134 O19      -11.2259   -5.1681   -2.5750 O.2       2 RES2    0.0000
    135 O20       -9.5089   -5.1524   -3.8711 O.2       2 RES2    0.0000
    136 H52       -8.8609   -4.2544   -5.4586 H         2 RES2    0.0000
@<TRIPOS>BOND
     1    1    2 ar
     2    2    3 1
     3    4    2 ar
     4    5    4 1
     5    6    4 ar
     6    7    6 1
     7    8    6 ar
     8    9    8 1
     9   10    9 1
    10   11   10 ar
    11   12   11 1
    12   13   11 ar
    13   14   13 1
    14   15   13 ar
    15   16   15 1
    16   17   15 ar
    17   18   10 ar
    18   19   18 1
    19   20    1 ar
    20   21   22 1
    21   23   21 1
    22   24   21 1
    23   25   24 1
    24   26   24 1
    25   27   28 1
    26   29   27 1
    27   30   27 1
    28   31   30 1
    29   32   30 1
    30   33   34 1
    31   35   33 1
    32   36   33 1
    33   37   36 1
    34   38   36 1
    35   39   40 1
    36   41   39 1
    37   42   39 1
    38   43   42 1
    39   44   42 1
    40   45   46 ar
    41   46   47 1
    42   48   46 ar
    43   49   48 1
    44   50   48 ar
    45   51   50 ar
    46   52   51 1
    47   53   45 ar
    48   54   19 2
    49   55   45 1
    50   56   53 1
    51   57   50 1
    52   58    9 2
    53   59   17 1
    54   60   36 1
    55   61   30 1
    56   62   24 1
    57   63    1 1
    58   64   56 2
    59   65   56 2
    60   66   57 2
    61   67   57 2
    62   68   55 1
    63   69   70 ar
    64   70   71 1
    65   72   70 ar
    66   73   72 1
    67   74   72 ar
    68   75   74 1
    69   76   74 ar
    70   77   76 1
    71   78   77 1
    72   79   78 ar
    73   80   79 1
    74   81   79 ar
    75   82   81 1
    76   83   81 ar
    77   84   83 1
    78   85   83 ar
    79   86   78 ar
    80   87   86 1
    81   88   69 ar
    82   89   90 1
    83   91   89 1
    84   92   89 1
    85   93   92 1
    86   94   92 1
    87   95   96 1
    88   97   95 1
    89   98   95 1
    90   99   98 1
    91  100   98 1
    92  101  102 1
    93  103  101 1
    94  104  101 1
    95  105  104 1
    96  106  104 1
    97  107  108 1
    98  109  107 1
    99  110  107 1
   100  111  110 1
   101  112  110 1
   102  113  114 ar
   103  114  115 1
   104  116  114 ar
   105  117  116 1
   106  118  116 ar
   107  119  118 ar
   108  120  119 1
   109  121  113 ar
   110  122   87 2
   111  123  113 1
   112  124  121 1
   113  125  118 1
   114  126   77 2
   115  127   85 1
   116  128  104 1
   117  129   98 1
   118  130   92 1
   119  131   69 1
   120  132  125 2
   121  133  125 2
   122  134  124 2
   123  135  124 2
   124  136  123 1
   125    8   20 ar
   126   17   18 ar
   127   19   20 1
   128   21   63 1
   129   27   62 1
   130   33   61 1
   131   39   60 1
   132   42   59 1
   133   51   53 ar
   134   54   55 1
   135   76   88 ar
   136   85   86 ar
   137   87   88 1
   138   89  131 1
   139   95  130 1
   140  101  129 1
   141  107  128 1
   142  110  127 1
   143  119  121 ar
   144  122  123 1
@<TRIPOS>SUBSTRUCTURE
     1 RES1 1
     2 RES2 69

@<TRIPOS>CRYSIN
  11.8044   15.6990   14.3290  90.0000  94.2490  90.0000   7 1

