# MOL2 file generated by ConQuest
# Please check atom types

@<TRIPOS>MOLECULE
SOXBOW
    27    29     1
SMALL
NO_CHARGES
****
Generated from CSD

@<TRIPOS>ATOM
      1 O1         0.5237    2.8776   15.0041 O.3       1 RES1    0.0000
      2 N1         1.0071    2.2964   16.1929 N.2       1 RES1    0.0000
      3 C1         0.3729    0.7741   17.9222 C.ar      1 RES1    0.0000
      4 C2        -0.5629   -0.1440   18.3973 C.ar      1 RES1    0.0000
      5 C3        -0.3209   -0.8363   19.5842 C.ar      1 RES1    0.0000
      6 C4         0.8575   -0.6088   20.2959 C.ar      1 RES1    0.0000
      7 C5         1.7938    0.3093   19.8208 C.ar      1 RES1    0.0000
      8 C6         1.5513    1.0007   18.6339 C.ar      1 RES1    0.0000
      9 C7         0.1245    1.4983   16.6699 C.2       1 RES1    0.0000
     10 C8        -1.1263    1.4059   15.8370 C.3       1 RES1    0.0000
     11 C9        -0.8551    2.4226   14.7386 C.3       1 RES1    0.0000
     12 C10       -1.0696    1.9871   13.2921 C.3       1 RES1    0.0000
     13 C11       -2.3409    2.8438   13.2940 C.3       1 RES1    0.0000
     14 C12       -1.8704    3.5530   14.5520 C.3       1 RES1    0.0000
     15 H1        -1.4729   -0.3199   17.8510 H         1 RES1    0.0000
     16 H2        -1.0463   -1.5463   19.9477 H         1 RES1    0.0000
     17 H3         1.0463   -1.1464   21.2173 H         1 RES1    0.0000
     18 H4         2.7062    0.4888   20.3709 H         1 RES1    0.0000
     19 H5         2.2737    1.7152   18.2742 H         1 RES1    0.0000
     20 H6        -1.1515    0.5154   15.5042 H         1 RES1    0.0000
     21 H7        -1.8938    1.7330   16.3891 H         1 RES1    0.0000
     22 H8        -1.3210    0.9598   13.0612 H         1 RES1    0.0000
     23 H9        -0.3390    2.3551   12.6381 H         1 RES1    0.0000
     24 H10       -2.4666    3.3326   12.4457 H         1 RES1    0.0000
     25 H11       -3.0920    2.2129   13.3883 H         1 RES1    0.0000
     26 H12       -2.5367    3.7325   15.4657 H         1 RES1    0.0000
     27 H13       -1.5255    4.3635   14.4078 H         1 RES1    0.0000
@<TRIPOS>BOND
     1    1    2 1
     2    2    9 2
     3    3    4 ar
     4    4    5 ar
     5    5    6 ar
     6    6    7 ar
     7    7    8 ar
     8    8    3 ar
     9    9    3 1
    10   10    9 1
    11   11    1 1
    12   12   11 1
    13   13   12 1
    14   14   11 1
    15   15    4 1
    16   16    5 1
    17   17    6 1
    18   18    7 1
    19   19    8 1
    20   20   10 1
    21   21   10 1
    22   22   12 1
    23   23   12 1
    24   24   13 1
    25   25   13 1
    26   26   14 1
    27   27   14 1
    28   10   11 1
    29   13   14 1
@<TRIPOS>SUBSTRUCTURE
     1 RES1 1

@<TRIPOS>CRYSIN
   5.8450    8.8870   19.2360  90.0000  90.0000  90.0000  19 1

