# MOL2 file generated by ConQuest
# Please check atom types

@<TRIPOS>MOLECULE
SOXBEM
    24    26     1
SMALL
NO_CHARGES
****
Generated from CSD

@<TRIPOS>ATOM
      1 O1         9.1073    1.2960    4.1782 O.3       1 RES1    0.0000
      2 N1         9.7845    1.5511    2.9542 N.2       1 RES1    0.0000
      3 C1        11.3019    0.5520    1.4351 C.ar      1 RES1    0.0000
      4 C2        12.1523   -0.5176    1.1557 C.ar      1 RES1    0.0000
      5 C3        12.9084   -0.5199   -0.0159 C.ar      1 RES1    0.0000
      6 C4        12.8143    0.5474   -0.9096 C.ar      1 RES1    0.0000
      7 C5        11.9638    1.6176   -0.6302 C.ar      1 RES1    0.0000
      8 C6        11.2075    1.6199    0.5429 C.ar      1 RES1    0.0000
      9 C7        10.5013    0.5193    2.6383 C.2       1 RES1    0.0000
     10 C8        10.4779   -0.5686    3.6591 C.3       1 RES1    0.0000
     11 C9         9.3348   -0.0837    4.4972 C.3       1 RES1    0.0000
     12 C10        8.1264   -0.8890    4.8258 C.3       1 RES1    0.0000
     13 C11        9.0481   -0.5056    5.8878 C.3       1 RES1    0.0000
     14 H1        12.2297   -1.3470    1.8414 H         1 RES1    0.0000
     15 H2        13.5695   -1.3470   -0.2381 H         1 RES1    0.0000
     16 H3        13.3977    0.5445   -1.8097 H         1 RES1    0.0000
     17 H4        11.8887    2.4418   -1.3176 H         1 RES1    0.0000
     18 H5        10.5489    2.4476    0.7620 H         1 RES1    0.0000
     19 H6        11.4054   -0.6477    4.2067 H         1 RES1    0.0000
     20 H7        10.2469   -1.5190    3.1908 H         1 RES1    0.0000
     21 H8         7.1370   -0.4700    4.7306 H         1 RES1    0.0000
     22 H9         8.1108   -1.9317    4.5560 H         1 RES1    0.0000
     23 H10        8.7089    0.2522    6.5879 H         1 RES1    0.0000
     24 H11        9.6727   -1.2152    6.4133 H         1 RES1    0.0000
@<TRIPOS>BOND
     1    1    2 1
     2    2    9 2
     3    3    4 ar
     4    4    5 ar
     5    5    6 ar
     6    6    7 ar
     7    7    8 ar
     8    8    3 ar
     9    9    3 1
    10   10    9 1
    11   11    1 1
    12   12   11 1
    13   13   11 1
    14   14    4 1
    15   15    5 1
    16   16    6 1
    17   17    7 1
    18   18    8 1
    19   19   10 1
    20   20   10 1
    21   21   12 1
    22   22   12 1
    23   23   13 1
    24   24   13 1
    25   10   11 1
    26   12   13 1
@<TRIPOS>SUBSTRUCTURE
     1 RES1 1

@<TRIPOS>CRYSIN
  10.0520    5.7320   16.0910  90.0000  99.4100  90.0000 231 1

