# MOL2 file generated by ConQuest
# Please check atom types

@<TRIPOS>MOLECULE
SOXSAB
    86    82     3
SMALL
NO_CHARGES
****
Generated from CSD

@<TRIPOS>ATOM
      1 O1        -6.5819   11.5781   14.0201 O.2       1 RES1    0.0000
      2 N1        -9.3862   11.3655   11.9653 N.pl3     1 RES1    0.0000
      3 H1        -9.8197   11.4514   11.1783 H         1 RES1    0.0000
      4 C1        -8.1098   11.7387   12.1850 C.2       1 RES1    0.0000
      5 O2        -5.1401   11.6411   12.0431 O.3       1 RES1    0.0000
      6 H2        -5.7303   11.5703   13.0448 H         1 RES1    0.0000
      7 N2        -7.7695   11.3394   13.4120 N.pl3     1 RES1    0.0000
      8 C2        -8.8438   10.6981   13.9996 C.2       1 RES1    0.0000
      9 C3        -9.8474   10.7241   13.0871 C.2       1 RES1    0.0000
     10 N3        -5.9357   12.4092   11.2328 N.pl3     1 RES1    0.0000
     11 N4        -7.7449   13.2230   10.2527 N.2       1 RES1    0.0000
     12 C4        -7.2850   12.4625   11.2517 C.2       1 RES1    0.0000
     13 C5        -6.6263   13.6520    9.5847 C.2       1 RES1    0.0000
     14 C6        -5.4966   13.1636   10.1774 C.2       1 RES1    0.0000
     15 C7        -8.9140   10.0844   15.3517 C.3       1 RES1    0.0000
     16 H3        -8.5470   10.7071   16.0285 H         1 RES1    0.0000
     17 H4        -8.3846    9.2484   15.3748 H         1 RES1    0.0000
     18 C8       -10.3875    9.7852   15.6547 C.3       1 RES1    0.0000
     19 H5       -10.4373    9.1700   16.4281 H         1 RES1    0.0000
     20 H6       -10.8400   10.6274   15.9091 H         1 RES1    0.0000
     21 C9       -11.1279    9.1627   14.4808 C.3       1 RES1    0.0000
     22 H7       -12.0447    8.9206   14.7628 H         1 RES1    0.0000
     23 H8       -10.6647    8.3329   14.2036 H         1 RES1    0.0000
     24 C10      -11.2017   10.1263   13.2867 C.3       1 RES1    0.0000
     25 H9       -11.4805    9.6375   12.4731 H         1 RES1    0.0000
     26 H10      -11.8652   10.8390   13.4667 H         1 RES1    0.0000
     27 C11       -6.6004   14.5390    8.3798 C.3       1 RES1    0.0000
     28 H11       -6.7869   15.4749    8.6443 H         1 RES1    0.0000
     29 H12       -7.2947   14.2526    7.7353 H         1 RES1    0.0000
     30 C12       -5.2106   14.4442    7.7311 C.3       1 RES1    0.0000
     31 H13       -5.1376   13.5827    7.2482 H         1 RES1    0.0000
     32 H14       -5.1117   15.1733    7.0678 H         1 RES1    0.0000
     33 C13       -4.0818   14.5412    8.7482 C.3       1 RES1    0.0000
     34 H15       -4.1678   15.3900    9.2493 H         1 RES1    0.0000
     35 H16       -3.2148   14.5569    8.2710 H         1 RES1    0.0000
     36 C14       -4.0899   13.3710    9.7374 C.3       1 RES1    0.0000
     37 H17       -3.7433   12.5523    9.3007 H         1 RES1    0.0000
     38 H18       -3.5144   13.5774   10.5163 H         1 RES1    0.0000
     39 O3        -2.0849    5.1041   15.7605 O.2       2 RES2    0.0000
     40 N5         1.1893    5.3018   16.9093 N.pl3     2 RES2    0.0000
     41 H19        1.9667    5.6467   17.0304 H         2 RES2    0.0000
     42 C15        0.1167    5.8587   16.3191 C.2       2 RES2    0.0000
     43 O4        -1.6888    6.9422   14.1976 O.3       2 RES2    0.0000
     44 H20       -1.9385    6.0202   14.8766 H         2 RES2    0.0000
     45 N6        -0.8258    4.9125   16.2136 N.pl3     2 RES2    0.0000
     46 C16       -0.3442    3.7268   16.7264 C.2       2 RES2    0.0000
     47 N7        -0.8794    7.6985   15.0111 N.pl3     2 RES2    0.0000
     48 C17        0.9134    3.9842   17.1657 C.2       2 RES2    0.0000
     49 N8         0.6573    8.2566   16.4957 N.2       2 RES2    0.0000
     50 C18       -0.0248    7.2398   15.9514 C.2       2 RES2    0.0000
     51 C19        0.1964    9.3801   15.8560 C.2       2 RES2    0.0000
     52 C20       -0.7641    9.0596   14.9425 C.2       2 RES2    0.0000
     53 C21       -1.0499    2.4205   16.7888 C.3       2 RES2    0.0000
     54 H21       -1.0643    1.9954   15.8952 H         2 RES2    0.0000
     55 H22       -1.9834    2.5504   17.0901 H         2 RES2    0.0000
     56 C22       -0.2927    1.5423   17.7784 C.3       2 RES2    0.0000
     57 H23       -0.6155    0.6099   17.7007 H         2 RES2    0.0000
     58 H24       -0.4801    1.8531   18.6999 H         2 RES2    0.0000
     59 C23        1.2008    1.5749   17.5356 C.3       2 RES2    0.0000
     60 H25        1.3828    1.3255   16.5960 H         2 RES2    0.0000
     61 H26        1.6410    0.9076   18.1198 H         2 RES2    0.0000
     62 C24        1.8004    2.9848   17.8225 C.3       2 RES2    0.0000
     63 H27        1.8396    3.1498   18.7984 H         2 RES2    0.0000
     64 H28        2.7173    3.0480   17.4564 H         2 RES2    0.0000
     65 C25        0.6124   10.7876   16.1299 C.3       2 RES2    0.0000
     66 H29        1.6004   10.8468   16.1645 H         2 RES2    0.0000
     67 H30        0.2528   11.0819   17.0040 H         2 RES2    0.0000
     68 C26        0.0738   11.6865   15.0146 C.3       2 RES2    0.0000
     69 H31        0.1627   12.6333   15.2888 H         2 RES2    0.0000
     70 H32        0.6200   11.5546   14.1994 H         2 RES2    0.0000
     71 C27       -1.3787   11.3944   14.6932 C.3       2 RES2    0.0000
     72 H33       -1.7075   12.0652   14.0426 H         2 RES2    0.0000
     73 H34       -1.9174   11.4828   15.5192 H         2 RES2    0.0000
     74 C28       -1.5778    9.9999   14.1149 C.3       2 RES2    0.0000
     75 H35       -2.5341    9.7472   14.1495 H         2 RES2    0.0000
     76 H36       -1.2783    9.9732   13.1711 H         2 RES2    0.0000
     77 H37       -1.4375    2.1939   15.9063 Du        3 SUP3    0.0000
     78 H38       -1.7813    2.4538   17.4564 Du        3 SUP3    0.0000
     79 C29        0.0219    1.3581   17.2039 Du        3 SUP3    0.0000
     80 H39       -0.4337    0.5171   17.4620 Du        3 SUP3    0.0000
     81 H40        0.6056    1.1623   16.4295 Du        3 SUP3    0.0000
     82 C30        0.8726    1.8439   18.3654 Du        3 SUP3    0.0000
     83 H41        1.4189    1.1009   18.7235 Du        3 SUP3    0.0000
     84 H42        0.2957    2.1887   19.0912 Du        3 SUP3    0.0000
     85 H43        2.3006    3.4045   18.5666 Du        3 SUP3    0.0000
     86 H44        2.4509    2.6196   17.1706 Du        3 SUP3    0.0000
@<TRIPOS>BOND
     1    1    7 1
     2    2    3 1
     3    4    2 1
     4    5    6 1
     5    7    4 2
     6    8    7 1
     7    9    2 1
     8   10    5 1
     9   11   12 2
    10   12    4 1
    11   13   11 1
    12   14   10 1
    13   15    8 1
    14   16   15 1
    15   17   15 1
    16   18   15 1
    17   19   18 1
    18   20   18 1
    19   21   18 1
    20   22   21 1
    21   23   21 1
    22   24    9 1
    23   25   24 1
    24   26   24 1
    25   27   13 1
    26   28   27 1
    27   29   27 1
    28   30   27 1
    29   31   30 1
    30   32   30 1
    31   33   30 1
    32   34   33 1
    33   35   33 1
    34   36   14 1
    35   37   36 1
    36   38   36 1
    37   39   45 1
    38   40   41 1
    39   42   40 1
    40   43   44 1
    41   45   42 2
    42   46   45 1
    43   47   43 1
    44   48   40 1
    45   49   50 2
    46   50   42 1
    47   51   49 1
    48   52   47 1
    49   53   46 1
    50   54   53 1
    51   55   53 1
    52   56   53 1
    53   57   56 1
    54   58   56 1
    55   59   56 1
    56   60   59 1
    57   61   59 1
    58   62   48 1
    59   63   62 1
    60   64   62 1
    61   65   51 1
    62   66   65 1
    63   67   65 1
    64   68   65 1
    65   69   68 1
    66   70   68 1
    67   71   68 1
    68   72   71 1
    69   73   71 1
    70   74   52 1
    71   75   74 1
    72   76   74 1
    73    8    9 2
    74   10   12 1
    75   13   14 2
    76   21   24 1
    77   33   36 1
    78   46   48 2
    79   47   50 1
    80   51   52 2
    81   59   62 1
    82   71   74 1
@<TRIPOS>SUBSTRUCTURE
     1 RES1 1
     2 RES2 39
     3 SUP3 77

@<TRIPOS>CRYSIN
  15.2960   13.0590   15.8401  90.0000 118.8250  90.0000  14 1

