# MOL2 file generated by ConQuest
# Please check atom types

@<TRIPOS>MOLECULE
SOYJEW
    31    31     1
SMALL
NO_CHARGES
****
Generated from CSD

@<TRIPOS>ATOM
      1 O1         9.1964    3.3706    2.5576 O.3       1 RES1    0.0000
      2 O2         8.9427    3.3706    4.7816 O.2       1 RES1    0.0000
      3 O3         4.5721    3.3706    6.6186 O.2       1 RES1    0.0000
      4 O4         2.7398    3.3706    5.4658 O.2       1 RES1    0.0000
      5 N1         3.9834    3.3706    5.5321 N.pl3     1 RES1    0.0000
      6 N2         2.8383    3.3706    2.8250 N.3       1 RES1    0.0000
      7 C1         5.0963    3.3706    1.9235 C.ar      1 RES1    0.0000
      8 H1         4.7668    3.3706    1.0534 H         1 RES1    0.0000
      9 C2         6.4442    3.3706    2.1125 C.ar      1 RES1    0.0000
     10 H2         7.0077    3.3706    1.3733 H         1 RES1    0.0000
     11 C3         7.0029    3.3706    3.4067 C.ar      1 RES1    0.0000
     12 C4         6.1488    3.3706    4.4940 C.ar      1 RES1    0.0000
     13 H3         6.5023    3.3706    5.3544 H         1 RES1    0.0000
     14 C5         4.7667    3.3706    4.3211 C.ar      1 RES1    0.0000
     15 C6         4.1679    3.3706    3.0100 C.ar      1 RES1    0.0000
     16 C7         2.0442    3.3706    1.5583 C.3       1 RES1    0.0000
     17 C8         0.5869    3.3706    2.0341 C.3       1 RES1    0.0000
     18 H4        -0.0026    3.3706    1.2772 H         1 RES1    0.0000
     19 H5         0.4355    2.6028    2.5899 H         1 RES1    0.0000
     20 C9         2.3068    2.0931    0.7481 C.3       1 RES1    0.0000
     21 H6         3.2350    2.0520    0.5065 H         1 RES1    0.0000
     22 H7         1.7698    2.1033   -0.0485 H         1 RES1    0.0000
     23 H8         2.0787    1.3253    1.2772 H         1 RES1    0.0000
     24 C10        8.4642    3.3706    3.6530 C.2       1 RES1    0.0000
     25 H9         2.4217    3.3706    3.5141 H         1 RES1    0.0000
     26 H10        9.9568    3.3706    2.7547 H         1 RES1    0.0000
     27 H5E        0.4355    4.1384    2.5899 H         1 RES1    0.0000
     28 C9E        2.3068    4.6481    0.7481 C.3       1 RES1    0.0000
     29 H6E        3.2350    4.6892    0.5065 H         1 RES1    0.0000
     30 H7E        1.7698    4.6379   -0.0485 H         1 RES1    0.0000
     31 H8E        2.0787    5.4159    1.2772 H         1 RES1    0.0000
@<TRIPOS>BOND
     1    1   24 1
     2    2   24 2
     3    3    5 2
     4    4    5 2
     5    5   14 1
     6    6   15 1
     7    7    8 1
     8    9    7 ar
     9   10    9 1
    10   11    9 ar
    11   12   11 ar
    12   13   12 1
    13   14   12 ar
    14   15    7 ar
    15   16    6 1
    16   17   16 1
    17   18   17 1
    18   19   17 1
    19   20   16 1
    20   21   20 1
    21   22   20 1
    22   23   20 1
    23   24   11 1
    24   25    6 1
    25   26    1 1
    26   27   17 1
    27   28   16 1
    28   29   28 1
    29   30   28 1
    30   31   28 1
    31   14   15 ar
@<TRIPOS>SUBSTRUCTURE
     1 RES1 1

@<TRIPOS>CRYSIN
  20.8125    6.7412    8.0793  90.0000  90.8630  90.0000  12 1

