# MOL2 file generated by ConQuest
# Please check atom types

@<TRIPOS>MOLECULE
SOYKAT
    65    68     1
SMALL
NO_CHARGES
****
Generated from CSD

@<TRIPOS>ATOM
      1 N1         2.6850   -0.4548    3.0274 N.2       1 RES1    0.0000
      2 O1         3.1813   -1.1912    1.9225 O.3       1 RES1    0.0000
      3 O2         0.8108    0.4598    4.4987 O.3       1 RES1    0.0000
      4 H1         1.1291    0.0256    3.8806 H         1 RES1    0.0000
      5 C1         2.1140   -1.9355    1.3503 C.3       1 RES1    0.0000
      6 H2         1.6722   -2.4396    2.0517 H         1 RES1    0.0000
      7 H3         2.4811   -2.5720    0.7160 H         1 RES1    0.0000
      8 C2         1.0901   -1.0876    0.6475 C.3       1 RES1    0.0000
      9 H4         1.5308   -0.5561   -0.0340 H         1 RES1    0.0000
     10 H5         0.6872   -0.4790    1.2866 H         1 RES1    0.0000
     11 C3        -0.0000   -1.9295    0.0000 C.3       1 RES1    0.0000
     12 H6        -0.4004   -2.5012    0.6745 H         1 RES1    0.0000
     13 C4         5.0134    0.2662    3.1800 C.3       1 RES1    0.0000
     14 H7         5.1241   -0.3050    2.4164 H         1 RES1    0.0000
     15 H8         5.5787   -0.0397    3.8938 H         1 RES1    0.0000
     16 H9         5.2545    1.1652    2.9454 H         1 RES1    0.0000
     17 C5         3.5802    0.2329    3.6259 C.2       1 RES1    0.0000
     18 C6         1.8044    1.1319    5.1401 C.ar      1 RES1    0.0000
     19 C7         3.1277    1.0415    4.7606 C.ar      1 RES1    0.0000
     20 C8         4.0719    1.7802    5.5369 C.ar      1 RES1    0.0000
     21 H10        4.9748    1.7218    5.3202 H         1 RES1    0.0000
     22 C9         3.6992    2.5615    6.5758 C.ar      1 RES1    0.0000
     23 H11        4.3440    3.0409    7.0432 H         1 RES1    0.0000
     24 C10        2.3529    2.6601    6.9589 C.ar      1 RES1    0.0000
     25 C11        1.3826    1.9410    6.2331 C.ar      1 RES1    0.0000
     26 C12        0.0367    2.0309    6.6236 C.ar      1 RES1    0.0000
     27 H12       -0.6100    1.5615    6.1496 H         1 RES1    0.0000
     28 C13       -0.3290    2.7861    7.6748 C.ar      1 RES1    0.0000
     29 H13       -1.2230    2.8172    7.9312 H         1 RES1    0.0000
     30 C14        0.6181    3.5235    8.3842 C.ar      1 RES1    0.0000
     31 H14        0.3544    4.0559    9.1006 H         1 RES1    0.0000
     32 C15        1.9243    3.4623    8.0286 C.ar      1 RES1    0.0000
     33 H15        2.5498    3.9614    8.5036 H         1 RES1    0.0000
     34 N1A       -2.6850   -0.4548   -3.0274 N.2       1 RES1    0.0000
     35 O1A       -3.1813   -1.1912   -1.9225 O.3       1 RES1    0.0000
     36 O2A       -0.8108    0.4598   -4.4987 O.3       1 RES1    0.0000
     37 H1A       -1.1291    0.0256   -3.8806 H         1 RES1    0.0000
     38 C1A       -2.1140   -1.9355   -1.3503 C.3       1 RES1    0.0000
     39 H2A       -1.6722   -2.4396   -2.0517 H         1 RES1    0.0000
     40 H3A       -2.4811   -2.5720   -0.7160 H         1 RES1    0.0000
     41 C2A       -1.0901   -1.0876   -0.6475 C.3       1 RES1    0.0000
     42 H4A       -1.5308   -0.5561    0.0340 H         1 RES1    0.0000
     43 H5A       -0.6872   -0.4790   -1.2866 H         1 RES1    0.0000
     44 H6A        0.4004   -2.5012   -0.6745 H         1 RES1    0.0000
     45 C4A       -5.0134    0.2662   -3.1800 C.3       1 RES1    0.0000
     46 H7A       -5.1241   -0.3050   -2.4164 H         1 RES1    0.0000
     47 H8A       -5.5787   -0.0397   -3.8938 H         1 RES1    0.0000
     48 H9A       -5.2545    1.1652   -2.9454 H         1 RES1    0.0000
     49 C5A       -3.5802    0.2329   -3.6259 C.2       1 RES1    0.0000
     50 C6A       -1.8044    1.1319   -5.1401 C.ar      1 RES1    0.0000
     51 C7A       -3.1277    1.0415   -4.7606 C.ar      1 RES1    0.0000
     52 C8A       -4.0719    1.7802   -5.5369 C.ar      1 RES1    0.0000
     53 H10A      -4.9748    1.7218   -5.3202 H         1 RES1    0.0000
     54 C9A       -3.6992    2.5615   -6.5758 C.ar      1 RES1    0.0000
     55 H11A      -4.3440    3.0409   -7.0432 H         1 RES1    0.0000
     56 C10A      -2.3529    2.6601   -6.9589 C.ar      1 RES1    0.0000
     57 C11A      -1.3826    1.9410   -6.2331 C.ar      1 RES1    0.0000
     58 C12A      -0.0367    2.0309   -6.6236 C.ar      1 RES1    0.0000
     59 H12A       0.6100    1.5615   -6.1496 H         1 RES1    0.0000
     60 C13A       0.3290    2.7861   -7.6748 C.ar      1 RES1    0.0000
     61 H13A       1.2230    2.8172   -7.9312 H         1 RES1    0.0000
     62 C14A      -0.6181    3.5235   -8.3842 C.ar      1 RES1    0.0000
     63 H14A      -0.3544    4.0559   -9.1006 H         1 RES1    0.0000
     64 C15A      -1.9243    3.4623   -8.0286 C.ar      1 RES1    0.0000
     65 H15A      -2.5498    3.9614   -8.5036 H         1 RES1    0.0000
@<TRIPOS>BOND
     1    1    2 1
     2    2    5 1
     3    3    4 1
     4    5    6 1
     5    7    5 1
     6    8    5 1
     7    9    8 1
     8   10    8 1
     9   11    8 1
    10   12   11 1
    11   13   14 1
    12   15   13 1
    13   16   13 1
    14   17    1 2
    15   18    3 1
    16   19   17 1
    17   20   19 ar
    18   21   20 1
    19   22   20 ar
    20   23   22 1
    21   24   22 ar
    22   25   18 ar
    23   26   25 ar
    24   27   26 1
    25   28   26 ar
    26   29   28 1
    27   30   28 ar
    28   31   30 1
    29   32   24 ar
    30   33   32 1
    31   34   35 1
    32   35   38 1
    33   36   37 1
    34   38   39 1
    35   40   38 1
    36   41   11 1
    37   42   41 1
    38   43   41 1
    39   44   11 1
    40   45   46 1
    41   47   45 1
    42   48   45 1
    43   49   34 2
    44   50   36 1
    45   51   49 1
    46   52   51 ar
    47   53   52 1
    48   54   52 ar
    49   55   54 1
    50   56   54 ar
    51   57   50 ar
    52   58   57 ar
    53   59   58 1
    54   60   58 ar
    55   61   60 1
    56   62   60 ar
    57   63   62 1
    58   64   56 ar
    59   65   64 1
    60   13   17 1
    61   18   19 ar
    62   24   25 ar
    63   30   32 ar
    64   38   41 1
    65   45   49 1
    66   50   51 ar
    67   56   57 ar
    68   62   64 ar
@<TRIPOS>SUBSTRUCTURE
     1 RES1 1

@<TRIPOS>CRYSIN
  14.0683    4.5659   19.0480  90.0000  97.3210  90.0000   5 1

