# MOL2 file generated by ConQuest
# Please check atom types

@<TRIPOS>MOLECULE
SOYMEZ
    34    34     1
SMALL
NO_CHARGES
****
Generated from CSD

@<TRIPOS>ATOM
      1 N1         3.6128    2.4434   -0.2559 N.pl3     1 RES1    0.0000
      2 O1        -3.2547   10.4457    8.5223 O.3       1 RES1    0.0000
      3 H1        -3.9492   10.5731    8.9606 H         1 RES1    0.0000
      4 O2        -0.0938    4.2177    3.4800 O.3       1 RES1    0.0000
      5 O3         3.6976    1.2415   -0.4641 O.2       1 RES1    0.0000
      6 O4         4.3364    3.2632   -0.8161 O.2       1 RES1    0.0000
      7 C1        -3.3014    9.0658    8.1720 C.3       1 RES1    0.0000
      8 H2        -4.1749    8.8487    7.7597 H         1 RES1    0.0000
      9 H3        -3.1897    8.5061    8.9802 H         1 RES1    0.0000
     10 C2        -2.1804    8.7886    7.1902 C.3       1 RES1    0.0000
     11 H4        -1.3122    8.9331    7.6437 H         1 RES1    0.0000
     12 H5        -2.2409    9.4339    6.4417 H         1 RES1    0.0000
     13 C3        -2.2160    7.3731    6.6261 C.3       1 RES1    0.0000
     14 H6        -2.1466    6.7253    7.3714 H         1 RES1    0.0000
     15 H7        -3.0851    7.2250    6.1759 H         1 RES1    0.0000
     16 C4        -1.0910    7.1126    5.6353 C.3       1 RES1    0.0000
     17 H8        -1.1432    7.7823    4.9088 H         1 RES1    0.0000
     18 H9        -0.2237    7.2365    6.0967 H         1 RES1    0.0000
     19 C5        -1.1257    5.7242    5.0239 C.3       1 RES1    0.0000
     20 H10       -1.0525    5.0460    5.7409 H         1 RES1    0.0000
     21 H11       -1.9908    5.5894    4.5617 H         1 RES1    0.0000
     22 C6         0.0020    5.5399    4.0425 C.3       1 RES1    0.0000
     23 H12       -0.0600    6.2194    3.3239 H         1 RES1    0.0000
     24 H13        0.8719    5.6510    4.5020 H         1 RES1    0.0000
     25 C7         0.8377    3.8608    2.5527 C.ar      1 RES1    0.0000
     26 C8         1.8451    4.6946    2.1116 C.ar      1 RES1    0.0000
     27 H14        1.9162    5.5815    2.4463 H         1 RES1    0.0000
     28 C9         2.7554    4.2209    1.1706 C.ar      1 RES1    0.0000
     29 H15        3.4519    4.7827    0.8516 H         1 RES1    0.0000
     30 C10        2.6364    2.9332    0.7081 C.ar      1 RES1    0.0000
     31 C11        1.6277    2.0835    1.1297 C.ar      1 RES1    0.0000
     32 H16        1.5634    1.1964    0.7963 H         1 RES1    0.0000
     33 C12        0.7170    2.5648    2.0502 C.ar      1 RES1    0.0000
     34 H17        0.0038    2.0094    2.3432 H         1 RES1    0.0000
@<TRIPOS>BOND
     1    1    5 2
     2    2    3 1
     3    4   22 1
     4    6    1 2
     5    7    2 1
     6    8    7 1
     7    9    7 1
     8   10    7 1
     9   11   10 1
    10   12   10 1
    11   13   10 1
    12   14   13 1
    13   15   13 1
    14   16   13 1
    15   17   16 1
    16   18   16 1
    17   19   16 1
    18   20   19 1
    19   21   19 1
    20   22   19 1
    21   23   22 1
    22   24   22 1
    23   25    4 1
    24   26   25 ar
    25   27   26 1
    26   28   26 ar
    27   29   28 1
    28   30    1 1
    29   31   30 ar
    30   32   31 1
    31   33   25 ar
    32   34   33 1
    33   28   30 ar
    34   31   33 ar
@<TRIPOS>SUBSTRUCTURE
     1 RES1 1

@<TRIPOS>CRYSIN
   5.4410   10.2270   11.3333  96.9930 103.8180  99.5160   2 1

