# MOL2 file generated by ConQuest
# Please check atom types

@<TRIPOS>MOLECULE
SOYRUU
    32    33     1
SMALL
NO_CHARGES
****
Generated from CSD

@<TRIPOS>ATOM
      1 O1         0.7378    0.9639    0.7501 O.2       1 RES1    0.0000
      2 O2         2.0624    1.8520    2.0540 O.2       1 RES1    0.0000
      3 O3         1.4821    7.8830    1.2361 O.2       1 RES1    0.0000
      4 O4         2.5052    6.4165    2.5511 O.3       1 RES1    0.0000
      5 N1        -1.1987    2.3054   -0.4625 N.pl3     1 RES1    0.0000
      6 H1        -0.8760    1.5237   -0.3083 H         1 RES1    0.0000
      7 N2         1.1615    1.9182    1.2451 N.pl3     1 RES1    0.0000
      8 C1        -4.7678    2.3019   -2.6410 C.ar      1 RES1    0.0000
      9 H2        -5.5542    2.2840   -3.1373 H         1 RES1    0.0000
     10 C2        -4.6725    3.0851   -1.5106 C.ar      1 RES1    0.0000
     11 H3        -5.3991    3.5968   -1.2368 H         1 RES1    0.0000
     12 C3        -3.4978    3.1096   -0.7874 C.ar      1 RES1    0.0000
     13 H4        -3.4378    3.6327   -0.0214 H         1 RES1    0.0000
     14 C4        -2.4084    2.3559   -1.1967 C.ar      1 RES1    0.0000
     15 C5        -2.5148    1.5679   -2.3395 C.ar      1 RES1    0.0000
     16 H5        -1.7938    1.0578   -2.6327 H         1 RES1    0.0000
     17 C6        -3.6940    1.5548   -3.0191 C.ar      1 RES1    0.0000
     18 H6        -3.7684    1.0153   -3.7727 H         1 RES1    0.0000
     19 C7        -0.4957    3.3515    0.0214 C.ar      1 RES1    0.0000
     20 C8        -0.8298    4.6889   -0.3035 C.ar      1 RES1    0.0000
     21 H7        -1.5495    4.8442   -0.8711 H         1 RES1    0.0000
     22 C9        -0.1435    5.7450    0.1784 C.ar      1 RES1    0.0000
     23 H8        -0.4006    6.6034   -0.0698 H         1 RES1    0.0000
     24 C10        0.9455    5.5815    1.0439 C.ar      1 RES1    0.0000
     25 C11        1.3266    4.3014    1.3564 C.ar      1 RES1    0.0000
     26 H9         2.0535    4.1674    1.9199 H         1 RES1    0.0000
     27 C12        0.6477    3.2011    0.8476 C.ar      1 RES1    0.0000
     28 C13        1.6318    6.7538    1.5811 C.2       1 RES1    0.0000
     29 C14        3.2045    7.4862    3.1429 C.3       1 RES1    0.0000
     30 H10        3.7925    7.1478    3.8218 H         1 RES1    0.0000
     31 H11        2.5797    8.0993    3.5369 H         1 RES1    0.0000
     32 H12        3.7197    7.9423    2.4723 H         1 RES1    0.0000
@<TRIPOS>BOND
     1    1    7 2
     2    2    7 2
     3    3   28 2
     4    4   28 1
     5    5    6 1
     6    7   27 1
     7    8    9 1
     8   10    8 ar
     9   11   10 1
    10   12   10 ar
    11   13   12 1
    12   14    5 1
    13   15   14 ar
    14   16   15 1
    15   17    8 ar
    16   18   17 1
    17   19    5 1
    18   20   19 ar
    19   21   20 1
    20   22   20 ar
    21   23   22 1
    22   24   22 ar
    23   25   24 ar
    24   26   25 1
    25   27   19 ar
    26   28   24 1
    27   29    4 1
    28   30   29 1
    29   31   29 1
    30   32   29 1
    31   12   14 ar
    32   15   17 ar
    33   25   27 ar
@<TRIPOS>SUBSTRUCTURE
     1 RES1 1

@<TRIPOS>CRYSIN
  11.6410   16.3490    7.2490  90.0000 107.5000  90.0000  14 1

