# MOL2 file generated by ConQuest
# Please check atom types

@<TRIPOS>MOLECULE
SOYVEJ
    16    16     1
SMALL
NO_CHARGES
****
Generated from CSD

@<TRIPOS>ATOM
      1 O1         1.8830    1.2017    4.0042 O.3       1 RES1    0.0000
      2 H1         2.3625    0.7213    3.4740 H         1 RES1    0.0000
      3 O2         2.1478    2.3256    5.8710 O.2       1 RES1    0.0000
      4 O3         3.8893    0.0934    2.8810 O.2       1 RES1    0.0000
      5 O4         6.4622   -0.3189    2.7574 O.3       1 RES1    0.0000
      6 H2         5.8130   -0.5006    2.2937 H         1 RES1    0.0000
      7 N1         5.9294    0.4037    3.7998 N.am      1 RES1    0.0000
      8 C1         2.6361    1.6669    4.9855 C.2       1 RES1    0.0000
      9 C2         4.0890    1.3543    4.9108 C.2       1 RES1    0.0000
     10 C3         4.9509    1.8223    5.8797 C.2       1 RES1    0.0000
     11 H3         4.6276    2.3243    6.5686 H         1 RES1    0.0000
     12 C4         6.3179    1.5528    5.7976 C.2       1 RES1    0.0000
     13 H4         6.9229    1.8475    6.3883 H         1 RES1    0.0000
     14 C5         6.7850    0.8358    4.7337 C.2       1 RES1    0.0000
     15 H5         7.6509    0.6144    4.5022 H         1 RES1    0.0000
     16 C6         4.5672    0.5939    3.8113 C.2       1 RES1    0.0000
@<TRIPOS>BOND
     1    1    2 1
     2    3    8 2
     3    4   16 2
     4    5    6 1
     5    7    5 1
     6    8    1 1
     7    9    8 1
     8   10    9 2
     9   11   10 1
    10   12   10 1
    11   13   12 1
    12   14    7 1
    13   15   14 1
    14   16    7 1
    15    9   16 1
    16   12   14 2
@<TRIPOS>SUBSTRUCTURE
     1 RES1 1

@<TRIPOS>CRYSIN
  15.1813    3.8432   10.5335  90.0000  90.0000  90.0000  29 1

