# MOL2 file generated by ConQuest
# Please check atom types

@<TRIPOS>MOLECULE
SOYYEK
    62    64     2
SMALL
NO_CHARGES
****
Generated from CSD

@<TRIPOS>ATOM
      1 O1        -0.3567    1.3531    9.6145 O.3       1 RES1    0.0000
      2 N1        -0.4190    2.1232    5.0601 N.2       1 RES1    0.0000
      3 N2        -2.0092    3.4679    6.0812 N.3       1 RES1    0.0000
      4 N3        -1.0329    2.1013    8.6373 N.2       1 RES1    0.0000
      5 C1        -1.0682    2.5125    6.1744 C.2       1 RES1    0.0000
      6 C2        -0.5547    1.8671    7.3051 C.2       1 RES1    0.0000
      7 C3         1.3549    0.1112    7.5806 C.ar      1 RES1    0.0000
      8 C4         2.2843   -0.5729    6.7706 C.ar      1 RES1    0.0000
      9 C5         2.3146   -0.3404    5.4494 C.ar      1 RES1    0.0000
     10 C6         1.4911    0.4752    4.7970 C.ar      1 RES1    0.0000
     11 C7        -2.3850    4.0510    4.7764 C.3       1 RES1    0.0000
     12 C8        -3.4872    3.3028    4.1158 C.3       1 RES1    0.0000
     13 C9        -2.7590    3.9414    7.2201 C.3       1 RES1    0.0000
     14 C10       -2.0849    5.0772    7.9356 C.3       1 RES1    0.0000
     15 C11        0.5096    0.9656    6.9131 C.ar      1 RES1    0.0000
     16 C12        0.5857    1.1391    5.5617 C.ar      1 RES1    0.0000
     17 H1        -1.2173    1.9379   10.4437 H         1 RES1    0.0000
     18 H2         1.3091   -0.0256    8.6518 H         1 RES1    0.0000
     19 H3         2.9642   -1.2852    7.2119 H         1 RES1    0.0000
     20 H4         3.0715   -0.8557    4.8741 H         1 RES1    0.0000
     21 H5         1.5436    0.6011    3.7253 H         1 RES1    0.0000
     22 H6        -2.7030    5.0727    4.9298 H         1 RES1    0.0000
     23 H7        -1.5215    4.0372    4.1284 H         1 RES1    0.0000
     24 H8        -3.7213    3.7702    3.1709 H         1 RES1    0.0000
     25 H9        -4.3609    3.3191    4.7512 H         1 RES1    0.0000
     26 H10       -3.1795    2.2836    3.9497 H         1 RES1    0.0000
     27 H11       -3.7285    4.2759    6.8776 H         1 RES1    0.0000
     28 H12       -2.8847    3.1235    7.9123 H         1 RES1    0.0000
     29 H13       -2.6938    5.3836    8.7707 H         1 RES1    0.0000
     30 H14       -1.9630    5.9054    7.2529 H         1 RES1    0.0000
     31 H15       -1.1193    4.7532    8.2875 H         1 RES1    0.0000
     32 O2         4.1133    6.0579    2.5602 O.3       2 RES2    0.0000
     33 N4         5.4708    6.6275   -1.8023 N.2       2 RES2    0.0000
     34 N5         7.1155    7.4397   -0.3056 N.3       2 RES2    0.0000
     35 N6         5.2185    6.5736    1.8886 N.2       2 RES2    0.0000
     36 C13        5.9040    6.8819   -0.5770 C.2       2 RES2    0.0000
     37 C14        4.9992    6.4927    0.4687 C.2       2 RES2    0.0000
     38 C15        2.6619    5.3906    0.1494 C.ar      2 RES2    0.0000
     39 C16        1.7924    4.9626   -0.8511 C.ar      2 RES2    0.0000
     40 C17        2.1238    5.0823   -2.1614 C.ar      2 RES2    0.0000
     41 C18        3.3326    5.6063   -2.5725 C.ar      2 RES2    0.0000
     42 C19        7.6823    7.7515    0.9813 C.3       2 RES2    0.0000
     43 C20        8.4210    6.5753    1.5857 C.3       2 RES2    0.0000
     44 C21        7.9049    8.0851   -1.5611 C.3       2 RES2    0.0000
     45 C22        8.7179    7.0639   -1.9366 C.3       2 RES2    0.0000
     46 C23        3.8495    5.9484   -0.2590 C.ar      2 RES2    0.0000
     47 C24        4.2066    6.0293   -1.5899 C.ar      2 RES2    0.0000
     48 H16        4.6856    6.4539    3.6457 H         2 RES2    0.0000
     49 H17        2.4142    5.2740    1.1950 H         2 RES2    0.0000
     50 H18        0.8360    4.5442   -0.5807 H         2 RES2    0.0000
     51 H19        1.4159    4.7489   -2.9070 H         2 RES2    0.0000
     52 H20        3.5869    5.6827   -3.6201 H         2 RES2    0.0000
     53 H21        6.8835    8.0482    1.6467 H         2 RES2    0.0000
     54 H22        8.3718    8.5778    0.8626 H         2 RES2    0.0000
     55 H23        8.8250    6.8580    2.5443 H         2 RES2    0.0000
     56 H24        7.7358    5.7492    1.7111 H         2 RES2    0.0000
     57 H25        9.2241    6.2789    0.9270 H         2 RES2    0.0000
     58 H26        7.2134    8.3488   -2.3454 H         2 RES2    0.0000
     59 H27        8.4614    8.9521   -1.2549 H         2 RES2    0.0000
     60 H28        9.3093    7.3853   -2.7846 H         2 RES2    0.0000
     61 H29        9.3776    6.8107   -1.1188 H         2 RES2    0.0000
     62 H30        8.1296    6.2074   -2.2092 H         2 RES2    0.0000
@<TRIPOS>BOND
     1    1    4 1
     2    2    5 2
     3    3    5 1
     4    4    6 2
     5    5    6 1
     6    6   15 1
     7    7    8 ar
     8    8    9 ar
     9    9   10 ar
    10   10   16 ar
    11   11    3 1
    12   12   11 1
    13   13    3 1
    14   14   13 1
    15   15    7 ar
    16   16    2 1
    17   17    1 1
    18   18    7 1
    19   19    8 1
    20   20    9 1
    21   21   10 1
    22   22   11 1
    23   23   11 1
    24   24   12 1
    25   25   12 1
    26   26   12 1
    27   27   13 1
    28   28   13 1
    29   29   14 1
    30   30   14 1
    31   31   14 1
    32   32   35 1
    33   33   36 2
    34   34   36 1
    35   35   37 2
    36   36   37 1
    37   37   46 1
    38   38   39 ar
    39   39   40 ar
    40   40   41 ar
    41   41   47 ar
    42   42   34 1
    43   43   42 1
    44   44   34 1
    45   45   44 1
    46   46   38 ar
    47   47   33 1
    48   48   32 1
    49   49   38 1
    50   50   39 1
    51   51   40 1
    52   52   41 1
    53   53   42 1
    54   54   42 1
    55   55   43 1
    56   56   43 1
    57   57   43 1
    58   58   44 1
    59   59   44 1
    60   60   45 1
    61   61   45 1
    62   62   45 1
    63   15   16 ar
    64   46   47 ar
@<TRIPOS>SUBSTRUCTURE
     1 RES1 1
     2 RES2 32

@<TRIPOS>CRYSIN
   9.9230   16.8510   13.8310  90.0000  97.7200  90.0000  14 2

