# MOL2 file generated by ConQuest
# Please check atom types

@<TRIPOS>MOLECULE
SOZVOU
   111   120     3
SMALL
NO_CHARGES
****
Generated from CSD

@<TRIPOS>ATOM
      1 O1         8.4478   11.5833    7.3552 O.2       1 RES1    0.0000
      2 O2        10.6108    3.8884    2.0842 O.2       1 RES1    0.0000
      3 O3        10.9816    5.3294    0.5527 O.2       1 RES1    0.0000
      4 N1         5.6203    7.8310    4.7078 N.2       1 RES1    0.0000
      5 N2         5.6190    9.1690    2.7049 N.3       1 RES1    0.0000
      6 H1         5.3620    9.3095    1.8821 H         1 RES1    0.0000
      7 N3        10.3509    4.9188    1.5018 N.pl3     1 RES1    0.0000
      8 C1         6.1963    8.8234    5.3002 C.2       1 RES1    0.0000
      9 C2         6.2937    8.8115    6.7531 C.2       1 RES1    0.0000
     10 H2         5.8448    8.1556    7.2364 H         1 RES1    0.0000
     11 C3         7.0215    9.7318    7.4010 C.2       1 RES1    0.0000
     12 H3         7.0719    9.6831    8.3272 H         1 RES1    0.0000
     13 C4         7.7358   10.8034    6.7251 C.2       1 RES1    0.0000
     14 C5         7.5191   10.9396    5.2630 C.ar      1 RES1    0.0000
     15 C6         7.9799   12.0377    4.5495 C.ar      1 RES1    0.0000
     16 H4         8.4994   12.6833    4.9720 H         1 RES1    0.0000
     17 C7         7.6675   12.1684    3.2169 C.ar      1 RES1    0.0000
     18 H5         7.9944   12.8994    2.7417 H         1 RES1    0.0000
     19 C8         6.8850   11.2470    2.5732 C.ar      1 RES1    0.0000
     20 H6         6.6568   11.3694    1.6801 H         1 RES1    0.0000
     21 C9         6.4322   10.1258    3.2603 C.ar      1 RES1    0.0000
     22 C10        6.7661    9.9603    4.6085 C.ar      1 RES1    0.0000
     23 C11        5.6838    7.8184    3.2313 C.3       1 RES1    0.0000
     24 C12        4.4955    7.0251    2.6971 C.3       1 RES1    0.0000
     25 H7         3.6796    7.4608    2.9511 H         1 RES1    0.0000
     26 H8         4.5121    6.1382    3.0631 H         1 RES1    0.0000
     27 H9         4.5471    6.9770    1.7409 H         1 RES1    0.0000
     28 C13        6.9840    7.1005    2.8184 C.ar      1 RES1    0.0000
     29 C14        7.4158    5.9839    3.5035 C.ar      1 RES1    0.0000
     30 H10        6.9513    5.7036    4.2586 H         1 RES1    0.0000
     31 C15        8.5262    5.2761    3.0884 C.ar      1 RES1    0.0000
     32 H11        8.8116    4.5256    3.5573 H         1 RES1    0.0000
     33 C16        9.1981    5.6980    1.9761 C.ar      1 RES1    0.0000
     34 C17        8.8111    6.8068    1.2788 C.ar      1 RES1    0.0000
     35 H12        9.2864    7.0859    0.5284 H         1 RES1    0.0000
     36 C18        7.6998    7.5068    1.7098 C.ar      1 RES1    0.0000
     37 H13        7.4291    8.2649    1.2442 H         1 RES1    0.0000
     38 O4         2.9514    0.9369    0.0078 O.2       2 RES2    0.0000
     39 O5        -0.4639    6.0256    6.9888 O.2       2 RES2    0.0000
     40 O6         0.9156    7.6381    6.7446 O.2       2 RES2    0.0000
     41 N4         4.5516    1.3708    5.7132 N.3       2 RES2    0.0000
     42 H14        4.6009    0.9990    6.4524 H         2 RES2    0.0000
     43 N5         5.3779    3.1376    4.2627 N.2       2 RES2    0.0000
     44 N6         0.6511    6.4503    6.7648 N.pl3     2 RES2    0.0000
     45 C19        3.9217    0.7339    4.6844 C.ar      2 RES2    0.0000
     46 C20        3.2275   -0.4704    4.8249 C.ar      2 RES2    0.0000
     47 H15        3.1750   -0.8810    5.6586 H         2 RES2    0.0000
     48 C21        2.6204   -1.0500    3.7331 C.ar      2 RES2    0.0000
     49 H16        2.1504   -1.8442    3.8398 H         2 RES2    0.0000
     50 C22        2.6982   -0.4689    2.4780 C.ar      2 RES2    0.0000
     51 H17        2.2711   -0.8634    1.7507 H         2 RES2    0.0000
     52 C23        3.4163    0.7038    2.3136 C.ar      2 RES2    0.0000
     53 C24        3.5952    1.3150    0.9791 C.2       2 RES2    0.0000
     54 C25        4.5866    2.3838    0.8583 C.2       2 RES2    0.0000
     55 H18        4.8054    2.6987    0.0097 H         2 RES2    0.0000
     56 C26        5.1888    2.9267    1.9228 C.2       2 RES2    0.0000
     57 H19        5.8192    3.5989    1.7969 H         2 RES2    0.0000
     58 C27        4.8754    2.4809    3.2756 C.2       2 RES2    0.0000
     59 C28        4.0221    1.3108    3.4117 C.ar      2 RES2    0.0000
     60 C29        4.9228    2.7682    5.6192 C.3       2 RES2    0.0000
     61 C30        6.0662    3.0155    6.5968 C.3       2 RES2    0.0000
     62 H20        6.7875    2.4114    6.4061 H         2 RES2    0.0000
     63 H21        5.7575    2.8701    7.4945 H         2 RES2    0.0000
     64 H22        6.3750    3.9195    6.5060 H         2 RES2    0.0000
     65 C31        3.7596    3.7275    5.9272 C.ar      2 RES2    0.0000
     66 C32        2.5024    3.2745    6.2644 C.ar      2 RES2    0.0000
     67 H23        2.3428    2.3589    6.3087 H         2 RES2    0.0000
     68 C33        1.4759    4.1567    6.5369 C.ar      2 RES2    0.0000
     69 H24        0.6305    3.8420    6.7641 H         2 RES2    0.0000
     70 C34        1.7217    5.5040    6.4692 C.ar      2 RES2    0.0000
     71 C35        2.9700    5.9908    6.1315 C.ar      2 RES2    0.0000
     72 H25        3.1238    6.9075    6.0823 H         2 RES2    0.0000
     73 C36        3.9771    5.0986    5.8705 C.ar      2 RES2    0.0000
     74 H26        4.8224    5.4166    5.6513 H         2 RES2    0.0000
     75 O7         4.1729   11.1472    8.3509 O.2       3 RES3    0.0000
     76 O8         9.0391    4.6884   15.0445 O.2       3 RES3    0.0000
     77 O9         8.0141    3.1305   14.0577 O.2       3 RES3    0.0000
     78 N7         3.9049    9.2298   13.9264 N.3       3 RES3    0.0000
     79 H27        4.2275    9.4668   14.7139 H         3 RES3    0.0000
     80 N8         3.0666    7.6452   12.2644 N.2       3 RES3    0.0000
     81 N9         8.0971    4.2778   14.4124 N.pl3     3 RES3    0.0000
     82 C37        4.4139   10.0414   12.9610 C.ar      3 RES3    0.0000
     83 C38        5.1795   11.2006   13.2150 C.ar      3 RES3    0.0000
     84 H28        5.3986   11.4401   14.0857 H         3 RES3    0.0000
     85 C39        5.6015   11.9773   12.1402 C.ar      3 RES3    0.0000
     86 H29        6.1530   12.7080   12.3034 H         3 RES3    0.0000
     87 C40        5.2373   11.7043   10.8719 C.ar      3 RES3    0.0000
     88 H30        5.5150   12.2542   10.1753 H         3 RES3    0.0000
     89 C41        4.4547   10.6083   10.6204 C.ar      3 RES3    0.0000
     90 C42        3.9417   10.3610    9.2756 C.2       3 RES3    0.0000
     91 C43        3.1362    9.2005    9.0553 C.2       3 RES3    0.0000
     92 H31        2.8025    9.0392    8.2031 H         3 RES3    0.0000
     93 C44        2.8504    8.3506   10.0270 C.2       3 RES3    0.0000
     94 H32        2.3309    7.6039    9.8344 H         3 RES3    0.0000
     95 C45        3.3254    8.5487   11.3862 C.2       3 RES3    0.0000
     96 C46        4.0848    9.7415   11.6569 C.ar      3 RES3    0.0000
     97 C47        3.6110    7.8291   13.6306 C.3       3 RES3    0.0000
     98 C48        2.5401    7.3073   14.5982 C.3       3 RES3    0.0000
     99 H33        1.7629    7.8677   14.5483 H         3 RES3    0.0000
    100 H34        2.8854    7.3178   15.4930 H         3 RES3    0.0000
    101 H35        2.3031    6.4084   14.3584 H         3 RES3    0.0000
    102 C49        4.8541    6.9076   13.7302 C.ar      3 RES3    0.0000
    103 C50        5.9876    7.3299   14.3793 C.ar      3 RES3    0.0000
    104 H36        6.0368    8.2053   14.6871 H         3 RES3    0.0000
    105 C51        7.0539    6.4794   14.5819 C.ar      3 RES3    0.0000
    106 H37        7.8141    6.7794   15.0255 H         3 RES3    0.0000
    107 C52        6.9868    5.2011   14.1273 C.ar      3 RES3    0.0000
    108 C53        5.8866    4.7529   13.4407 C.ar      3 RES3    0.0000
    109 H38        5.8544    3.8842   13.1117 H         3 RES3    0.0000
    110 C54        4.8316    5.6164   13.2493 C.ar      3 RES3    0.0000
    111 H39        4.0834    5.3199   12.7830 H         3 RES3    0.0000
@<TRIPOS>BOND
     1    1   13 2
     2    2    7 2
     3    3    7 2
     4    4    8 2
     5    5    6 1
     6    7   33 1
     7    8    9 1
     8    9   10 1
     9   11    9 2
    10   12   11 1
    11   13   11 1
    12   14   13 1
    13   15   14 ar
    14   16   15 1
    15   17   15 ar
    16   18   17 1
    17   19   17 ar
    18   20   19 1
    19   21    5 1
    20   22    8 1
    21   23    4 1
    22   24   23 1
    23   25   24 1
    24   26   24 1
    25   27   24 1
    26   28   23 1
    27   29   28 ar
    28   30   29 1
    29   31   29 ar
    30   32   31 1
    31   33   31 ar
    32   34   33 ar
    33   35   34 1
    34   36   28 ar
    35   37   36 1
    36   38   53 2
    37   39   44 2
    38   40   44 2
    39   41   42 1
    40   43   58 2
    41   44   70 1
    42   45   41 1
    43   46   45 ar
    44   47   46 1
    45   48   46 ar
    46   49   48 1
    47   50   48 ar
    48   51   50 1
    49   52   50 ar
    50   53   52 1
    51   54   53 1
    52   55   54 1
    53   56   54 2
    54   57   56 1
    55   58   56 1
    56   59   45 ar
    57   60   41 1
    58   61   60 1
    59   62   61 1
    60   63   61 1
    61   64   61 1
    62   65   60 1
    63   66   65 ar
    64   67   66 1
    65   68   66 ar
    66   69   68 1
    67   70   68 ar
    68   71   70 ar
    69   72   71 1
    70   73   65 ar
    71   74   73 1
    72   75   90 2
    73   76   81 2
    74   77   81 2
    75   78   79 1
    76   80   95 2
    77   81  107 1
    78   82   78 1
    79   83   82 ar
    80   84   83 1
    81   85   83 ar
    82   86   85 1
    83   87   85 ar
    84   88   87 1
    85   89   87 ar
    86   90   89 1
    87   91   90 1
    88   92   91 1
    89   93   91 2
    90   94   93 1
    91   95   93 1
    92   96   82 ar
    93   97   78 1
    94   98   97 1
    95   99   98 1
    96  100   98 1
    97  101   98 1
    98  102   97 1
    99  103  102 ar
   100  104  103 1
   101  105  103 ar
   102  106  105 1
   103  107  105 ar
   104  108  107 ar
   105  109  108 1
   106  110  102 ar
   107  111  110 1
   108    5   23 1
   109   14   22 ar
   110   19   21 ar
   111   21   22 ar
   112   34   36 ar
   113   43   60 1
   114   52   59 ar
   115   58   59 1
   116   71   73 ar
   117   80   97 1
   118   89   96 ar
   119   95   96 1
   120  108  110 ar
@<TRIPOS>SUBSTRUCTURE
     1 RES1 1
     2 RES2 38
     3 RES3 75

@<TRIPOS>CRYSIN
   8.6481   10.9158   24.4404  90.2090  94.9400  93.5110   2 1

