# MOL2 file generated by ConQuest
# Please check atom types

@<TRIPOS>MOLECULE
SOZXOW
    82    55     2
SMALL
NO_CHARGES
****
Generated from CSD

@<TRIPOS>ATOM
      1 C1         3.0420    2.5726    0.0820 C.ar      1 RES1    0.0000
      2 C2         2.8458    3.6005    0.9487 C.ar      1 RES1    0.0000
      3 H1         3.4423    4.3140    0.9757 H         1 RES1    0.0000
      4 C3         1.7517    3.5748    1.7880 C.ar      1 RES1    0.0000
      5 H2         1.6291    4.2580    2.4069 H         1 RES1    0.0000
      6 C4         0.8361    2.5421    1.7190 C.ar      1 RES1    0.0000
      7 C5         1.0622    1.5186    0.8062 C.ar      1 RES1    0.0000
      8 H3         0.4504    0.8212    0.7421 H         1 RES1    0.0000
      9 C6         2.1669    1.5157    0.0022 C.ar      1 RES1    0.0000
     10 H4         2.3228    0.8133   -0.5864 H         1 RES1    0.0000
     11 C7        -0.3665    2.4393    2.5923 C.2       1 RES1    0.0000
     12 C8        -0.4320    3.1857    3.9193 C.3       1 RES1    0.0000
     13 H5         0.2604    3.8769    3.9707 H         1 RES1    0.0000
     14 C9        -1.8254    3.7709    4.2220 C.3       1 RES1    0.0000
     15 H6        -2.4741    3.3762    3.6029 H         1 RES1    0.0000
     16 C10       -2.1618    3.3088    5.6520 C.2       1 RES1    0.0000
     17 C11       -1.9006    5.2682    4.1105 C.2       1 RES1    0.0000
     18 C12       -3.2757    7.1299    3.9972 C.3       1 RES1    0.0000
     19 H7        -3.1504    7.4089    4.9165 H         1 RES1    0.0000
     20 H8        -2.6322    7.5932    3.4373 H         1 RES1    0.0000
     21 C13       -4.6427    7.3962    3.5499 C.3       1 RES1    0.0000
     22 H9        -4.7846    6.9904    2.6918 H         1 RES1    0.0000
     23 H10       -4.7779    8.3441    3.4820 H         1 RES1    0.0000
     24 H11       -5.2638    7.0297    4.1844 H         1 RES1    0.0000
     25 N1         4.2235    2.5662   -0.7857 N.pl3     1 RES1    0.0000
     26 O1         4.7767    3.6314   -0.9921 O.2       1 RES1    0.0000
     27 O2         4.5830    1.5244   -1.2830 O.2       1 RES1    0.0000
     28 O3        -1.3000    1.7361    2.2544 O.2       1 RES1    0.0000
     29 O4        -0.9688    6.0028    4.2672 O.2       1 RES1    0.0000
     30 O5        -3.1286    5.6674    3.8666 O.3       1 RES1    0.0000
     31 O6        -3.1107    3.6921    6.2920 O.2       1 RES1    0.0000
     32 C14       -1.1869    2.3683    6.1242 C.ar      1 RES1    0.0000
     33 C15       -0.2957    2.1587    5.0938 C.ar      1 RES1    0.0000
     34 C16        0.7145    1.1898    5.2396 C.ar      1 RES1    0.0000
     35 O7         1.4961    1.0309    4.1463 O.3       1 RES1    0.0000
     36 C17        2.7956    0.4722    4.1628 C.3       1 RES1    0.0000
     37 H12        3.2460    0.7356    4.9679 H         1 RES1    0.0000
     38 H13        3.2890    0.7872    3.4025 H         1 RES1    0.0000
     39 H14        2.7324   -0.4851    4.1297 H         1 RES1    0.0000
     40 C18        0.7702    0.4670    6.4140 C.ar      1 RES1    0.0000
     41 O8         1.6858   -0.5353    6.5449 O.3       1 RES1    0.0000
     42 C19        2.7411   -0.3369    7.5488 C.3       1 RES1    0.0000
     43 H15        2.8871    0.6036    7.6730 H         1 RES1    0.0000
     44 H16        3.5500   -0.7509    7.2473 H         1 RES1    0.0000
     45 H17        2.4672   -0.7322    8.3803 H         1 RES1    0.0000
     46 C20       -0.1770    0.6912    7.4295 C.ar      1 RES1    0.0000
     47 O9        -0.0135   -0.1293    8.5095 O.3       1 RES1    0.0000
     48 C21       -0.9291   -0.0225    9.5929 C.3       1 RES1    0.0000
     49 H18       -0.9365    0.8855    9.9143 H         1 RES1    0.0000
     50 H19       -0.6566   -0.6065   10.3019 H         1 RES1    0.0000
     51 H20       -1.8077   -0.2616    9.2964 H         1 RES1    0.0000
     52 C22       -1.1811    1.6048    7.2953 C.ar      1 RES1    0.0000
     53 H21       -1.8290    1.7222    7.9529 H         1 RES1    0.0000
     54 C23       -3.4390    7.0490    3.4389 Du        2 SUP2    0.0000
     55 H22       -3.9106    7.0510    2.5908 Du        2 SUP2    0.0000
     56 H23       -2.6280    7.5733    3.3495 Du        2 SUP2    0.0000
     57 C24       -4.3082    7.5901    4.5339 Du        2 SUP2    0.0000
     58 H24       -5.1439    7.1180    4.5422 Du        2 SUP2    0.0000
     59 H25       -4.4700    8.5245    4.3815 Du        2 SUP2    0.0000
     60 H26       -3.8670    7.4755    5.3787 Du        2 SUP2    0.0000
     61 C25       -1.0762    2.3530    5.9933 Du        2 SUP2    0.0000
     62 C26       -0.0274    2.3891    5.0938 Du        2 SUP2    0.0000
     63 C27        1.1531    1.7157    5.3356 Du        2 SUP2    0.0000
     64 O10        2.1411    1.8072    4.4163 Du        2 SUP2    0.0000
     65 C28        2.8340    0.5854    4.0535 Du        2 SUP2    0.0000
     66 H27        3.7155    0.5910    4.4378 Du        2 SUP2    0.0000
     67 H28        2.9053    0.5297    3.0977 Du        2 SUP2    0.0000
     68 H29        2.3468   -0.1713    4.3832 Du        2 SUP2    0.0000
     69 C29        1.2861    1.0460    6.5466 Du        2 SUP2    0.0000
     70 O11        2.5507    0.5764    6.8547 Du        2 SUP2    0.0000
     71 C30        2.6321   -0.7762    7.2688 Du        2 SUP2    0.0000
     72 H30        2.5615   -0.8223    8.2263 Du        2 SUP2    0.0000
     73 H31        3.4776   -1.1421    6.9938 Du        2 SUP2    0.0000
     74 H32        1.9209   -1.2779    6.8696 Du        2 SUP2    0.0000
     75 C31        0.2219    1.0340    7.4924 Du        2 SUP2    0.0000
     76 O12        0.4694    0.3270    8.6387 Du        2 SUP2    0.0000
     77 C32       -0.6042    0.2640    9.5896 Du        2 SUP2    0.0000
     78 H33       -0.8468    1.1555    9.8596 Du        2 SUP2    0.0000
     79 H34       -0.3267   -0.2363   10.3582 Du        2 SUP2    0.0000
     80 H35       -1.3661   -0.1622    9.1871 Du        2 SUP2    0.0000
     81 C33       -0.9383    1.7194    7.2390 Du        2 SUP2    0.0000
     82 H36       -1.6178    1.7625    7.8834 Du        2 SUP2    0.0000
@<TRIPOS>BOND
     1    1    2 ar
     2    2    3 1
     3    4    2 ar
     4    5    4 1
     5    6    4 ar
     6    7    6 ar
     7    8    7 1
     8    9    1 ar
     9   10    9 1
    10   11    6 1
    11   12   11 1
    12   13   12 1
    13   14   12 1
    14   15   14 1
    15   16   14 1
    16   17   14 1
    17   18   19 1
    18   20   18 1
    19   21   18 1
    20   22   21 1
    21   23   21 1
    22   24   21 1
    23   25    1 1
    24   26   25 2
    25   27   25 2
    26   28   11 2
    27   29   17 2
    28   30   17 1
    29   31   16 2
    30   32   16 1
    31   33   12 1
    32   34   33 ar
    33   35   34 1
    34   36   35 1
    35   37   36 1
    36   38   36 1
    37   39   36 1
    38   40   34 ar
    39   41   40 1
    40   42   41 1
    41   43   42 1
    42   44   42 1
    43   45   42 1
    44   46   40 ar
    45   47   46 1
    46   48   47 1
    47   49   48 1
    48   50   48 1
    49   51   48 1
    50   52   32 ar
    51   53   52 1
    52    7    9 ar
    53   18   30 1
    54   32   33 ar
    55   46   52 ar
@<TRIPOS>SUBSTRUCTURE
     1 RES1 1
     2 SUP2 54

@<TRIPOS>CRYSIN
   6.8668    9.7820   17.3230  98.5600 100.8040 109.5660   2 1

