# MOL2 file generated by ConQuest
# Please check atom types

@<TRIPOS>MOLECULE
SPHMXO
    31    32     1
SMALL
NO_CHARGES
****
Generated from CSD

@<TRIPOS>ATOM
      1 C1         2.9680    2.4918    1.6992 C.3       1 RES1    0.0000
      2 C2         3.6366    1.2538    2.2448 C.3       1 RES1    0.0000
      3 C3         3.6183    1.2499    3.7736 C.3       1 RES1    0.0000
      4 C4         4.2381    2.4918    4.3350 C.3       1 RES1    0.0000
      5 C5         6.3455    2.4918    5.2154 C.3       1 RES1    0.0000
      6 C6         5.4837    2.4918    6.4507 C.3       1 RES1    0.0000
      7 C7         5.6267    1.2329    7.2906 C.3       1 RES1    0.0000
      8 H1         2.9460    2.4918    0.7029 H         1 RES1    0.0000
      9 H2         2.0047    2.4918    2.0559 H         1 RES1    0.0000
     10 H3         3.2027    0.3787    1.9153 H         1 RES1    0.0000
     11 H4         4.6084    1.3256    1.9066 H         1 RES1    0.0000
     12 H5         4.1195    0.4585    4.1206 H         1 RES1    0.0000
     13 H6         2.5793    1.2658    4.1031 H         1 RES1    0.0000
     14 H7         7.1633    1.7044    5.2189 H         1 RES1    0.0000
     15 H8         6.7110    1.1263    7.7141 H         1 RES1    0.0000
     16 H9         4.9263    1.2658    7.9865 H         1 RES1    0.0000
     17 H10        5.6842    0.3488    6.5631 H         1 RES1    0.0000
     18 N1         4.1574    2.4918    5.8023 N.3       1 RES1    0.0000
     19 O1         3.0682    2.4918    6.4349 O.2       1 RES1    0.0000
     20 O2         5.6145    2.4918    4.1127 O.3       1 RES1    0.0000
     21 C2B        3.6366    3.7297    2.2448 C.3       1 RES1    0.0000
     22 C3B        3.6183    3.7336    3.7736 C.3       1 RES1    0.0000
     23 C7B        5.6267    3.7506    7.2906 C.3       1 RES1    0.0000
     24 H7B        7.1633    3.2791    5.2189 H         1 RES1    0.0000
     25 H3B        3.2027    4.6048    1.9153 H         1 RES1    0.0000
     26 H4B        4.6084    3.6579    1.9066 H         1 RES1    0.0000
     27 H5B        4.1195    4.5250    4.1206 H         1 RES1    0.0000
     28 H6B        2.5793    3.7177    4.1031 H         1 RES1    0.0000
     29 H8B        6.7110    3.8572    7.7141 H         1 RES1    0.0000
     30 H9B        4.9263    3.7177    7.9865 H         1 RES1    0.0000
     31 H10B       5.6842    4.6347    6.5631 H         1 RES1    0.0000
@<TRIPOS>BOND
     1    1    2 1
     2    2    3 1
     3    3    4 1
     4    4   18 1
     5    5    6 1
     6    6    7 1
     7    7   15 1
     8    8    1 1
     9    9    1 1
    10   10    2 1
    11   11    2 1
    12   12    3 1
    13   13    3 1
    14   14    5 1
    15   16    7 1
    16   17    7 1
    17   18    6 1
    18   19   18 1
    19   20    4 1
    20   21    1 1
    21   22    4 1
    22   23    6 1
    23   24    5 1
    24   25   21 1
    25   26   21 1
    26   27   22 1
    27   28   22 1
    28   29   23 1
    29   30   23 1
    30   31   23 1
    31    5   20 1
    32   21   22 1
@<TRIPOS>SUBSTRUCTURE
     1 RES1 1

@<TRIPOS>CRYSIN
  12.2240    9.9670    8.7860  90.0000  90.0000  90.0000  62 1

