# MOL2 file generated by ConQuest
# Please check atom types

@<TRIPOS>MOLECULE
SUBWIV
    21    21     1
SMALL
NO_CHARGES
****
Generated from CSD

@<TRIPOS>ATOM
      1 C1         1.7629    3.7565    8.9412 C.ar      1 RES1    0.0000
      2 C2         2.2784    5.0251    9.1575 C.ar      1 RES1    0.0000
      3 C3         1.5733    5.9087    9.9427 C.ar      1 RES1    0.0000
      4 C4         0.3741    5.4997   10.4983 C.ar      1 RES1    0.0000
      5 C5        -0.1414    4.2410   10.2968 C.ar      1 RES1    0.0000
      6 C6         0.5558    3.3606    9.5057 C.ar      1 RES1    0.0000
      7 C7         5.4683    2.6225    6.3203 C.1       1 RES1    0.0000
      8 C8         3.7095    0.9317    6.5855 C.1       1 RES1    0.0000
      9 C9         4.2002    2.2408    6.8670 C.2       1 RES1    0.0000
     10 N1         2.4391    2.8193    8.1456 N.3       1 RES1    0.0000
     11 N2         3.5837    3.1211    7.6034 N.2       1 RES1    0.0000
     12 N3         6.4782    2.9035    5.8848 N.1       1 RES1    0.0000
     13 N4         3.2643   -0.0962    6.4063 N.1       1 RES1    0.0000
     14 N5        -0.3615    6.4588   11.3310 N.pl3     1 RES1    0.0000
     15 O1        -0.0146    7.6268   11.3162 O.2       1 RES1    0.0000
     16 O2        -1.2927    6.0378   11.9888 O.2       1 RES1    0.0000
     17 H1         2.0633    2.0625    8.0301 H         1 RES1    0.0000
     18 H2         3.0870    5.2602    8.8005 H         1 RES1    0.0000
     19 H3         1.9519    6.7366   10.1339 H         1 RES1    0.0000
     20 H4        -0.9431    3.9698   10.6524 H         1 RES1    0.0000
     21 H5         0.2418    2.5262    9.3635 H         1 RES1    0.0000
@<TRIPOS>BOND
     1    1    2 ar
     2    2    3 ar
     3    3    4 ar
     4    4    5 ar
     5    5    6 ar
     6    6    1 ar
     7    7    9 1
     8    8    9 1
     9    9   11 2
    10   10    1 1
    11   11   10 1
    12   12    7 3
    13   13    8 3
    14   14    4 1
    15   15   14 2
    16   16   14 2
    17   17   10 1
    18   18    2 1
    19   19    3 1
    20   20    5 1
    21   21    6 1
@<TRIPOS>SUBSTRUCTURE
     1 RES1 1

@<TRIPOS>CRYSIN
   6.1500   10.9360   14.9350  90.0000  97.2500  90.0000  14 1

