# MOL2 file generated by ConQuest
# Please check atom types

@<TRIPOS>MOLECULE
SUCSIS
    25    26     1
SMALL
NO_CHARGES
****
Generated from CSD

@<TRIPOS>ATOM
      1 C1         3.5195    2.2047    4.9727 C.ar      1 RES1    0.0000
      2 C2         4.5158    2.6518    4.1002 C.ar      1 RES1    0.0000
      3 C3         4.3887    2.6189    2.7253 C.ar      1 RES1    0.0000
      4 C4         3.2476    2.1001    2.1641 C.ar      1 RES1    0.0000
      5 C5         2.2546    1.5988    2.9802 C.ar      1 RES1    0.0000
      6 C6         2.3755    1.6414    4.3673 C.ar      1 RES1    0.0000
      7 C7         3.5735    2.5163    6.4407 C.ar      1 RES1    0.0000
      8 C8         3.9589    1.6472    7.4602 C.ar      1 RES1    0.0000
      9 C9         4.0071    2.0382    8.7788 C.ar      1 RES1    0.0000
     10 C10        3.6808    3.3351    9.0753 C.ar      1 RES1    0.0000
     11 C11        3.2790    4.2274    8.1158 C.ar      1 RES1    0.0000
     12 C12        3.2175    3.8073    6.8071 C.ar      1 RES1    0.0000
     13 C13        1.3069    1.0065    5.1724 C.2       1 RES1    0.0000
     14 N1         5.7834    3.1918    4.6467 N.pl3     1 RES1    0.0000
     15 N2         4.3136    0.2458    7.1539 N.pl3     1 RES1    0.0000
     16 N3         3.7565    3.7783   10.4808 N.pl3     1 RES1    0.0000
     17 O1         1.3523    0.9465    6.3954 O.2       1 RES1    0.0000
     18 O2         0.3567    0.4626    4.5095 O.3       1 RES1    0.0000
     19 O3         6.4842    3.8441    3.8919 O.2       1 RES1    0.0000
     20 O4         6.0921    2.9441    5.7986 O.2       1 RES1    0.0000
     21 O5         4.3767   -0.0929    5.9934 O.2       1 RES1    0.0000
     22 O6         4.5297   -0.4897    8.1011 O.2       1 RES1    0.0000
     23 O7         3.9730    2.9286   11.3300 O.2       1 RES1    0.0000
     24 O8         3.6257    4.9726   10.7137 O.2       1 RES1    0.0000
     25 H1        -0.4221   -0.2516    5.1222 H         1 RES1    0.0000
@<TRIPOS>BOND
     1    1    2 ar
     2    2    3 ar
     3    3    4 ar
     4    4    5 ar
     5    5    6 ar
     6    6    1 ar
     7    7    1 1
     8    8    7 ar
     9    9    8 ar
    10   10    9 ar
    11   11   10 ar
    12   12    7 ar
    13   13    6 1
    14   14    2 1
    15   15    8 1
    16   16   10 1
    17   17   13 2
    18   18   13 1
    19   19   14 2
    20   20   14 2
    21   21   15 2
    22   22   15 2
    23   23   16 2
    24   24   16 2
    25   25   18 1
    26   11   12 ar
@<TRIPOS>SUBSTRUCTURE
     1 RES1 1

@<TRIPOS>CRYSIN
  11.7790   19.5670   12.2540  90.0000  90.0000  98.4200  15 3

