# MOL2 file generated by ConQuest
# Please check atom types

@<TRIPOS>MOLECULE
SUFHUY
    22    22     1
SMALL
NO_CHARGES
****
Generated from CSD

@<TRIPOS>ATOM
      1 H1        -4.2650   -6.2760   -6.4833 H         1 RES1    0.0000
      2 H2        -4.2355   -4.7348   -6.1327 H         1 RES1    0.0000
      3 H3        -9.8894   -6.5259   -4.2435 H         1 RES1    0.0000
      4 H4        -9.0915   -5.4568   -3.1916 H         1 RES1    0.0000
      5 C1        -5.9878   -5.6748   -5.6031 C.2       1 RES1    0.0000
      6 C2        -7.9302   -5.9261   -4.8088 C.2       1 RES1    0.0000
      7 C3        -4.5083   -5.6262   -5.8422 C.3       1 RES1    0.0000
      8 C4        -9.0039   -6.2066   -3.8020 C.3       1 RES1    0.0000
      9 N1        -6.9452   -5.3877   -6.5363 N.pl3     1 RES1    0.0000
     10 N2        -8.2001   -5.5594   -6.0354 N.2       1 RES1    0.0000
     11 N3        -6.5877   -6.0133   -4.4911 N.2       1 RES1    0.0000
     12 N4        -6.7601   -4.9431   -7.8873 N.pl3     1 RES1    0.0000
     13 N5        -3.6938   -4.9111   -3.7118 N.pl3     1 RES1    0.0000
     14 N6        -8.6975   -8.5462   -3.4442 N.pl3     1 RES1    0.0000
     15 O1        -5.6125   -4.9485   -8.2659 O.2       1 RES1    0.0000
     16 O2        -7.7559   -4.6168   -8.4706 O.2       1 RES1    0.0000
     17 O3        -3.8169   -5.9882   -4.6428 O.3       1 RES1    0.0000
     18 O4        -4.1784   -3.8561   -4.0138 O.2       1 RES1    0.0000
     19 O5        -3.1037   -5.2394   -2.7214 O.2       1 RES1    0.0000
     20 O6        -8.6078   -7.2534   -2.8803 O.3       1 RES1    0.0000
     21 O7        -9.0344   -8.6512   -4.5870 O.2       1 RES1    0.0000
     22 O8        -8.3902   -9.3943   -2.6434 O.2       1 RES1    0.0000
@<TRIPOS>BOND
     1    1    7 1
     2    2    7 1
     3    3    8 1
     4    4    8 1
     5    5    7 1
     6    6    8 1
     7    7   17 1
     8    8   20 1
     9    9    5 1
    10   10    6 2
    11   11    5 2
    12   12    9 1
    13   13   17 1
    14   14   20 1
    15   15   12 2
    16   16   12 2
    17   18   13 2
    18   19   13 2
    19   21   14 2
    20   22   14 2
    21    6   11 1
    22    9   10 1
@<TRIPOS>SUBSTRUCTURE
     1 RES1 1

@<TRIPOS>CRYSIN
   9.8500   13.8850    7.1560  90.0000  90.0000  90.0000  33 1

