# MOL2 file generated by ConQuest
# Please check atom types

@<TRIPOS>MOLECULE
SUFJAG
    30    30     1
SMALL
NO_CHARGES
****
Generated from CSD

@<TRIPOS>ATOM
      1 O1         4.7127    5.6910    2.1879 O.3       1 RES1    0.0000
      2 O2         2.6885   10.7476   -1.6874 O.3       1 RES1    0.0000
      3 O3         0.8261    8.5489    1.9042 O.2       1 RES1    0.0000
      4 O4         0.7206   10.6007    2.6114 O.2       1 RES1    0.0000
      5 O5         3.4707   10.9238    4.2429 O.2       1 RES1    0.0000
      6 O6         1.6058   10.6809    5.3385 O.2       1 RES1    0.0000
      7 O7         2.2657    7.7642    5.5770 O.2       1 RES1    0.0000
      8 O8         0.3403    7.8255    4.5591 O.2       1 RES1    0.0000
      9 N1         3.7600    8.4803    0.7178 N.pl3     1 RES1    0.0000
     10 N2         3.7618    9.2429    1.8983 N.3       1 RES1    0.0000
     11 N3         4.1089    6.9108   -0.7387 N.2       1 RES1    0.0000
     12 N4         3.1955    7.8099   -1.2796 N.2       1 RES1    0.0000
     13 N5         1.1152    9.4536    2.6564 N.pl3     1 RES1    0.0000
     14 N6         2.4376   10.3550    4.5111 N.pl3     1 RES1    0.0000
     15 N7         1.5021    8.1386    4.7088 N.pl3     1 RES1    0.0000
     16 C1         4.4429    7.3274    0.4509 C.2       1 RES1    0.0000
     17 C2         3.0054    8.7466   -0.3924 C.2       1 RES1    0.0000
     18 C3         5.3941    6.6486    1.3830 C.3       1 RES1    0.0000
     19 H1         6.1032    6.1963    0.8599 H         1 RES1    0.0000
     20 H2         5.8248    7.3236    1.9656 H         1 RES1    0.0000
     21 C4         2.1879    9.9852   -0.5967 C.3       1 RES1    0.0000
     22 H3         1.2473    9.7338   -0.7741 H         1 RES1    0.0000
     23 H4         2.2090   10.5337    0.2269 H         1 RES1    0.0000
     24 C5         3.3637    8.4649    3.0719 C.3       1 RES1    0.0000
     25 H5         4.1076    8.4406    3.7245 H         1 RES1    0.0000
     26 H6         3.1593    7.5350    2.8015 H         1 RES1    0.0000
     27 C6         2.1389    9.0928    3.7148 C.3       1 RES1    0.0000
     28 H7         4.5798    9.5960    1.9820 H         1 RES1    0.0000
     29 H8         2.4455   10.3917   -2.3540 H         1 RES1    0.0000
     30 H9         4.7388    4.9633    1.7210 H         1 RES1    0.0000
@<TRIPOS>BOND
     1    1   18 1
     2    2   21 1
     3    3   13 2
     4    4   13 2
     5    5   14 2
     6    6   14 2
     7    7   15 2
     8    8   15 2
     9    9   10 1
    10   10   24 1
    11   11   12 1
    12   12   17 2
    13   13   27 1
    14   14   27 1
    15   15   27 1
    16   16    9 1
    17   17    9 1
    18   18   16 1
    19   19   18 1
    20   20   18 1
    21   21   17 1
    22   22   21 1
    23   23   21 1
    24   24   25 1
    25   26   24 1
    26   27   24 1
    27   28   10 1
    28   29    2 1
    29   30    1 1
    30   11   16 2
@<TRIPOS>SUBSTRUCTURE
     1 RES1 1

@<TRIPOS>CRYSIN
   9.2007   10.3617   13.1222  90.0000 106.0890  90.0000 231 1

