# MOL2 file generated by ConQuest
# Please check atom types

@<TRIPOS>MOLECULE
SUFZOI01
    43    44     1
SMALL
NO_CHARGES
****
Generated from CSD

@<TRIPOS>ATOM
      1 O1         2.2804    3.5477    6.0729 O.3       1 RES1    0.0000
      2 O2         4.1653    1.4988    6.8840 O.3       1 RES1    0.0000
      3 O3         6.2353    3.5526    6.8762 O.3       1 RES1    0.0000
      4 O4         5.9623    5.8591    5.0453 O.3       1 RES1    0.0000
      5 O5         3.1574    5.8083    5.2875 O.3       1 RES1    0.0000
      6 O6        -1.5439    2.5170    2.8587 O.2       1 RES1    0.0000
      7 O7        -2.3590    4.5098    2.6811 O.2       1 RES1    0.0000
      8 O8        -0.4486    5.6080    0.8889 O.2       1 RES1    0.0000
      9 O9        -0.6164    7.3892    2.1005 O.2       1 RES1    0.0000
     10 N1        -1.4576    3.7320    2.9638 N.pl3     1 RES1    0.0000
     11 N2        -0.3191    6.2163    1.9345 N.pl3     1 RES1    0.0000
     12 C1         1.5560    4.1281    5.0918 C.ar      1 RES1    0.0000
     13 C2         2.0461    5.3826    4.6590 C.ar      1 RES1    0.0000
     14 C3         1.4034    6.0594    3.6410 C.ar      1 RES1    0.0000
     15 H1         1.7240    6.8811    3.3453 H         1 RES1    0.0000
     16 C4         0.2766    5.4987    3.0667 C.ar      1 RES1    0.0000
     17 C5        -0.2126    4.2868    3.4949 C.ar      1 RES1    0.0000
     18 C6         0.4300    3.5854    4.5052 C.ar      1 RES1    0.0000
     19 H2         0.1057    2.7596    4.7841 H         1 RES1    0.0000
     20 C7         1.9421    2.2100    6.4656 C.3       1 RES1    0.0000
     21 H3         1.9993    1.6085    5.7064 H         1 RES1    0.0000
     22 H4         1.0393    2.1776    6.8193 H         1 RES1    0.0000
     23 C8         2.9315    1.8201    7.5179 C.3       1 RES1    0.0000
     24 H5         3.0601    2.5531    8.1392 H         1 RES1    0.0000
     25 H6         2.6039    1.0530    8.0137 H         1 RES1    0.0000
     26 C9         5.2932    1.5360    7.7599 C.3       1 RES1    0.0000
     27 H7         6.0182    1.0325    7.3570 H         1 RES1    0.0000
     28 H8         5.0565    1.0965    8.5922 H         1 RES1    0.0000
     29 C10        5.7792    2.9217    8.0662 C.3       1 RES1    0.0000
     30 H9         5.0587    3.4414    8.4553 H         1 RES1    0.0000
     31 H10        6.5025    2.8791    8.7111 H         1 RES1    0.0000
     32 C11        6.7239    4.8587    7.1586 C.3       1 RES1    0.0000
     33 H11        7.5103    4.7930    7.7220 H         1 RES1    0.0000
     34 H12        6.0475    5.3579    7.6438 H         1 RES1    0.0000
     35 C12        7.0723    5.5866    5.9003 C.3       1 RES1    0.0000
     36 H13        7.4956    6.4263    6.1349 H         1 RES1    0.0000
     37 H14        7.7207    5.0593    5.4066 H         1 RES1    0.0000
     38 C13        5.1812    6.9622    5.4700 C.3       1 RES1    0.0000
     39 H15        5.6479    7.7916    5.2827 H         1 RES1    0.0000
     40 H16        5.0249    6.9093    6.4250 H         1 RES1    0.0000
     41 C14        3.8791    6.9295    4.7346 C.3       1 RES1    0.0000
     42 H17        3.3878    7.7540    4.8721 H         1 RES1    0.0000
     43 H18        4.0255    6.8077    3.7836 H         1 RES1    0.0000
@<TRIPOS>BOND
     1    1   12 1
     2    2   23 1
     3    3   29 1
     4    4   35 1
     5    5   13 1
     6    6   10 2
     7    7   10 2
     8    8   11 2
     9    9   11 2
    10   10   17 1
    11   11   16 1
    12   12   13 ar
    13   13   14 ar
    14   14   15 1
    15   16   14 ar
    16   17   16 ar
    17   18   12 ar
    18   19   18 1
    19   20    1 1
    20   21   20 1
    21   22   20 1
    22   23   20 1
    23   24   23 1
    24   25   23 1
    25   26    2 1
    26   27   26 1
    27   28   26 1
    28   29   26 1
    29   30   29 1
    30   31   29 1
    31   32    3 1
    32   33   32 1
    33   34   32 1
    34   35   32 1
    35   36   35 1
    36   37   35 1
    37   38    4 1
    38   39   38 1
    39   40   38 1
    40   41    5 1
    41   42   41 1
    42   43   41 1
    43   17   18 ar
    44   38   41 1
@<TRIPOS>SUBSTRUCTURE
     1 RES1 1

@<TRIPOS>CRYSIN
  11.6177    8.5331   17.2925  90.0000 109.5590  90.0000  14 1

