# MOL2 file generated by ConQuest
# Please check atom types

@<TRIPOS>MOLECULE
SUFZIC
    24    23     2
SMALL
NO_CHARGES
****
Generated from CSD

@<TRIPOS>ATOM
      1 O1        12.8253    0.4656    9.9815 O.3       1 RES1    0.0000
      2 O2        13.4308   -0.3346   12.6226 O.3       1 RES1    0.0000
      3 O3        15.7204    1.4162   13.2874 O.3       1 RES1    0.0000
      4 O4        16.9606    2.5607   10.1711 O.3       1 RES1    0.0000
      5 O5        14.5556    1.8042    8.7318 O.3       1 RES1    0.0000
      6 O6        10.7277   -2.5850    6.5698 O.2       1 RES1    0.0000
      7 O7        11.8049   -2.1534    4.7392 O.2       1 RES1    0.0000
      8 N1        11.5683   -1.9642    5.9370 N.pl3     1 RES1    0.0000
      9 C1        11.9402   -0.3443   10.7920 C.3       1 RES1    0.0000
     10 C2        12.1799    0.1067   12.2074 C.3       1 RES1    0.0000
     11 C3        13.8103    0.1891   13.9182 C.3       1 RES1    0.0000
     12 C4        14.4834    1.4792   13.8443 C.3       1 RES1    0.0000
     13 C5        15.6667    1.7072   11.9518 C.3       1 RES1    0.0000
     14 C6        16.6501    2.5753   11.5306 C.3       1 RES1    0.0000
     15 C7        16.4120    2.2116   12.5567 Du        2 SUP2    0.0000
     16 C8        15.8280    2.3765   11.0994 Du        2 SUP2    0.0000
     17 C9        16.2752    3.3416    9.2249 C.3       1 RES1    0.0000
     18 C10       15.6651    2.4880    8.1429 C.3       1 RES1    0.0000
     19 C11       13.8703    0.9263    7.9553 C.ar      1 RES1    0.0000
     20 C12       12.9206    0.1891    8.6580 C.ar      1 RES1    0.0000
     21 C13       12.1568   -0.7663    7.9932 C.ar      1 RES1    0.0000
     22 C14       12.3612   -0.9360    6.6337 C.ar      1 RES1    0.0000
     23 C15       13.3201   -0.2182    5.9370 C.ar      1 RES1    0.0000
     24 C16       14.0623    0.7275    6.5958 C.ar      1 RES1    0.0000
@<TRIPOS>BOND
     1    1    9 1
     2    2   10 1
     3    3   12 1
     4    4   14 1
     5    5   18 1
     6    6    8 2
     7    7    8 2
     8    8   22 1
     9    9   10 1
    10   11    2 1
    11   12   11 1
    12   13    3 1
    13   14   13 1
    14   17    4 1
    15   18   17 1
    16   19    5 1
    17   20    1 1
    18   21   20 ar
    19   22   21 ar
    20   23   22 ar
    21   24   19 ar
    22   19   20 ar
    23   23   24 ar
@<TRIPOS>SUBSTRUCTURE
     1 RES1 1
     2 SUP2 15

@<TRIPOS>CRYSIN
  15.3670    4.8499   19.9630  90.0000  90.0000  90.0000  29 1

