# MOL2 file generated by ConQuest
# Please check atom types

@<TRIPOS>MOLECULE
SUFZOI
    25    26     1
SMALL
NO_CHARGES
****
Generated from CSD

@<TRIPOS>ATOM
      1 O1         8.7556    1.4781    5.2892 O.3       1 RES1    0.0000
      2 O2         5.9390    1.5716    5.1452 O.3       1 RES1    0.0000
      3 O3         5.5892   -0.6796    6.9011 O.3       1 RES1    0.0000
      4 O4         7.6835   -2.6844    7.0153 O.3       1 RES1    0.0000
      5 O5         9.6064   -0.6966    6.1481 O.3       1 RES1    0.0000
      6 O6        12.4016    3.0072    1.9892 O.2       1 RES1    0.0000
      7 O7        12.4287    1.0874    0.9218 O.2       1 RES1    0.0000
      8 O8        13.3484   -1.7924    2.8763 O.2       1 RES1    0.0000
      9 O9        14.2411    0.0934    2.7637 O.2       1 RES1    0.0000
     10 N1        12.1966    1.8179    1.9363 N.pl3     1 RES1    0.0000
     11 N2        13.2619   -0.5862    2.9954 N.pl3     1 RES1    0.0000
     12 C1         7.9891    2.5995    4.7232 C.3       1 RES1    0.0000
     13 C2         6.7101    2.7099    5.5391 C.3       1 RES1    0.0000
     14 C3         4.8389    1.2912    6.0571 C.3       1 RES1    0.0000
     15 C4         5.1627    0.6031    7.2321 C.3       1 RES1    0.0000
     16 C5         6.0364   -1.2658    8.0926 C.3       1 RES1    0.0000
     17 C6         6.6014   -2.6165    7.9437 C.3       1 RES1    0.0000
     18 C7         8.9119   -2.4126    7.6193 C.3       1 RES1    0.0000
     19 C8         9.8902   -2.0558    6.5453 C.3       1 RES1    0.0000
     20 C9        10.3145   -0.1614    5.1286 C.ar      1 RES1    0.0000
     21 C10        9.8534    1.0279    4.6835 C.ar      1 RES1    0.0000
     22 C11       10.4518    1.6990    3.6243 C.ar      1 RES1    0.0000
     23 C12       11.5583    1.1553    3.0451 C.ar      1 RES1    0.0000
     24 C13       12.0423   -0.0340    3.4919 C.ar      1 RES1    0.0000
     25 C14       11.4646   -0.7306    4.5593 C.ar      1 RES1    0.0000
@<TRIPOS>BOND
     1    1   12 1
     2    2   13 1
     3    3   15 1
     4    4   17 1
     5    5   19 1
     6    6   10 2
     7    7   10 2
     8    8   11 2
     9    9   11 2
    10   10   23 1
    11   11   24 1
    12   12   13 1
    13   14    2 1
    14   15   14 1
    15   16    3 1
    16   17   16 1
    17   18    4 1
    18   19   18 1
    19   20    5 1
    20   21    1 1
    21   22   21 ar
    22   23   22 ar
    23   24   23 ar
    24   25   20 ar
    25   20   21 ar
    26   24   25 ar
@<TRIPOS>SUBSTRUCTURE
     1 RES1 1

@<TRIPOS>CRYSIN
  11.7160    8.4950   17.4410  90.0000 108.4000  90.0000 231 1

