# MOL2 file generated by ConQuest
# Please check atom types

@<TRIPOS>MOLECULE
SUGBAZ
    44    48     1
SMALL
NO_CHARGES
****
Generated from CSD

@<TRIPOS>ATOM
      1 C1         9.8114    9.9240   10.6332 C.3       1 RES1    0.0000
      2 H1        10.0907    9.4500    9.8342 H         1 RES1    0.0000
      3 H2        10.6099   10.2290   11.0919 H         1 RES1    0.0000
      4 O1         9.2001   13.8362    8.0369 O.2       1 RES1    0.0000
      5 O2         8.3756    7.5334    9.6823 O.3       1 RES1    0.0000
      6 O3         8.4773    9.7847   12.5681 O.3       1 RES1    0.0000
      7 H3         8.2286    9.3092   13.1887 H         1 RES1    0.0000
      8 C2         9.0448    8.9696   11.5410 C.3       1 RES1    0.0000
      9 C3         8.9685   11.1356   10.2301 C.3       1 RES1    0.0000
     10 H4         8.8785   11.7138   11.0162 H         1 RES1    0.0000
     11 C4        12.1914    6.5767   13.3400 C.ar      1 RES1    0.0000
     12 H5        12.9181    6.1256   13.7045 H         1 RES1    0.0000
     13 C5        11.8381    7.8221   13.8104 C.ar      1 RES1    0.0000
     14 H6        12.3045    8.2133   14.5145 H         1 RES1    0.0000
     15 C6        10.7825    8.4769   13.2188 C.ar      1 RES1    0.0000
     16 H7        10.5508    9.3159   13.5456 H         1 RES1    0.0000
     17 C7        10.0358    7.9565   12.1526 C.ar      1 RES1    0.0000
     18 C8         9.7663   11.9004    9.1741 C.3       1 RES1    0.0000
     19 H8        10.7118   11.7903    9.3584 H         1 RES1    0.0000
     20 H9         9.5891   11.5077    8.3051 H         1 RES1    0.0000
     21 N1         9.4592   13.3507    9.1138 N.pl3     1 RES1    0.0000
     22 C9        11.4612    6.0094   12.3304 C.ar      1 RES1    0.0000
     23 H10       11.6935    5.1571   12.0381 H         1 RES1    0.0000
     24 C10       10.3751    6.6594   11.7150 C.ar      1 RES1    0.0000
     25 O4         9.5094   13.9824   10.1197 O.2       1 RES1    0.0000
     26 C11        7.5725   10.7376    9.7809 C.ar      1 RES1    0.0000
     27 C12        6.7533   11.6578    9.1262 C.ar      1 RES1    0.0000
     28 H11        7.0833   12.5083    8.9442 H         1 RES1    0.0000
     29 C13        5.4709   11.3423    8.7435 C.ar      1 RES1    0.0000
     30 H12        4.9454   11.9742    8.3084 H         1 RES1    0.0000
     31 C14        4.9676   10.0881    9.0057 C.ar      1 RES1    0.0000
     32 H13        4.1020    9.8677    8.7485 H         1 RES1    0.0000
     33 C15        5.7574    9.1596    9.6534 C.ar      1 RES1    0.0000
     34 H14        5.4172    8.3108    9.8245 H         1 RES1    0.0000
     35 C16        7.0552    9.4706   10.0549 C.ar      1 RES1    0.0000
     36 C17        7.8661    8.3844   10.7361 C.3       1 RES1    0.0000
     37 C18        8.4515    6.2010   10.1977 C.3       1 RES1    0.0000
     38 H15        8.2252    5.5550    9.4958 H         1 RES1    0.0000
     39 C19        7.4001    6.1905   11.2663 C.2       1 RES1    0.0000
     40 H16        7.0275    5.4253   11.6412 H         1 RES1    0.0000
     41 C20        7.0825    7.4182   11.5941 C.2       1 RES1    0.0000
     42 H17        6.4701    7.6581   12.2522 H         1 RES1    0.0000
     43 N2         9.7686    5.9507   10.6869 N.3       1 RES1    0.0000
     44 H18       10.2176    5.3167   10.3187 H         1 RES1    0.0000
@<TRIPOS>BOND
     1    1    2 1
     2    3    1 1
     3    4   21 2
     4    5   36 1
     5    6    7 1
     6    8    1 1
     7    9    1 1
     8   10    9 1
     9   11   12 1
    10   13   11 ar
    11   14   13 1
    12   15   13 ar
    13   16   15 1
    14   17    8 1
    15   18    9 1
    16   19   18 1
    17   20   18 1
    18   21   18 1
    19   22   11 ar
    20   23   22 1
    21   24   17 ar
    22   25   21 2
    23   26    9 1
    24   27   26 ar
    25   28   27 1
    26   29   27 ar
    27   30   29 1
    28   31   29 ar
    29   32   31 1
    30   33   31 ar
    31   34   33 1
    32   35   26 ar
    33   36    8 1
    34   37    5 1
    35   38   37 1
    36   39   37 1
    37   40   39 1
    38   41   36 1
    39   42   41 1
    40   43   24 1
    41   44   43 1
    42    6    8 1
    43   15   17 ar
    44   22   24 ar
    45   33   35 ar
    46   35   36 1
    47   37   43 1
    48   39   41 2
@<TRIPOS>SUBSTRUCTURE
     1 RES1 1

@<TRIPOS>CRYSIN
  13.7987   11.0811   10.9368  90.0000  98.5950  90.0000  14 1

