# MOL2 file generated by ConQuest
# Please check atom types

@<TRIPOS>MOLECULE
SUGFUV
    34    33     1
SMALL
NO_CHARGES
****
Generated from CSD

@<TRIPOS>ATOM
      1 O1         1.9069    4.9834    0.2913 O.3       1 RES1    0.0000
      2 O2         0.9216    3.0947   -0.4377 O.2       1 RES1    0.0000
      3 O3         2.1277    6.0598   -3.8331 O.2       1 RES1    0.0000
      4 O4         2.4860    4.4628   -2.4796 O.2       1 RES1    0.0000
      5 O5         3.1464    7.7146   -0.1087 O.2       1 RES1    0.0000
      6 O6         4.1469    6.7414   -1.6867 O.2       1 RES1    0.0000
      7 N1         2.1793    5.5970   -2.7198 N.pl3     1 RES1    0.0000
      8 N2         3.1703    7.0281   -1.0743 N.pl3     1 RES1    0.0000
      9 C1         1.0390    5.7894   -0.4782 C.3       1 RES1    0.0000
     10 C2         1.8446    6.5112   -1.5595 C.3       1 RES1    0.0000
     11 C3         1.7938    3.6140    0.1904 C.2       1 RES1    0.0000
     12 C4         2.9153    2.9915    0.9144 C.3       1 RES1    0.0000
     13 H1         0.3896    5.3380   -0.9819 H         1 RES1    0.0000
     14 H2         1.3226    6.7778   -1.9567 H         1 RES1    0.0000
     15 H3         2.7803    3.1299    1.8338 H         1 RES1    0.0000
     16 H4         3.8307    3.2292    0.4085 H         1 RES1    0.0000
     17 H5         2.8173    2.1893    1.0004 H         1 RES1    0.0000
     18 C1B        0.3382    6.7854    0.4782 C.3       1 RES1    0.0000
     19 O1B       -0.5297    7.5914   -0.2913 O.3       1 RES1    0.0000
     20 C2B       -0.4674    6.0636    1.5595 C.3       1 RES1    0.0000
     21 H1B        0.9876    7.2368    0.9819 H         1 RES1    0.0000
     22 C3B       -0.4167    8.9608   -0.1904 C.2       1 RES1    0.0000
     23 N1B       -0.8021    6.9778    2.7198 N.pl3     1 RES1    0.0000
     24 N2B       -1.7931    5.5467    1.0743 N.pl3     1 RES1    0.0000
     25 H2B        0.0546    5.7970    1.9567 H         1 RES1    0.0000
     26 O2B        0.4556    9.4802    0.4377 O.2       1 RES1    0.0000
     27 C4B       -1.5382    9.5833   -0.9144 C.3       1 RES1    0.0000
     28 O3B       -0.7506    6.5150    3.8331 O.2       1 RES1    0.0000
     29 O4B       -1.1088    8.1120    2.4796 O.2       1 RES1    0.0000
     30 O5B       -1.7692    4.8602    0.1087 O.2       1 RES1    0.0000
     31 O6B       -2.7697    5.8335    1.6867 O.2       1 RES1    0.0000
     32 H3B       -1.4031    9.4449   -1.8338 H         1 RES1    0.0000
     33 H4B       -2.4535    9.3456   -0.4085 H         1 RES1    0.0000
     34 H5B       -1.4401   10.3855   -1.0004 H         1 RES1    0.0000
@<TRIPOS>BOND
     1    1    9 1
     2    2   11 2
     3    3    7 2
     4    4    7 2
     5    5    8 2
     6    6    8 2
     7    7   10 1
     8    8   10 1
     9    9   10 1
    10   10   14 1
    11   11    1 1
    12   12   11 1
    13   13    9 1
    14   15   12 1
    15   16   12 1
    16   17   12 1
    17   18    9 1
    18   19   18 1
    19   20   18 1
    20   21   18 1
    21   22   19 1
    22   23   20 1
    23   24   20 1
    24   25   20 1
    25   26   22 2
    26   27   22 1
    27   28   23 2
    28   29   23 2
    29   30   24 2
    30   31   24 2
    31   32   27 1
    32   33   27 1
    33   34   27 1
@<TRIPOS>SUBSTRUCTURE
     1 RES1 1

@<TRIPOS>CRYSIN
   7.8630   12.6500    7.1050  90.0000  90.0000  83.7500  14 3

