# MOL2 file generated by ConQuest
# Please check atom types

@<TRIPOS>MOLECULE
SUGFOP
    24    23     1
SMALL
NO_CHARGES
****
Generated from CSD

@<TRIPOS>ATOM
      1 C1        -0.4227    4.4070    2.7479 C.3       1 RES1    0.0000
      2 C2         1.0963    4.5726    2.6646 C.3       1 RES1    0.0000
      3 N1         1.7730    3.4372    1.9505 N.pl3     1 RES1    0.0000
      4 N2         1.4512    5.8111    1.8888 N.pl3     1 RES1    0.0000
      5 O1        -1.0245    4.7167    1.5298 O.3       1 RES1    0.0000
      6 O2         1.1136    2.6212    1.3848 O.2       1 RES1    0.0000
      7 O3         2.9986    3.4109    2.0122 O.2       1 RES1    0.0000
      8 O4         1.2401    6.8511    2.4867 O.2       1 RES1    0.0000
      9 O5         1.8724    5.7128    0.7718 O.2       1 RES1    0.0000
     10 H1        -0.5753    3.5473    3.1168 H         1 RES1    0.0000
     11 H2         1.5127    4.6252    3.5119 H         1 RES1    0.0000
     12 H3        -1.2228    4.1617    1.0035 H         1 RES1    0.0000
     13 C1B       -0.9891    5.3301    3.8151 C.3       1 RES1    0.0000
     14 C2B       -2.5081    5.1646    3.8984 C.3       1 RES1    0.0000
     15 O1B       -0.3874    5.0205    5.0332 O.3       1 RES1    0.0000
     16 H1B       -0.8365    6.1899    3.4462 H         1 RES1    0.0000
     17 N1B       -3.1848    6.3000    4.6125 N.pl3     1 RES1    0.0000
     18 N2B       -2.8630    3.9260    4.6742 N.pl3     1 RES1    0.0000
     19 H2B       -2.9245    5.1120    3.0511 H         1 RES1    0.0000
     20 H3B       -0.1890    5.5755    5.5595 H         1 RES1    0.0000
     21 O2B       -2.5254    7.1159    5.1782 O.2       1 RES1    0.0000
     22 O3B       -4.4104    6.3262    4.5508 O.2       1 RES1    0.0000
     23 O4B       -2.6520    2.8861    4.0763 O.2       1 RES1    0.0000
     24 O5B       -3.2842    4.0244    5.7912 O.2       1 RES1    0.0000
@<TRIPOS>BOND
     1    1    2 1
     2    2    3 1
     3    3    6 2
     4    4    2 1
     5    5    1 1
     6    7    3 2
     7    8    4 2
     8    9    4 2
     9   10    1 1
    10   11    2 1
    11   12    5 1
    12   13    1 1
    13   14   13 1
    14   15   13 1
    15   16   13 1
    16   17   14 1
    17   18   14 1
    18   19   14 1
    19   20   15 1
    20   21   17 2
    21   22   17 2
    22   23   18 2
    23   24   18 2
@<TRIPOS>SUBSTRUCTURE
     1 RES1 1

