# MOL2 file generated by ConQuest
# Please check atom types

@<TRIPOS>MOLECULE
SUHPUI
    43    46     1
SMALL
NO_CHARGES
****
Generated from CSD

@<TRIPOS>ATOM
      1 O1        -3.2661    1.1839    2.5143 O.2       1 RES1    0.0000
      2 O2        -1.9249   -0.4829    2.2642 O.2       1 RES1    0.0000
      3 O3        -2.0197    5.6196    1.6315 O.2       1 RES1    0.0000
      4 O4        -0.0030    6.1054    1.0655 O.2       1 RES1    0.0000
      5 N1         1.8709   -0.4610    1.2904 N.2       1 RES1    0.0000
      6 N2         0.5595   -0.1106    1.5620 N.pl3     1 RES1    0.0000
      7 H1        -0.0211   -0.7280    1.7977 H         1 RES1    0.0000
      8 N3        -2.1624    0.7238    2.2233 N.pl3     1 RES1    0.0000
      9 N4        -0.8798    5.2960    1.3535 N.pl3     1 RES1    0.0000
     10 C1         2.1331   -1.7021    1.4767 C.2       1 RES1    0.0000
     11 H2         1.4592   -2.2715    1.8271 H         1 RES1    0.0000
     12 C2         3.4835   -2.2674    1.1529 C.3       1 RES1    0.0000
     13 H3         3.5102   -2.4301    0.1662 H         1 RES1    0.0000
     14 C3         3.7951   -3.7129    1.9031 C.3       1 RES1    0.0000
     15 H4         3.2764   -4.4763    1.5183 H         1 RES1    0.0000
     16 C4         3.3774   -3.3624    3.3225 C.2       1 RES1    0.0000
     17 H5         2.7729   -3.8818    3.8391 H         1 RES1    0.0000
     18 C5         3.9426   -2.2694    3.7510 C.2       1 RES1    0.0000
     19 H6         3.6849   -1.8293    4.5527 H         1 RES1    0.0000
     20 C6         5.0370   -1.7751    2.8575 C.3       1 RES1    0.0000
     21 H7         5.5169   -1.0033    3.2745 H         1 RES1    0.0000
     22 C7         5.9830   -2.9828    2.6783 C.3       1 RES1    0.0000
     23 H8         6.8460   -2.6908    2.2886 H         1 RES1    0.0000
     24 H9         6.1608   -3.4167    3.5496 H         1 RES1    0.0000
     25 C8         5.3087   -3.8943    1.7870 C.3       1 RES1    0.0000
     26 H10        5.5976   -4.8434    1.9117 H         1 RES1    0.0000
     27 C9         5.7161   -3.3040    0.3532 C.3       1 RES1    0.0000
     28 H11        6.5996   -3.6545    0.0781 H         1 RES1    0.0000
     29 H12        5.0468   -3.5689   -0.3274 H         1 RES1    0.0000
     30 C10        5.7626   -1.8669    0.4743 C.3       1 RES1    0.0000
     31 H13        5.6246   -1.4434   -0.4098 H         1 RES1    0.0000
     32 H14        6.6430   -1.5811    0.8261 H         1 RES1    0.0000
     33 C11        4.6018   -1.4455    1.4782 C.3       1 RES1    0.0000
     34 H15        4.3784   -0.4756    1.3893 H         1 RES1    0.0000
     35 C12        0.1668    1.1848    1.4660 C.ar      1 RES1    0.0000
     36 C13       -1.1322    1.6270    1.8128 C.ar      1 RES1    0.0000
     37 C14       -1.4675    2.9786    1.7791 C.ar      1 RES1    0.0000
     38 H16       -2.3322    3.2665    2.0464 H         1 RES1    0.0000
     39 C15       -0.5384    3.8839    1.3571 C.ar      1 RES1    0.0000
     40 C16        0.7408    3.4792    0.9437 C.ar      1 RES1    0.0000
     41 H17        1.3678    4.1196    0.6248 H         1 RES1    0.0000
     42 C17        1.0719    2.1610    1.0046 C.ar      1 RES1    0.0000
     43 H18        1.9405    1.8919    0.7273 H         1 RES1    0.0000
@<TRIPOS>BOND
     1    1    8 2
     2    2    8 2
     3    3    9 2
     4    4    9 2
     5    5    6 1
     6    6    7 1
     7    8   36 1
     8    9   39 1
     9   10    5 2
    10   11   10 1
    11   12   10 1
    12   13   12 1
    13   14   12 1
    14   15   14 1
    15   16   14 1
    16   17   16 1
    17   18   16 2
    18   19   18 1
    19   20   18 1
    20   21   20 1
    21   22   20 1
    22   23   22 1
    23   24   22 1
    24   25   14 1
    25   26   25 1
    26   27   25 1
    27   28   27 1
    28   29   27 1
    29   30   27 1
    30   31   30 1
    31   32   30 1
    32   33   12 1
    33   34   33 1
    34   35    6 1
    35   36   35 ar
    36   37   36 ar
    37   38   37 1
    38   39   37 ar
    39   40   39 ar
    40   41   40 1
    41   42   35 ar
    42   43   42 1
    43   20   33 1
    44   22   25 1
    45   30   33 1
    46   40   42 ar
@<TRIPOS>SUBSTRUCTURE
     1 RES1 1

@<TRIPOS>CRYSIN
  10.5480   20.8588    7.6700  90.0000 110.9040  90.0000  14 1

