# MOL2 file generated by ConQuest
# Please check atom types

@<TRIPOS>MOLECULE
SUHTUK
   120   124     2
SMALL
NO_CHARGES
****
Generated from CSD

@<TRIPOS>ATOM
      1 O1         5.9535   15.8719    0.3395 O.3       1 RES1    0.0000
      2 O2         6.2422   18.9709   -1.5349 O.3       1 RES1    0.0000
      3 O3         4.8673   19.7862    0.9699 O.3       1 RES1    0.0000
      4 O4         5.8529   18.2258    3.1308 O.3       1 RES1    0.0000
      5 O5         2.6038   14.4386   -4.6576 O.2       1 RES1    0.0000
      6 O6         3.2443   13.2726   -2.8874 O.3       1 RES1    0.0000
      7 O7         7.1126   13.8688   -2.0387 O.2       1 RES1    0.0000
      8 O8         8.5339   15.4380   -2.0189 O.2       1 RES1    0.0000
      9 O9         4.2520   19.6416   -2.2713 O.2       1 RES1    0.0000
     10 O10        6.4625   21.3291    0.8056 O.2       1 RES1    0.0000
     11 O11        4.0350   17.4324    4.1313 O.2       1 RES1    0.0000
     12 N1         4.8366   15.9859   -4.5956 N.2       1 RES1    0.0000
     13 N2         7.3904   15.0303   -2.0252 N.pl3     1 RES1    0.0000
     14 C1         3.3987   14.2238   -3.7990 C.2       1 RES1    0.0000
     15 C2         4.7429   14.8945   -3.6490 C.3       1 RES1    0.0000
     16 C3         4.9190   15.4117   -2.2219 C.3       1 RES1    0.0000
     17 C4         6.2967   16.0692   -2.0019 C.3       1 RES1    0.0000
     18 C5         6.4185   16.7880   -0.6475 C.3       1 RES1    0.0000
     19 C6         5.6431   18.0636   -0.5649 C.3       1 RES1    0.0000
     20 C7         5.7978   18.6772    0.8280 C.3       1 RES1    0.0000
     21 C8         5.4605   17.6603    1.8680 C.3       1 RES1    0.0000
     22 C9         6.2137   16.3979    1.6615 C.3       1 RES1    0.0000
     23 C10        2.0343   12.4661   -2.9179 C.3       1 RES1    0.0000
     24 C11        2.0127   11.5982   -1.8294 C.3       1 RES1    0.0000
     25 C12        5.4332   15.7974   -5.7137 C.2       1 RES1    0.0000
     26 C13        5.4546   19.6942   -2.3638 C.2       1 RES1    0.0000
     27 C14        6.2187   20.5095   -3.2646 C.3       1 RES1    0.0000
     28 C15        5.3207   21.0355    0.9987 C.2       1 RES1    0.0000
     29 C16        4.2079   21.9910    1.3391 C.3       1 RES1    0.0000
     30 C17        5.0673   17.9934    4.1878 C.2       1 RES1    0.0000
     31 C18        5.6948   18.5238    5.4542 C.3       1 RES1    0.0000
     32 C19        6.0470   14.5043   -6.1197 C.ar      1 RES1    0.0000
     33 C20        5.2755   13.4918   -6.7052 C.ar      1 RES1    0.0000
     34 C21        5.8939   12.3258   -7.1139 C.ar      1 RES1    0.0000
     35 C22        7.2333   12.1417   -6.9208 C.ar      1 RES1    0.0000
     36 C23        7.9626   13.0798   -6.3406 C.ar      1 RES1    0.0000
     37 C24        7.4091   14.2808   -5.9499 C.ar      1 RES1    0.0000
     38 C25        5.5099   16.9195   -6.6765 C.ar      1 RES1    0.0000
     39 C26        5.9524   16.6960   -7.9787 C.ar      1 RES1    0.0000
     40 C27        5.9646   17.6954   -8.8625 C.ar      1 RES1    0.0000
     41 C28        5.6199   18.9315   -8.5724 C.ar      1 RES1    0.0000
     42 C29        5.2038   19.2032   -7.2522 C.ar      1 RES1    0.0000
     43 C30        5.1511   18.1775   -6.3011 C.ar      1 RES1    0.0000
     44 O12       -2.3819    7.1667    6.8830 O.3       2 RES2    0.0000
     45 O13       -1.9435    4.0195    8.6514 O.3       2 RES2    0.0000
     46 O14       -3.3793    3.2612    6.2867 O.3       2 RES2    0.0000
     47 O15       -2.5147    4.8874    4.0334 O.3       2 RES2    0.0000
     48 O16       -5.7011    8.4598   11.8316 O.2       2 RES2    0.0000
     49 O17       -5.0217    9.7222   10.1908 O.3       2 RES2    0.0000
     50 O18       -1.1554    9.1611    9.2873 O.2       2 RES2    0.0000
     51 O19        0.2719    7.6006    9.1696 O.2       2 RES2    0.0000
     52 O20       -3.8377    3.5417    9.6761 O.2       2 RES2    0.0000
     53 O21       -1.7943    1.9067    5.5485 O.2       2 RES2    0.0000
     54 O22       -4.3578    5.6808    3.0760 O.2       2 RES2    0.0000
     55 N3        -3.4093    6.9475   11.8136 N.2       2 RES2    0.0000
     56 N4        -0.8875    8.0127    9.2289 N.pl3     2 RES2    0.0000
     57 C31       -4.8895    8.7315   11.0565 C.2       2 RES2    0.0000
     58 C32       -3.5158    8.0653   10.8940 C.3       2 RES2    0.0000
     59 C33       -3.3268    7.5612    9.4453 C.3       2 RES2    0.0000
     60 C34       -1.9632    6.9563    9.1876 C.3       2 RES2    0.0000
     61 C35       -1.8610    6.2550    7.8350 C.3       2 RES2    0.0000
     62 C36       -2.5772    4.9575    7.7551 C.3       2 RES2    0.0000
     63 C37       -2.5032    4.3570    6.3612 C.3       2 RES2    0.0000
     64 C38       -2.9131    5.4046    5.3428 C.3       2 RES2    0.0000
     65 C39       -2.1907    6.6845    5.5592 C.3       2 RES2    0.0000
     66 C40       -6.2263   10.4892   10.2491 C.3       2 RES2    0.0000
     67 C41       -6.1812   11.4974    9.1975 C.3       2 RES2    0.0000
     68 C42       -2.8459    7.1316   12.9497 C.2       2 RES2    0.0000
     69 C43       -2.6819    3.3839    9.5827 C.2       2 RES2    0.0000
     70 C44       -1.8754    2.5072   10.4162 C.3       2 RES2    0.0000
     71 C45       -2.9742    2.1128    5.8826 C.2       2 RES2    0.0000
     72 C46       -3.9798    1.0695    5.7901 C.3       2 RES2    0.0000
     73 C47       -3.3230    5.1460    2.9844 C.2       2 RES2    0.0000
     74 C48       -2.6219    4.7471    1.7208 C.3       2 RES2    0.0000
     75 C49       -2.2724    8.4466   13.4042 C.ar      2 RES2    0.0000
     76 C50       -3.0730    9.3583   14.0256 C.ar      2 RES2    0.0000
     77 C51       -2.5176   10.6032   14.4370 C.ar      2 RES2    0.0000
     78 C52       -1.1672   10.8224   14.2591 C.ar      2 RES2    0.0000
     79 C53       -0.3984    9.8887   13.6790 C.ar      2 RES2    0.0000
     80 C54       -0.9448    8.7140   13.2335 C.ar      2 RES2    0.0000
     81 C55       -2.7489    5.9481   13.8514 C.ar      2 RES2    0.0000
     82 C56       -2.2799    6.1103   15.1752 C.ar      2 RES2    0.0000
     83 C57       -2.1703    5.0539   16.0185 C.ar      2 RES2    0.0000
     84 C58       -2.5748    3.8003   15.6027 C.ar      2 RES2    0.0000
     85 C59       -3.0304    3.6381   14.3211 C.ar      2 RES2    0.0000
     86 C60       -3.0961    4.6989   13.4670 C.ar      2 RES2    0.0000
     87 H1        -2.8427    8.7272   11.1167 H         2 RES2    0.0000
     88 H2        -1.8473    6.2857    9.8710 H         2 RES2    0.0000
     89 H3        -0.9681    6.1059    7.6994 H         2 RES2    0.0000
     90 H4        -3.4981    5.0934    7.9347 H         2 RES2    0.0000
     91 H5        -1.5996    4.0370    6.1915 H         2 RES2    0.0000
     92 H6        -3.8778    5.5098    5.4362 H         2 RES2    0.0000
     93 H7        -4.0160    6.8774    9.2684 H         2 RES2    0.0000
     94 H8        -3.4435    8.3370    8.8750 H         2 RES2    0.0000
     95 H9        -2.5313    7.3070    4.9503 H         2 RES2    0.0000
     96 H10       -1.2625    6.5267    5.3913 H         2 RES2    0.0000
     97 H11       -6.9691    9.8843   10.0875 H         2 RES2    0.0000
     98 H12       -6.2918   10.8706   11.0817 H         2 RES2    0.0000
     99 H13       -6.9982   11.9927    9.2073 H         2 RES2    0.0000
    100 H14       -6.1191   11.1555    8.3119 H         2 RES2    0.0000
    101 H15       -5.4309   12.1330    9.3061 H         2 RES2    0.0000
    102 H16       -4.0075    9.0866   14.1945 H         2 RES2    0.0000
    103 H17       -3.1357   11.2826   14.7774 H         2 RES2    0.0000
    104 H18       -0.8397   11.6640   14.6112 H         2 RES2    0.0000
    105 H19        0.5100   10.0816   13.5829 H         2 RES2    0.0000
    106 H20       -0.4050    8.0302   12.8177 H         2 RES2    0.0000
    107 H21       -2.0570    6.9914   15.4958 H         2 RES2    0.0000
    108 H22       -1.8114    5.1986   16.8969 H         2 RES2    0.0000
    109 H23       -2.4105    3.0420   16.2089 H         2 RES2    0.0000
    110 H24       -3.3054    2.7965   14.0858 H         2 RES2    0.0000
    111 H25       -3.4024    4.5762   12.5644 H         2 RES2    0.0000
    112 H26       -2.3911    2.1171   11.0341 H         2 RES2    0.0000
    113 H27       -1.1626    2.9193   10.8949 H         2 RES2    0.0000
    114 H28       -1.3933    1.8892    9.8746 H         2 RES2    0.0000
    115 H29       -3.5582    0.3682    5.4982 H         2 RES2    0.0000
    116 H30       -4.6743    1.3632    5.1111 H         2 RES2    0.0000
    117 H31       -4.4474    0.9249    6.6055 H         2 RES2    0.0000
    118 H32       -3.1719    4.9181    0.9358 H         2 RES2    0.0000
    119 H33       -2.3765    3.8310    1.7441 H         2 RES2    0.0000
    120 H34       -1.8200    5.2863    1.6247 H         2 RES2    0.0000
@<TRIPOS>BOND
     1    1   18 1
     2    2   19 1
     3    3   20 1
     4    4   21 1
     5    5   14 2
     6    6   14 1
     7    7   13 2
     8    8   13 2
     9    9   26 2
    10   10   28 2
    11   11   30 2
    12   12   15 1
    13   13   17 1
    14   14   15 1
    15   15   16 1
    16   16   17 1
    17   17   18 1
    18   18   19 1
    19   19   20 1
    20   20   21 1
    21   21   22 1
    22   22    1 1
    23   23    6 1
    24   24   23 1
    25   25   12 2
    26   26    2 1
    27   27   26 1
    28   28    3 1
    29   29   28 1
    30   30    4 1
    31   31   30 1
    32   32   25 1
    33   33   32 ar
    34   34   33 ar
    35   35   34 ar
    36   36   35 ar
    37   37   32 ar
    38   38   25 1
    39   39   38 ar
    40   40   39 ar
    41   41   40 ar
    42   42   41 ar
    43   43   38 ar
    44   44   61 1
    45   45   62 1
    46   46   63 1
    47   47   64 1
    48   48   57 2
    49   49   57 1
    50   50   56 2
    51   51   56 2
    52   52   69 2
    53   53   71 2
    54   54   73 2
    55   55   58 1
    56   56   60 1
    57   57   58 1
    58   58   59 1
    59   59   60 1
    60   60   61 1
    61   61   62 1
    62   62   63 1
    63   63   64 1
    64   64   65 1
    65   65   44 1
    66   66   49 1
    67   67   66 1
    68   68   55 2
    69   69   45 1
    70   70   69 1
    71   71   46 1
    72   72   71 1
    73   73   47 1
    74   74   73 1
    75   75   68 1
    76   76   75 ar
    77   77   76 ar
    78   78   77 ar
    79   79   78 ar
    80   80   75 ar
    81   81   68 1
    82   82   81 ar
    83   83   82 ar
    84   84   83 ar
    85   85   84 ar
    86   86   81 ar
    87   87   58 1
    88   88   60 1
    89   89   61 1
    90   90   62 1
    91   91   63 1
    92   92   64 1
    93   93   59 1
    94   94   59 1
    95   95   65 1
    96   96   65 1
    97   97   66 1
    98   98   66 1
    99   99   67 1
   100  100   67 1
   101  101   67 1
   102  102   76 1
   103  103   77 1
   104  104   78 1
   105  105   79 1
   106  106   80 1
   107  107   82 1
   108  108   83 1
   109  109   84 1
   110  110   85 1
   111  111   86 1
   112  112   70 1
   113  113   70 1
   114  114   70 1
   115  115   72 1
   116  116   72 1
   117  117   72 1
   118  118   74 1
   119  119   74 1
   120  120   74 1
   121   36   37 ar
   122   42   43 ar
   123   79   80 ar
   124   85   86 ar
@<TRIPOS>SUBSTRUCTURE
     1 RES1 1
     2 RES2 44

@<TRIPOS>CRYSIN
   8.4540   43.8330    9.8950  90.0000 114.8200  90.0000   4 1

