# MOL2 file generated by ConQuest
# Please check atom types

@<TRIPOS>MOLECULE
SUHZEC
    92    98     2
SMALL
NO_CHARGES
****
Generated from CSD

@<TRIPOS>ATOM
      1 O1         6.2658    8.6449    7.4934 O.2       1 RES1    0.0000
      2 O2         5.2011    7.8947    5.1746 O.3       1 RES1    0.0000
      3 O3         4.7553   -0.7804    5.4627 O.3       1 RES1    0.0000
      4 N1         5.3825    6.9754    6.2135 N.am      1 RES1    0.0000
      5 C1         6.0150    7.4469    7.3538 C.2       1 RES1    0.0000
      6 C2         6.3059    6.4118    8.3362 C.ar      1 RES1    0.0000
      7 C3         6.8335    6.7957    9.5753 C.ar      1 RES1    0.0000
      8 H1         6.9888    7.6958    9.7502 H         1 RES1    0.0000
      9 C4         7.1206    5.8667   10.5278 C.ar      1 RES1    0.0000
     10 H2         7.4490    6.1332   11.3558 H         1 RES1    0.0000
     11 C5         6.9225    4.5156   10.2558 C.ar      1 RES1    0.0000
     12 H3         7.1286    3.8798   10.9035 H         1 RES1    0.0000
     13 C6         6.4298    4.1157    9.0515 C.ar      1 RES1    0.0000
     14 H4         6.3167    3.2079    8.8830 H         1 RES1    0.0000
     15 C7         6.0861    5.0515    8.0545 C.ar      1 RES1    0.0000
     16 C8         5.4908    4.6699    6.7796 C.2       1 RES1    0.0000
     17 C9         5.1272    5.6385    5.9112 C.2       1 RES1    0.0000
     18 C10        4.4472    5.3894    4.6015 C.ar      1 RES1    0.0000
     19 C11        3.0682    5.4591    4.4881 C.ar      1 RES1    0.0000
     20 H5         2.5514    5.6765    5.2301 H         1 RES1    0.0000
     21 C12        2.4544    5.2065    3.2680 C.ar      1 RES1    0.0000
     22 H6         1.5284    5.2481    3.1962 H         1 RES1    0.0000
     23 C13        3.2115    4.8950    2.1711 C.ar      1 RES1    0.0000
     24 H7         2.7994    4.7340    1.3524 H         1 RES1    0.0000
     25 C14        4.5633    4.8216    2.2762 C.ar      1 RES1    0.0000
     26 H8         5.0742    4.6150    1.5277 H         1 RES1    0.0000
     27 C15        5.1826    5.0504    3.4854 C.ar      1 RES1    0.0000
     28 H9         6.1082    4.9754    3.5496 H         1 RES1    0.0000
     29 C16        5.2653    3.2267    6.4564 C.ar      1 RES1    0.0000
     30 C17        3.9915    2.7067    6.3245 C.ar      1 RES1    0.0000
     31 H10        3.2590    3.2642    6.4597 H         1 RES1    0.0000
     32 C18        3.7728    1.3699    5.9951 C.ar      1 RES1    0.0000
     33 H11        2.9055    1.0434    5.9085 H         1 RES1    0.0000
     34 C19        4.8523    0.5369    5.7986 C.ar      1 RES1    0.0000
     35 C20        6.1387    1.0333    5.9547 C.ar      1 RES1    0.0000
     36 H12        6.8686    0.4682    5.8411 H         1 RES1    0.0000
     37 C21        6.3423    2.3634    6.2789 C.ar      1 RES1    0.0000
     38 H13        7.2088    2.6845    6.3788 H         1 RES1    0.0000
     39 C22        4.0648    8.7384    5.4240 C.3       1 RES1    0.0000
     40 H14        3.2834    8.1953    5.5476 H         1 RES1    0.0000
     41 H15        3.9320    9.3259    4.6759 H         1 RES1    0.0000
     42 H16        4.2202    9.2590    6.2156 H         1 RES1    0.0000
     43 C23        3.4395   -1.3352    5.3710 C.3       1 RES1    0.0000
     44 H17        2.9980   -1.2545    6.2201 H         1 RES1    0.0000
     45 H18        3.4987   -2.2619    5.1282 H         1 RES1    0.0000
     46 H19        2.9374   -0.8606    4.7044 H         1 RES1    0.0000
     47 O4        -1.8199    4.5660    1.3613 O.2       2 RES2    0.0000
     48 O5        -1.9691    2.7153    3.2284 O.3       2 RES2    0.0000
     49 O6         4.7192   -2.6691    1.9352 O.3       2 RES2    0.0000
     50 N2        -0.9113    2.7108    2.3153 N.am      2 RES2    0.0000
     51 C24       -0.9271    3.7173    1.3692 C.2       2 RES2    0.0000
     52 C25        0.1522    3.6220    0.3970 C.ar      2 RES2    0.0000
     53 C26        0.2248    4.5782   -0.6213 C.ar      2 RES2    0.0000
     54 H20       -0.3868    5.2785   -0.6395 H         2 RES2    0.0000
     55 C27        1.1903    4.4911   -1.5931 C.ar      2 RES2    0.0000
     56 H21        1.2281    5.1270   -2.2706 H         2 RES2    0.0000
     57 C28        2.1081    3.4565   -1.5627 C.ar      2 RES2    0.0000
     58 H22        2.7564    3.3962   -2.2271 H         2 RES2    0.0000
     59 C29        2.0719    2.5141   -0.5575 C.ar      2 RES2    0.0000
     60 H23        2.7032    1.8314   -0.5452 H         2 RES2    0.0000
     61 C30        1.0920    2.5705    0.4508 C.ar      2 RES2    0.0000
     62 C31        1.0144    1.5836    1.5054 C.2       2 RES2    0.0000
     63 C32        0.0144    1.6716    2.4214 C.2       2 RES2    0.0000
     64 C33       -0.1528    0.7532    3.5959 C.ar      2 RES2    0.0000
     65 C34       -0.6235   -0.5371    3.4400 C.ar      2 RES2    0.0000
     66 H24       -0.8791   -0.8341    2.5971 H         2 RES2    0.0000
     67 C35       -0.7177   -1.3929    4.5251 C.ar      2 RES2    0.0000
     68 H25       -1.0335   -2.2596    4.4078 H         2 RES2    0.0000
     69 C36       -0.3473   -0.9618    5.7715 C.ar      2 RES2    0.0000
     70 H26       -0.3920   -1.5412    6.4971 H         2 RES2    0.0000
     71 C37        0.0918    0.3301    5.9455 C.ar      2 RES2    0.0000
     72 H27        0.3199    0.6320    6.7952 H         2 RES2    0.0000
     73 C38        0.1947    1.1799    4.8625 C.ar      2 RES2    0.0000
     74 H28        0.5012    2.0488    4.9874 H         2 RES2    0.0000
     75 C39        2.0082    0.4682    1.5683 C.ar      2 RES2    0.0000
     76 C40        1.6699   -0.7927    1.1371 C.ar      2 RES2    0.0000
     77 H29        0.8271   -0.9280    0.7683 H         2 RES2    0.0000
     78 C41        2.5382   -1.8691    1.2323 C.ar      2 RES2    0.0000
     79 H30        2.2737   -2.7148    0.9496 H         2 RES2    0.0000
     80 C42        3.7916   -1.6708    1.7484 C.ar      2 RES2    0.0000
     81 C43        4.1615   -0.4124    2.1548 C.ar      2 RES2    0.0000
     82 H31        5.0151   -0.2730    2.4967 H         2 RES2    0.0000
     83 C44        3.2857    0.6422    2.0613 C.ar      2 RES2    0.0000
     84 H32        3.5592    1.4884    2.3350 H         2 RES2    0.0000
     85 C45       -3.0924    2.0107    2.6633 C.3       2 RES2    0.0000
     86 H33       -3.3171    2.3961    1.8137 H         2 RES2    0.0000
     87 H34       -3.8453    2.0812    3.2561 H         2 RES2    0.0000
     88 H35       -2.8638    1.0857    2.5446 H         2 RES2    0.0000
     89 C46        4.2992   -4.0043    1.6866 C.3       2 RES2    0.0000
     90 H36        3.5309   -4.2039    2.2271 H         2 RES2    0.0000
     91 H37        5.0112   -4.6096    1.9066 H         2 RES2    0.0000
     92 H38        4.0720   -4.1005    0.7593 H         2 RES2    0.0000
@<TRIPOS>BOND
     1    1    5 2
     2    2    4 1
     3    3   34 1
     4    4    5 1
     5    5    6 1
     6    6    7 ar
     7    7    8 1
     8    9    7 ar
     9   10    9 1
    10   11    9 ar
    11   12   11 1
    12   13   11 ar
    13   14   13 1
    14   15    6 ar
    15   16   15 1
    16   17    4 1
    17   18   17 1
    18   19   18 ar
    19   20   19 1
    20   21   19 ar
    21   22   21 1
    22   23   21 ar
    23   24   23 1
    24   25   23 ar
    25   26   25 1
    26   27   18 ar
    27   28   27 1
    28   29   16 1
    29   30   29 ar
    30   31   30 1
    31   32   30 ar
    32   33   32 1
    33   34   32 ar
    34   35   34 ar
    35   36   35 1
    36   37   29 ar
    37   38   37 1
    38   39    2 1
    39   40   39 1
    40   41   39 1
    41   42   39 1
    42   43    3 1
    43   44   43 1
    44   45   43 1
    45   46   43 1
    46   47   51 2
    47   48   50 1
    48   49   80 1
    49   50   51 1
    50   51   52 1
    51   52   53 ar
    52   53   54 1
    53   55   53 ar
    54   56   55 1
    55   57   55 ar
    56   58   57 1
    57   59   57 ar
    58   60   59 1
    59   61   52 ar
    60   62   61 1
    61   63   50 1
    62   64   63 1
    63   65   64 ar
    64   66   65 1
    65   67   65 ar
    66   68   67 1
    67   69   67 ar
    68   70   69 1
    69   71   69 ar
    70   72   71 1
    71   73   64 ar
    72   74   73 1
    73   75   62 1
    74   76   75 ar
    75   77   76 1
    76   78   76 ar
    77   79   78 1
    78   80   78 ar
    79   81   80 ar
    80   82   81 1
    81   83   75 ar
    82   84   83 1
    83   85   48 1
    84   86   85 1
    85   87   85 1
    86   88   85 1
    87   89   49 1
    88   90   89 1
    89   91   89 1
    90   92   89 1
    91   13   15 ar
    92   16   17 2
    93   25   27 ar
    94   35   37 ar
    95   59   61 ar
    96   62   63 2
    97   71   73 ar
    98   81   83 ar
@<TRIPOS>SUBSTRUCTURE
     1 RES1 1
     2 RES2 47

@<TRIPOS>CRYSIN
   9.9530   12.5810   15.1070  90.3200  97.3500  99.5100   2 1

