# MOL2 file generated by ConQuest
# Please check atom types

@<TRIPOS>MOLECULE
SUHZOM
    34    36     1
SMALL
NO_CHARGES
****
Generated from CSD

@<TRIPOS>ATOM
      1 O1        -4.6419    0.6297   20.2057 O.2       1 RES1    0.0000
      2 O2        -6.0215    0.4792   17.9728 O.3       1 RES1    0.0000
      3 O3        -6.3195    1.4894   15.4592 O.2       1 RES1    0.0000
      4 N1        -4.8459    1.2251   18.0147 N.am      1 RES1    0.0000
      5 C1        -4.1808    1.2132   19.2310 C.2       1 RES1    0.0000
      6 C2        -2.9408    1.9944   19.2350 C.ar      1 RES1    0.0000
      7 C3        -2.2725    2.1741   20.4565 C.ar      1 RES1    0.0000
      8 H1        -2.5753    1.7172   21.2319 H         1 RES1    0.0000
      9 C4        -1.1812    3.0084   20.5373 C.ar      1 RES1    0.0000
     10 H2        -0.7299    3.1274   21.3645 H         1 RES1    0.0000
     11 C5        -0.7407    3.6816   19.3890 C.ar      1 RES1    0.0000
     12 H3        -0.0115    4.2880   19.4495 H         1 RES1    0.0000
     13 C6        -1.3546    3.4728   18.1724 C.ar      1 RES1    0.0000
     14 H4        -1.0280    3.9184   17.4003 H         1 RES1    0.0000
     15 C7        -2.4593    2.6078   18.0606 C.ar      1 RES1    0.0000
     16 C8        -3.1468    2.3805   16.7998 C.2       1 RES1    0.0000
     17 C9        -4.3408    1.7253   16.8146 C.2       1 RES1    0.0000
     18 C10       -2.5470    2.9262   15.5465 C.ar      1 RES1    0.0000
     19 C11       -1.2915    2.4729   15.1248 C.ar      1 RES1    0.0000
     20 H5        -0.8496    1.7834   15.6057 H         1 RES1    0.0000
     21 C12       -0.6899    3.0299   14.0039 C.ar      1 RES1    0.0000
     22 H6         0.1602    2.7149   13.7204 H         1 RES1    0.0000
     23 C13       -1.3219    4.0427   13.2964 C.ar      1 RES1    0.0000
     24 H7        -0.9002    4.4294   12.5379 H         1 RES1    0.0000
     25 C14       -2.5741    4.4885   13.7022 C.ar      1 RES1    0.0000
     26 H8        -3.0132    5.1756   13.2163 H         1 RES1    0.0000
     27 C15       -3.1871    3.9287   14.8222 C.ar      1 RES1    0.0000
     28 H9        -4.0456    4.2325   15.0929 H         1 RES1    0.0000
     29 C16       -5.1172    1.5529   15.5530 C.2       1 RES1    0.0000
     30 H10       -4.6193    1.4863   14.7476 H         1 RES1    0.0000
     31 C17       -7.1202    1.3072   18.4134 C.3       1 RES1    0.0000
     32 H11       -6.9093    1.6894   19.2908 H         1 RES1    0.0000
     33 H12       -7.9326    0.7633   18.4798 H         1 RES1    0.0000
     34 H13       -7.2639    2.0303   17.7683 H         1 RES1    0.0000
@<TRIPOS>BOND
     1    1    5 2
     2    2    4 1
     3    3   29 2
     4    4    5 1
     5    5    6 1
     6    6    7 ar
     7    7    8 1
     8    9    7 ar
     9   10    9 1
    10   11    9 ar
    11   12   11 1
    12   13   11 ar
    13   14   13 1
    14   15    6 ar
    15   16   15 1
    16   17    4 1
    17   18   16 1
    18   19   18 ar
    19   20   19 1
    20   21   19 ar
    21   22   21 1
    22   23   21 ar
    23   24   23 1
    24   25   23 ar
    25   26   25 1
    26   27   18 ar
    27   28   27 1
    28   29   17 1
    29   30   29 1
    30   31    2 1
    31   32   31 1
    32   33   31 1
    33   34   31 1
    34   13   15 ar
    35   16   17 2
    36   25   27 ar
@<TRIPOS>SUBSTRUCTURE
     1 RES1 1

@<TRIPOS>CRYSIN
   8.4145    8.9482   17.8380  90.0000 102.1200  90.0000 231 1

