# MOL2 file generated by ConQuest
# Please check atom types

@<TRIPOS>MOLECULE
SUJBAC
    42    45     1
SMALL
NO_CHARGES
****
Generated from CSD

@<TRIPOS>ATOM
      1 C1         0.7882    6.7985    0.3927 C.ar      1 RES1    0.0000
      2 N1         1.9446    7.3542    2.5192 N.am      1 RES1    0.0000
      3 C2         1.5668    5.6564    0.2069 C.ar      1 RES1    0.0000
      4 O1         1.2995    5.5221    3.7607 O.2       1 RES1    0.0000
      5 N2        -0.8250    8.3918   -0.6016 N.pl3     1 RES1    0.0000
      6 C3         2.6404    9.7406    2.6976 C.ar      1 RES1    0.0000
      7 O2        -1.5976    8.4267    0.3500 O.2       1 RES1    0.0000
      8 C4         3.0550    8.3058    2.4252 C.3       1 RES1    0.0000
      9 C5         2.1103    6.3985    3.4855 C.2       1 RES1    0.0000
     10 C6         3.9953    7.7725    3.4860 C.ar      1 RES1    0.0000
     11 C7         0.0762    7.2323   -0.7194 C.ar      1 RES1    0.0000
     12 C8         0.7270    7.4911    1.7395 C.3       1 RES1    0.0000
     13 C9         0.1201    6.6057   -1.9499 C.ar      1 RES1    0.0000
     14 C10        3.4333    6.6649    4.0950 C.ar      1 RES1    0.0000
     15 C11        0.8874    5.4685   -2.0883 C.ar      1 RES1    0.0000
     16 C12        1.6057    4.9990   -1.0142 C.ar      1 RES1    0.0000
     17 C13        4.0690    6.0056    5.1484 C.ar      1 RES1    0.0000
     18 C14        1.7818   10.0291    3.7404 C.ar      1 RES1    0.0000
     19 O3        -0.7684    9.2450   -1.4716 O.2       1 RES1    0.0000
     20 C15        5.2134    8.2783    3.9092 C.ar      1 RES1    0.0000
     21 C16        3.1505   10.7709    1.9333 C.ar      1 RES1    0.0000
     22 C17        5.2890    6.5058    5.5585 C.ar      1 RES1    0.0000
     23 C18        1.4486   11.3435    4.0260 C.ar      1 RES1    0.0000
     24 C19        2.8133   12.0833    2.2204 C.ar      1 RES1    0.0000
     25 C20        1.9777   12.3706    3.2679 C.ar      1 RES1    0.0000
     26 C21        5.8480    7.6213    4.9582 C.ar      1 RES1    0.0000
     27 H1         2.0697    5.3169    0.9741 H         1 RES1    0.0000
     28 H2         0.5716    8.4405    1.6239 H         1 RES1    0.0000
     29 H3        -0.0198    7.0820    2.2826 H         1 RES1    0.0000
     30 H4         3.4536    8.2608    1.5284 H         1 RES1    0.0000
     31 H5         0.9061    5.0035   -2.9380 H         1 RES1    0.0000
     32 H6        -0.4247    6.9561   -2.6769 H         1 RES1    0.0000
     33 H7         1.4104    9.2949    4.2675 H         1 RES1    0.0000
     34 H8         3.6356    5.2296    5.5738 H         1 RES1    0.0000
     35 H9         2.1262    4.1988   -1.0963 H         1 RES1    0.0000
     36 H10        5.5867    9.0727    3.5067 H         1 RES1    0.0000
     37 H11        5.7755    6.0803    6.2947 H         1 RES1    0.0000
     38 H12        1.7345   13.2358    3.4800 H         1 RES1    0.0000
     39 H13        0.8472   11.5011    4.7685 H         1 RES1    0.0000
     40 H14        3.7693   10.5351    1.1730 H         1 RES1    0.0000
     41 H15        6.6896    7.9962    5.2683 H         1 RES1    0.0000
     42 H16        3.1819   12.8385    1.6584 H         1 RES1    0.0000
@<TRIPOS>BOND
     1    1    3 ar
     2    2    8 1
     3    3   16 ar
     4    4    9 2
     5    5    7 2
     6    6    8 1
     7    8   10 1
     8    9    2 1
     9   10   14 ar
    10   11    1 ar
    11   12    1 1
    12   13   11 ar
    13   14    9 1
    14   15   13 ar
    15   16   15 ar
    16   17   14 ar
    17   18    6 ar
    18   19    5 2
    19   20   10 ar
    20   21    6 ar
    21   22   17 ar
    22   23   18 ar
    23   24   21 ar
    24   25   23 ar
    25   26   20 ar
    26   27    3 1
    27   28   12 1
    28   29   12 1
    29   30    8 1
    30   31   15 1
    31   32   13 1
    32   33   18 1
    33   34   17 1
    34   35   16 1
    35   36   20 1
    36   37   22 1
    37   38   25 1
    38   39   23 1
    39   40   21 1
    40   41   26 1
    41   42   24 1
    42    2   12 1
    43    5   11 1
    44   22   26 ar
    45   24   25 ar
@<TRIPOS>SUBSTRUCTURE
     1 RES1 1

@<TRIPOS>CRYSIN
   7.4641   10.1247   11.5543  93.2170 105.3980  93.6020   2 1

