# MOL2 file generated by ConQuest
# Please check atom types

@<TRIPOS>MOLECULE
SUKBIJ
    56    58     1
SMALL
NO_CHARGES
****
Generated from CSD

@<TRIPOS>ATOM
      1 C1         4.6401    2.2484   12.2192 C.2       1 RES1    0.0000
      2 C2         5.1016    1.0953   13.0021 C.ar      1 RES1    0.0000
      3 C3         6.3846    1.0411   13.5085 C.ar      1 RES1    0.0000
      4 C4         4.2278    0.0507   13.2581 C.ar      1 RES1    0.0000
      5 C5         3.5556    3.5311   10.5610 C.3       1 RES1    0.0000
      6 C6         4.3585    3.3472    9.2538 C.3       1 RES1    0.0000
      7 C7         4.2395    4.4802   11.5724 C.3       1 RES1    0.0000
      8 C8         2.1140    3.7928   10.2721 C.3       1 RES1    0.0000
      9 C9         5.0739    5.5944   10.9821 C.3       1 RES1    0.0000
     10 C10        3.2787    5.0662   12.5934 C.3       1 RES1    0.0000
     11 N1         3.6912    2.2153   11.2876 N.3       1 RES1    0.0000
     12 N2         5.1072    3.5158   12.3292 N.pl3     1 RES1    0.0000
     13 O1         3.0215    1.2061   10.9078 O.2       1 RES1    0.0000
     14 O2         6.0147    3.9155   13.1246 O.2       1 RES1    0.0000
     15 H1         7.0329    1.7378   13.3654 H         1 RES1    0.0000
     16 H2         3.3971    0.0613   12.9471 H         1 RES1    0.0000
     17 H3         4.3136    4.1878    8.7144 H         1 RES1    0.0000
     18 H4         3.9695    2.5914    8.7268 H         1 RES1    0.0000
     19 H5         5.3126    3.1432    9.4753 H         1 RES1    0.0000
     20 H6         1.4609    3.6962   11.0743 H         1 RES1    0.0000
     21 H7         1.7413    3.0843    9.6749 H         1 RES1    0.0000
     22 H8         1.9820    4.6724    9.9473 H         1 RES1    0.0000
     23 H9         5.8217    5.3138   10.4633 H         1 RES1    0.0000
     24 H10        5.5725    6.1202   11.6715 H         1 RES1    0.0000
     25 H11        4.3868    6.1532   10.5087 H         1 RES1    0.0000
     26 H12        2.6718    5.7205   12.1421 H         1 RES1    0.0000
     27 H13        3.7970    5.5319   13.3103 H         1 RES1    0.0000
     28 H14        2.7345    4.3316   12.9980 H         1 RES1    0.0000
     29 C4B        6.7944   -0.0507   14.2626 C.ar      1 RES1    0.0000
     30 C3B        4.6376   -1.0411   14.0121 C.ar      1 RES1    0.0000
     31 C2B        5.9207   -1.0953   14.5185 C.ar      1 RES1    0.0000
     32 H2B        7.6252   -0.0613   14.5735 H         1 RES1    0.0000
     33 H1B        3.9894   -1.7378   14.1552 H         1 RES1    0.0000
     34 C1B        6.3822   -2.2484   15.3015 C.2       1 RES1    0.0000
     35 N1B        7.3311   -2.2153   16.2330 N.pl3     1 RES1    0.0000
     36 N2B        5.9151   -3.5158   15.1914 N.3       1 RES1    0.0000
     37 C5B        7.4667   -3.5311   16.9596 C.3       1 RES1    0.0000
     38 O1B        8.0008   -1.2061   16.6128 O.2       1 RES1    0.0000
     39 C7B        6.7828   -4.4802   15.9482 C.3       1 RES1    0.0000
     40 O2B        5.0076   -3.9155   14.3960 O.2       1 RES1    0.0000
     41 C6B        6.6637   -3.3472   18.2668 C.3       1 RES1    0.0000
     42 C8B        8.9083   -3.7928   17.2485 C.3       1 RES1    0.0000
     43 C9B        5.9484   -5.5944   16.5385 C.3       1 RES1    0.0000
     44 C10B       7.7436   -5.0662   14.9272 C.3       1 RES1    0.0000
     45 H3B        6.7087   -4.1878   18.8062 H         1 RES1    0.0000
     46 H4B        7.0528   -2.5914   18.7938 H         1 RES1    0.0000
     47 H5B        5.7097   -3.1432   18.0453 H         1 RES1    0.0000
     48 H6B        9.5614   -3.6962   16.4463 H         1 RES1    0.0000
     49 H7B        9.2810   -3.0843   17.8457 H         1 RES1    0.0000
     50 H8B        9.0403   -4.6724   17.5733 H         1 RES1    0.0000
     51 H9B        5.2006   -5.3138   17.0573 H         1 RES1    0.0000
     52 H10B       5.4498   -6.1202   15.8491 H         1 RES1    0.0000
     53 H11B       6.6355   -6.1532   17.0119 H         1 RES1    0.0000
     54 H12B       8.3505   -5.7205   15.3785 H         1 RES1    0.0000
     55 H13B       7.2253   -5.5319   14.2103 H         1 RES1    0.0000
     56 H14B       8.2878   -4.3316   14.5226 H         1 RES1    0.0000
@<TRIPOS>BOND
     1    1    2 1
     2    2    3 ar
     3    3   15 1
     4    4    2 ar
     5    5    6 1
     6    6   17 1
     7    7    5 1
     8    8    5 1
     9    9    7 1
    10   10    7 1
    11   11    1 1
    12   12    1 2
    13   13   11 1
    14   14   12 1
    15   16    4 1
    16   18    6 1
    17   19    6 1
    18   20    8 1
    19   21    8 1
    20   22    8 1
    21   23    9 1
    22   24    9 1
    23   25    9 1
    24   26   10 1
    25   27   10 1
    26   28   10 1
    27   29    3 ar
    28   30    4 ar
    29   31   29 ar
    30   32   29 1
    31   33   30 1
    32   34   31 1
    33   35   34 2
    34   36   34 1
    35   37   35 1
    36   38   35 1
    37   39   36 1
    38   40   36 1
    39   41   37 1
    40   42   37 1
    41   43   39 1
    42   44   39 1
    43   45   41 1
    44   46   41 1
    45   47   41 1
    46   48   42 1
    47   49   42 1
    48   50   42 1
    49   51   43 1
    50   52   43 1
    51   53   43 1
    52   54   44 1
    53   55   44 1
    54   56   44 1
    55    5   11 1
    56    7   12 1
    57   30   31 ar
    58   37   39 1
@<TRIPOS>SUBSTRUCTURE
     1 RES1 1

@<TRIPOS>CRYSIN
   6.2660   11.7900   13.7810  90.0000  93.1400  90.0000  14 1

