# MOL2 file generated by ConQuest
# Please check atom types

@<TRIPOS>MOLECULE
SUKBOP
    50    46     2
SMALL
NO_CHARGES
****
Generated from CSD

@<TRIPOS>ATOM
      1 C1         0.5672   10.4161    5.5708 C.ar      1 RES1    0.0000
      2 C2         1.2757    9.6627    6.4951 C.ar      1 RES1    0.0000
      3 C3         0.6373    9.1452    7.6158 C.ar      1 RES1    0.0000
      4 C4        -0.7339    9.4166    7.7964 C.ar      1 RES1    0.0000
      5 C5        -1.4275   10.1345    6.8653 C.ar      1 RES1    0.0000
      6 C6        -0.7991   10.6419    5.7491 C.ar      1 RES1    0.0000
      7 C7         1.2379   10.9260    4.3745 C.2       1 RES1    0.0000
      8 C8         2.9667   11.4790    2.8802 C.3       1 RES1    0.0000
      9 C9         1.5734   11.7606    2.2030 C.3       1 RES1    0.0000
     10 C10        3.5763   10.1523    2.4818 C.3       1 RES1    0.0000
     11 C11        3.9633   12.5952    2.7470 C.3       1 RES1    0.0000
     12 C12        1.4005   11.1898    0.8058 C.3       1 RES1    0.0000
     13 C13        1.1555   13.2066    2.2730 C.3       1 RES1    0.0000
     14 C14        1.3527    8.3131    8.5751 C.2       1 RES1    0.0000
     15 C15        2.8202    6.7276    9.5243 C.3       1 RES1    0.0000
     16 C16        1.5941    6.8798   10.4892 C.3       1 RES1    0.0000
     17 C17        2.3181    7.5216   10.5829 Du        2 SUP2    0.0000
     18 C18        3.3333    5.4465    9.2229 C.3       1 RES1    0.0000
     19 C19        4.2282    6.2202    9.4182 Du        2 SUP2    0.0000
     20 C20        4.0289    7.6738   10.0378 C.3       1 RES1    0.0000
     21 C21        1.9076    5.3400    9.2850 Du        2 SUP2    0.0000
     22 C22        1.7562    6.9863   11.8943 C.3       1 RES1    0.0000
     23 C23        0.6798    5.6697   10.3007 C.3       1 RES1    0.0000
     24 C24        3.5261    8.4856   11.0072 Du        2 SUP2    0.0000
     25 N1         2.5257   11.3192    4.3000 N.3       1 RES1    0.0000
     26 N2         0.6788   11.0376    3.1544 N.pl3     1 RES1    0.0000
     27 N3         2.3550    7.4759    8.3031 N.pl3     1 RES1    0.0000
     28 N4         0.9132    8.0087    9.9001 N.3       1 RES1    0.0000
     29 N5         1.3082    8.4425    9.8504 Du        2 SUP2    0.0000
     30 O1         3.3490   11.4207    5.2830 O.2       1 RES1    0.0000
     31 O2        -0.4997   10.6571    2.8046 O.2       1 RES1    0.0000
     32 O3         2.8700    7.2603    7.1395 O.2       1 RES1    0.0000
     33 O4        -0.0608    8.6429   10.4960 O.2       1 RES1    0.0000
     34 O5         0.5662    9.1858   10.5468 Du        2 SUP2    0.0000
     35 H1         2.1881    9.4927    6.3202 H         1 RES1    0.0000
     36 H2        -1.1895    9.0868    8.5999 H         1 RES1    0.0000
     37 H3        -2.2731   10.3298    7.0673 H         1 RES1    0.0000
     38 H4        -1.3418   11.1568    5.1351 H         1 RES1    0.0000
     39 H5         3.8829   10.1954    1.5405 H         1 RES1    0.0000
     40 H6         2.9017    9.4445    2.5540 H         1 RES1    0.0000
     41 H7         4.3324    9.9443    3.0664 H         1 RES1    0.0000
     42 H8         4.2339   12.6815    1.8035 H         1 RES1    0.0000
     43 H9         4.7497   12.3999    3.3023 H         1 RES1    0.0000
     44 H10        3.5597   13.4349    3.0438 H         1 RES1    0.0000
     45 H11        1.9834   11.6845    0.1828 H         1 RES1    0.0000
     46 H12        0.4671   11.3192    0.5146 H         1 RES1    0.0000
     47 H13        1.6259   10.2563    0.8002 H         1 RES1    0.0000
     48 H14        1.7101   13.7444    1.6636 H         1 RES1    0.0000
     49 H15        1.2685   13.5440    3.1939 H         1 RES1    0.0000
     50 H16        0.2165   13.3004    2.0033 H         1 RES1    0.0000
@<TRIPOS>BOND
     1    1    2 ar
     2    2    3 ar
     3    3    4 ar
     4    4    5 ar
     5    5    6 ar
     6    6    1 ar
     7    7    1 1
     8    8    9 1
     9    9   12 1
    10   10    8 1
    11   11    8 1
    12   12   45 1
    13   13    9 1
    14   14    3 1
    15   15   16 1
    16   16   22 1
    17   18   15 1
    18   20   15 1
    19   23   16 1
    20   25    7 1
    21   26    7 2
    22   27   14 2
    23   28   14 1
    24   30   25 1
    25   31   26 1
    26   32   27 1
    27   33   28 1
    28   35    2 1
    29   36    4 1
    30   37    5 1
    31   38    6 1
    32   39   10 1
    33   40   10 1
    34   41   10 1
    35   42   11 1
    36   43   11 1
    37   44   11 1
    38   46   12 1
    39   47   12 1
    40   48   13 1
    41   49   13 1
    42   50   13 1
    43    8   25 1
    44    9   26 1
    45   15   27 1
    46   16   28 1
@<TRIPOS>SUBSTRUCTURE
     1 RES1 1
     2 SUP2 17

@<TRIPOS>CRYSIN
   7.3180   25.3680   11.6690  90.0000 104.7200  90.0000 231 1

