# MOL2 file generated by ConQuest
# Please check atom types

@<TRIPOS>MOLECULE
SUKKIU
    92    96     2
SMALL
NO_CHARGES
****
Generated from CSD

@<TRIPOS>ATOM
      1 O1        -3.9832  -17.0444   -5.4586 O.2       1 RES1    0.0000
      2 N1        -3.0085  -15.0921   -4.8342 N.am      1 RES1    0.0000
      3 C1        -3.6999  -15.8622   -5.6666 C.2       1 RES1    0.0000
      4 O2        -3.1377  -12.4924  -10.6455 O.2       1 RES1    0.0000
      5 C2        -4.1230  -15.2082   -6.9569 C.ar      1 RES1    0.0000
      6 C3        -3.2715  -14.3654   -7.6513 C.ar      1 RES1    0.0000
      7 H1        -2.4531  -14.1191   -7.2853 H         1 RES1    0.0000
      8 C4        -2.5199  -15.5609   -3.5327 C.3       1 RES1    0.0000
      9 H2        -3.1227  -16.2620   -3.2084 H         1 RES1    0.0000
     10 N2        -2.7206  -13.0307   -9.6371 N.pl3     1 RES1    0.0000
     11 O3        -1.5940  -12.8984   -9.2055 O.2       1 RES1    0.0000
     12 C5        -1.0589  -16.1109   -3.5016 C.3       1 RES1    0.0000
     13 C6        -5.3510  -15.5362   -7.4945 C.ar      1 RES1    0.0000
     14 H3        -5.9395  -16.0884   -7.0320 H         1 RES1    0.0000
     15 C7        -3.6518  -13.8933   -8.8956 C.ar      1 RES1    0.0000
     16 O4        -7.2096  -15.1140  -10.4720 O.2       1 RES1    0.0000
     17 C8        -4.8595  -14.2175   -9.4648 C.ar      1 RES1    0.0000
     18 H4        -5.1023  -13.9022  -10.3054 H         1 RES1    0.0000
     19 C9        -0.9996  -16.9092   -2.2003 C.3       1 RES1    0.0000
     20 H5        -1.7601  -17.5063   -2.1254 H         1 RES1    0.0000
     21 H6        -0.1834  -17.4312   -2.1511 H         1 RES1    0.0000
     22 C10       -0.6576  -16.9035   -4.7232 C.3       1 RES1    0.0000
     23 H7        -1.2303  -17.6701   -4.8107 H         1 RES1    0.0000
     24 H8        -0.7440  -16.3519   -5.5043 H         1 RES1    0.0000
     25 H9         0.2525  -17.1923   -4.6321 H         1 RES1    0.0000
     26 C11       -0.2164  -14.8653   -3.1290 C.3       1 RES1    0.0000
     27 C12       -5.6892  -15.0267   -8.7361 C.ar      1 RES1    0.0000
     28 N3        -7.0007  -15.3825   -9.3080 N.pl3     1 RES1    0.0000
     29 C13       -2.4854  -14.4259   -2.4923 C.3       1 RES1    0.0000
     30 H10       -2.6199  -13.5622   -2.9127 H         1 RES1    0.0000
     31 H11       -3.1633  -14.5559   -1.8110 H         1 RES1    0.0000
     32 C14       -0.1661  -13.7680   -4.1959 C.3       1 RES1    0.0000
     33 H12        0.2480  -14.1143   -4.9915 H         1 RES1    0.0000
     34 H13       -1.0589  -13.4764   -4.3987 H         1 RES1    0.0000
     35 H14        0.3457  -13.0248   -3.8678 H         1 RES1    0.0000
     36 O5        -7.8116  -15.9276   -8.5697 O.2       1 RES1    0.0000
     37 C15       -1.0326  -15.8406   -1.1013 C.3       1 RES1    0.0000
     38 H15       -1.8203  -15.9355   -0.5431 H         1 RES1    0.0000
     39 H16       -0.2405  -15.8861   -0.5435 H         1 RES1    0.0000
     40 C16       -1.0732  -14.5381   -1.8973 C.3       1 RES1    0.0000
     41 H17       -0.7801  -13.7479   -1.3974 H         1 RES1    0.0000
     42 C17        1.2521  -15.2041   -2.7800 C.3       1 RES1    0.0000
     43 H18        1.2724  -15.8092   -2.0346 H         1 RES1    0.0000
     44 H19        1.6745  -15.6148   -3.5382 H         1 RES1    0.0000
     45 H20        1.7210  -14.3978   -2.5518 H         1 RES1    0.0000
     46 H21       -3.0062  -14.1932   -4.9388 H         1 RES1    0.0000
     47 N4        -2.4147   -8.5858   -9.8442 N.pl3     2 RES2    0.0000
     48 O6        -3.1385  -12.0945   -5.1510 O.2       2 RES2    0.0000
     49 O7        -3.5443   -8.1689   -9.7955 O.2       2 RES2    0.0000
     50 O8        -1.6587   -8.3651  -10.7755 O.2       2 RES2    0.0000
     51 N5        -3.9892  -10.0086   -4.9187 N.am      2 RES2    0.0000
     52 H22       -3.9877   -9.1959   -5.2004 H         2 RES2    0.0000
     53 N6         1.1506  -11.2136   -7.7673 N.pl3     2 RES2    0.0000
     54 O9         1.4460  -12.0498   -6.9345 O.2       2 RES2    0.0000
     55 C18       -3.1963  -10.9099   -5.4963 C.2       2 RES2    0.0000
     56 C19       -1.9165   -9.3897   -8.7182 C.ar      2 RES2    0.0000
     57 O10        1.9082  -10.8230   -8.6267 O.2       2 RES2    0.0000
     58 C20       -2.7582   -9.6297   -7.6478 C.ar      2 RES2    0.0000
     59 H23       -3.6044   -9.2447   -7.6137 H         2 RES2    0.0000
     60 C21       -4.2613  -10.2396   -2.3721 C.3       2 RES2    0.0000
     61 C22       -0.2149  -10.6584   -7.7332 C.ar      2 RES2    0.0000
     62 C23       -2.3155  -10.4551   -6.6278 C.ar      2 RES2    0.0000
     63 C24       -1.0311  -10.9800   -6.6807 C.ar      2 RES2    0.0000
     64 H24       -0.7275  -11.5451   -6.0074 H         2 RES2    0.0000
     65 C25       -0.6336   -9.8824   -8.7835 C.ar      2 RES2    0.0000
     66 H25       -0.0767   -9.6981   -9.5053 H         2 RES2    0.0000
     67 C26       -4.8640  -10.3903   -3.8080 C.3       2 RES2    0.0000
     68 H26       -5.0993  -11.3337   -3.9305 H         2 RES2    0.0000
     69 C27       -4.8437   -8.8942   -1.8835 C.3       2 RES2    0.0000
     70 C28       -4.2853   -7.6835   -2.6072 C.3       2 RES2    0.0000
     71 H27       -3.3519   -7.5917   -2.4030 H         2 RES2    0.0000
     72 H28       -4.3966   -7.7963   -3.5540 H         2 RES2    0.0000
     73 H29       -4.7573   -6.8951   -2.3229 H         2 RES2    0.0000
     74 C29       -5.0963  -11.2400   -1.5402 C.3       2 RES2    0.0000
     75 H30       -5.1256  -12.1107   -1.9666 H         2 RES2    0.0000
     76 H31       -4.7363  -11.3372   -0.6449 H         2 RES2    0.0000
     77 C30       -6.1815   -9.5898   -3.7460 C.3       2 RES2    0.0000
     78 H32       -6.1289   -8.7808   -4.2788 H         2 RES2    0.0000
     79 H33       -6.9330  -10.1230   -4.0492 H         2 RES2    0.0000
     80 C31       -6.2942   -9.2668   -2.2511 C.3       2 RES2    0.0000
     81 H34       -6.9556   -8.5771   -2.0350 H         2 RES2    0.0000
     82 C32       -2.7650  -10.4045   -2.2740 C.3       2 RES2    0.0000
     83 H35       -2.5260  -11.3036   -2.5106 H         2 RES2    0.0000
     84 H36       -2.3351   -9.7909   -2.8745 H         2 RES2    0.0000
     85 H37       -2.4816  -10.2242   -1.3755 H         2 RES2    0.0000
     86 C33       -6.4949  -10.5877   -1.5100 C.3       2 RES2    0.0000
     87 H38       -7.1487  -11.1442   -1.9618 H         2 RES2    0.0000
     88 H39       -6.7880  -10.4340   -0.5980 H         2 RES2    0.0000
     89 C34       -4.6438   -8.6482   -0.3724 C.3       2 RES2    0.0000
     90 H40       -5.1331   -9.3049    0.1266 H         2 RES2    0.0000
     91 H41       -3.7104   -8.7156   -0.1579 H         2 RES2    0.0000
     92 H42       -4.9602   -7.7699   -0.1465 H         2 RES2    0.0000
@<TRIPOS>BOND
     1    1    3 2
     2    2    3 1
     3    3    5 1
     4    4   10 2
     5    5    6 ar
     6    6    7 1
     7    8    2 1
     8    9    8 1
     9   10   11 2
    10   12    8 1
    11   13    5 ar
    12   14   13 1
    13   15    6 ar
    14   16   28 2
    15   17   15 ar
    16   18   17 1
    17   19   12 1
    18   20   19 1
    19   21   19 1
    20   22   12 1
    21   23   22 1
    22   24   22 1
    23   25   22 1
    24   26   12 1
    25   27   13 ar
    26   28   27 1
    27   29    8 1
    28   30   29 1
    29   31   29 1
    30   32   26 1
    31   33   32 1
    32   34   32 1
    33   35   32 1
    34   36   28 2
    35   37   19 1
    36   38   37 1
    37   39   37 1
    38   40   26 1
    39   41   40 1
    40   42   26 1
    41   43   42 1
    42   44   42 1
    43   45   42 1
    44   46    2 1
    45   47   49 2
    46   48   55 2
    47   50   47 2
    48   51   52 1
    49   53   54 2
    50   55   51 1
    51   56   47 1
    52   57   53 2
    53   58   56 ar
    54   59   58 1
    55   60   67 1
    56   61   53 1
    57   62   55 1
    58   63   61 ar
    59   64   63 1
    60   65   56 ar
    61   66   65 1
    62   67   51 1
    63   68   67 1
    64   69   60 1
    65   70   69 1
    66   71   70 1
    67   72   70 1
    68   73   70 1
    69   74   60 1
    70   75   74 1
    71   76   74 1
    72   77   67 1
    73   78   77 1
    74   79   77 1
    75   80   69 1
    76   81   80 1
    77   82   60 1
    78   83   82 1
    79   84   82 1
    80   85   82 1
    81   86   74 1
    82   87   86 1
    83   88   86 1
    84   89   69 1
    85   90   89 1
    86   91   89 1
    87   92   89 1
    88   10   15 1
    89   17   27 ar
    90   29   40 1
    91   37   40 1
    92   58   62 ar
    93   61   65 ar
    94   62   63 ar
    95   77   80 1
    96   80   86 1
@<TRIPOS>SUBSTRUCTURE
     1 RES1 1
     2 RES2 47

@<TRIPOS>CRYSIN
   7.5155   20.2500   22.8861  90.0000  90.0000  90.0000  19 1

