# MOL2 file generated by ConQuest
# Please check atom types

@<TRIPOS>MOLECULE
SUKZII
    47    51     1
SMALL
NO_CHARGES
****
Generated from CSD

@<TRIPOS>ATOM
      1 O1         6.1486    8.9582    0.9074 O.2       1 RES1    0.0000
      2 C1         7.4300    9.8934    2.6523 C.3       1 RES1    0.0000
      3 H1         8.3692    9.6197    2.7112 H         1 RES1    0.0000
      4 C2         6.9498    9.8186    1.2154 C.2       1 RES1    0.0000
      5 C3         7.4606   10.7872    0.2149 C.ar      1 RES1    0.0000
      6 C4         6.8635   10.8227   -1.0356 C.ar      1 RES1    0.0000
      7 H2         6.1664   10.2392   -1.2359 H         1 RES1    0.0000
      8 C5         8.5056   11.6492    0.4821 C.ar      1 RES1    0.0000
      9 H3         8.9192   11.6302    1.3149 H         1 RES1    0.0000
     10 C6         8.3292   12.5802   -1.6987 C.ar      1 RES1    0.0000
     11 H4         8.6138   13.1941   -2.3367 H         1 RES1    0.0000
     12 C7         8.9372   12.5357   -0.4765 C.ar      1 RES1    0.0000
     13 H5         9.6469   13.1086   -0.2921 H         1 RES1    0.0000
     14 C8         7.3038   11.7266   -1.9862 C.ar      1 RES1    0.0000
     15 H6         6.8996   11.7516   -2.8235 H         1 RES1    0.0000
     16 O2         7.2799   11.2736    3.0899 O.3       1 RES1    0.0000
     17 N1         7.3525   11.2930    4.4888 N.3       1 RES1    0.0000
     18 O3         8.8200   11.2633    4.7616 O.3       1 RES1    0.0000
     19 C9         6.5945    9.1312    3.6725 C.3       1 RES1    0.0000
     20 H7         5.6470    9.2259    3.4397 H         1 RES1    0.0000
     21 C10        6.8750    9.9362    4.9491 C.3       1 RES1    0.0000
     22 H8         6.0493   10.0331    5.4682 H         1 RES1    0.0000
     23 O4         8.7326    8.3150    5.2243 O.3       1 RES1    0.0000
     24 C11        7.9584    7.3192    4.6663 C.ar      1 RES1    0.0000
     25 C12        6.9118    7.6652    3.8378 C.ar      1 RES1    0.0000
     26 C13        7.9807    9.3762    5.8355 C.3       1 RES1    0.0000
     27 H9         7.6321    9.1062    6.7110 H         1 RES1    0.0000
     28 C14        7.6072    5.0070    4.2560 C.ar      1 RES1    0.0000
     29 H10        7.8362    4.1162    4.3927 H         1 RES1    0.0000
     30 C15        6.2129    6.6498    3.2087 C.ar      1 RES1    0.0000
     31 H11        5.4972    6.8567    2.6528 H         1 RES1    0.0000
     32 C16        8.3023    6.0002    4.9056 C.ar      1 RES1    0.0000
     33 H12        8.9896    5.7896    5.4946 H         1 RES1    0.0000
     34 C17        6.5753    5.3251    3.4045 C.ar      1 RES1    0.0000
     35 H13        6.1183    4.6489    2.9575 H         1 RES1    0.0000
     36 C18        8.9508   10.5421    5.9647 C.3       1 RES1    0.0000
     37 H14        9.8616   10.1828    6.0112 H         1 RES1    0.0000
     38 C19        8.7171   11.4122    7.1896 C.2       1 RES1    0.0000
     39 O5         8.6380   12.6024    7.1899 O.2       1 RES1    0.0000
     40 O6         8.6445   10.6474    8.2720 O.3       1 RES1    0.0000
     41 C20        8.4776   11.3193    9.5559 C.3       1 RES1    0.0000
     42 H15        7.7984   12.0081    9.4887 H         1 RES1    0.0000
     43 H16        9.3119   11.7344    9.8277 H         1 RES1    0.0000
     44 C21        8.0719   10.2970   10.5425 C.3       1 RES1    0.0000
     45 H17        7.2252    9.9241   10.2859 H         1 RES1    0.0000
     46 H18        7.9941   10.7020   11.4095 H         1 RES1    0.0000
     47 H19        8.7325    9.6006   10.5722 H         1 RES1    0.0000
@<TRIPOS>BOND
     1    1    4 2
     2    2    3 1
     3    4    2 1
     4    5    4 1
     5    6    5 ar
     6    7    6 1
     7    8    5 ar
     8    9    8 1
     9   10   11 1
    10   12    8 ar
    11   13   12 1
    12   14    6 ar
    13   15   14 1
    14   16    2 1
    15   17   16 1
    16   18   17 1
    17   19    2 1
    18   20   19 1
    19   21   17 1
    20   22   21 1
    21   23   24 1
    22   24   25 ar
    23   25   19 1
    24   26   21 1
    25   27   26 1
    26   28   29 1
    27   30   25 ar
    28   31   30 1
    29   32   24 ar
    30   33   32 1
    31   34   28 ar
    32   35   34 1
    33   36   18 1
    34   37   36 1
    35   38   36 1
    36   39   38 2
    37   40   38 1
    38   41   40 1
    39   42   41 1
    40   43   41 1
    41   44   41 1
    42   45   44 1
    43   46   44 1
    44   47   44 1
    45   10   12 ar
    46   10   14 ar
    47   19   21 1
    48   23   26 1
    49   26   36 1
    50   28   32 ar
    51   30   34 ar
@<TRIPOS>SUBSTRUCTURE
     1 RES1 1

@<TRIPOS>CRYSIN
   8.3918    9.6816   12.4857  69.8250  77.2670  86.3110   2 1

