# MOL2 file generated by ConQuest
# Please check atom types

@<TRIPOS>MOLECULE
SULJIS
    46    47     1
SMALL
NO_CHARGES
****
Generated from CSD

@<TRIPOS>ATOM
      1 C1         2.2784    5.1126   -0.0148 C.ar      1 RES1    0.0000
      2 C2         2.7254    5.2183   -1.3235 C.ar      1 RES1    0.0000
      3 C3         3.4718    4.2045   -1.8733 C.ar      1 RES1    0.0000
      4 C4         3.7876    3.0694   -1.1329 C.ar      1 RES1    0.0000
      5 C5         3.3305    2.9604    0.1666 C.ar      1 RES1    0.0000
      6 C6         2.5769    3.9797    0.7312 C.ar      1 RES1    0.0000
      7 C7         2.1052    3.8033    2.1417 C.2       1 RES1    0.0000
      8 O1         2.1843    2.7850    2.7673 O.2       1 RES1    0.0000
      9 O2         1.5786    4.9429    2.6248 O.3       1 RES1    0.0000
     10 C8         0.9592    4.8957    3.9483 C.3       1 RES1    0.0000
     11 C9         2.0005    4.9440    5.0423 C.3       1 RES1    0.0000
     12 C10        1.3586    5.0137    6.4399 C.3       1 RES1    0.0000
     13 C11        0.7063    3.6707    6.8119 C.3       1 RES1    0.0000
     14 C12        2.4613    5.3037    7.4487 C.3       1 RES1    0.0000
     15 N1         0.4479    6.2017    6.4325 N.3       1 RES1    0.0000
     16 C13       -0.6042    6.2848    5.3792 C.3       1 RES1    0.0000
     17 C14       -1.1797    7.7055    5.4440 C.3       1 RES1    0.0000
     18 C15       -1.7704    5.2891    5.5014 C.3       1 RES1    0.0000
     19 C16        0.0959    6.1309    4.0279 C.3       1 RES1    0.0000
     20 O3        -0.2367    6.1961    7.7153 O.3       1 RES1    0.0000
     21 C17        0.1255    7.3391    8.4723 C.3       1 RES1    0.0000
     22 H1         1.7657    5.8196    0.3850 H         1 RES1    0.0000
     23 H2         2.5105    5.9960   -1.8437 H         1 RES1    0.0000
     24 H3         3.7756    4.2742   -2.7822 H         1 RES1    0.0000
     25 H4         4.3228    2.3703   -1.5179 H         1 RES1    0.0000
     26 H5         3.5334    2.1804    0.6867 H         1 RES1    0.0000
     27 H6         0.4200    4.1067    4.0409 H         1 RES1    0.0000
     28 H7         2.5460    5.7229    4.9072 H         1 RES1    0.0000
     29 H8         2.5649    4.1685    4.9905 H         1 RES1    0.0000
     30 H9         0.2965    3.7392    7.6782 H         1 RES1    0.0000
     31 H10        0.0385    3.4537    6.1585 H         1 RES1    0.0000
     32 H11        1.3747    2.9817    6.8286 H         1 RES1    0.0000
     33 H12        2.8746    6.1410    7.2247 H         1 RES1    0.0000
     34 H13        2.0936    5.3531    8.3335 H         1 RES1    0.0000
     35 H14        3.1177    4.6035    7.4135 H         1 RES1    0.0000
     36 H15       -0.4619    8.3382    5.3681 H         1 RES1    0.0000
     37 H16       -1.8010    7.8370    4.7258 H         1 RES1    0.0000
     38 H17       -1.6291    7.8325    6.2844 H         1 RES1    0.0000
     39 H18       -2.1994    5.3981    6.3529 H         1 RES1    0.0000
     40 H19       -2.4080    5.4453    4.7998 H         1 RES1    0.0000
     41 H20       -1.4256    4.3967    5.4273 H         1 RES1    0.0000
     42 H21       -0.5601    6.1118    3.3264 H         1 RES1    0.0000
     43 H22        0.6601    6.8940    3.8835 H         1 RES1    0.0000
     44 H23       -0.2892    7.6290    9.1702 H         1 RES1    0.0000
     45 H24        1.1136    7.3773    8.7759 H         1 RES1    0.0000
     46 H25       -0.0215    8.1427    7.9170 H         1 RES1    0.0000
@<TRIPOS>BOND
     1    1    2 ar
     2    2    3 ar
     3    3    4 ar
     4    4    5 ar
     5    5    6 ar
     6    6    1 ar
     7    7    6 1
     8    8    7 2
     9    9    7 1
    10   10    9 1
    11   11   10 1
    12   12   11 1
    13   13   12 1
    14   14   12 1
    15   15   12 1
    16   16   15 1
    17   17   16 1
    18   18   16 1
    19   19   10 1
    20   20   15 1
    21   21   20 1
    22   22    1 1
    23   23    2 1
    24   24    3 1
    25   25    4 1
    26   26    5 1
    27   27   10 1
    28   28   11 1
    29   29   11 1
    30   30   13 1
    31   31   13 1
    32   32   13 1
    33   33   14 1
    34   34   14 1
    35   35   14 1
    36   36   17 1
    37   37   17 1
    38   38   17 1
    39   39   18 1
    40   40   18 1
    41   41   18 1
    42   42   19 1
    43   43   19 1
    44   44   21 1
    45   45   21 1
    46   46   21 1
    47   16   19 1
@<TRIPOS>SUBSTRUCTURE
     1 RES1 1

@<TRIPOS>CRYSIN
   8.0170   11.2390   18.6210  90.0000  96.2400  90.0000  14 2

