# MOL2 file generated by ConQuest
# Please check atom types

@<TRIPOS>MOLECULE
SULJEO
   110   112     2
SMALL
NO_CHARGES
****
Generated from CSD

@<TRIPOS>ATOM
      1 O1        -7.4823    3.3713   12.1265 O.2       1 RES1    0.0000
      2 O2        -7.1936    5.0678   13.5876 O.3       1 RES1    0.0000
      3 O3        -3.2757    8.1818   11.0984 O.3       1 RES1    0.0000
      4 N1        -4.0461    7.4853   12.1181 N.3       1 RES1    0.0000
      5 C1        -8.7682    3.8347   15.4916 C.ar      1 RES1    0.0000
      6 C2        -9.5408    3.1833   16.4331 C.ar      1 RES1    0.0000
      7 C3       -10.0709    1.9412   16.1747 C.ar      1 RES1    0.0000
      8 C4        -9.8229    1.3331   14.9845 C.ar      1 RES1    0.0000
      9 C5        -9.0396    1.9688   14.0277 C.ar      1 RES1    0.0000
     10 C6        -8.5137    3.2328   14.2777 C.ar      1 RES1    0.0000
     11 C7        -7.6948    3.8744   13.2007 C.2       1 RES1    0.0000
     12 C8        -6.3349    5.7699   12.6098 C.3       1 RES1    0.0000
     13 C9        -6.3512    7.2311   12.9939 C.3       1 RES1    0.0000
     14 C10       -5.4358    8.0757   12.0706 C.3       1 RES1    0.0000
     15 C11       -5.3526    9.4834   12.6852 C.3       1 RES1    0.0000
     16 C12       -6.0588    8.2199   10.6807 C.3       1 RES1    0.0000
     17 C13       -4.9225    5.2627   12.7216 C.3       1 RES1    0.0000
     18 C14       -3.9239    6.0077   11.8052 C.3       1 RES1    0.0000
     19 C15       -2.5221    5.5489   12.2298 C.3       1 RES1    0.0000
     20 C16       -4.1179    5.6139   10.3315 C.3       1 RES1    0.0000
     21 C17       -2.0979    8.9477   11.5021 C.3       1 RES1    0.0000
     22 C18       -0.9223    8.3839   10.6905 C.3       1 RES1    0.0000
     23 C19       -2.3259   10.3899   11.0495 C.3       1 RES1    0.0000
     24 C20       -1.7794    8.8970   12.9576 C.3       1 RES1    0.0000
     25 O4        -8.2404    4.2111   22.4440 O.2       2 RES2    0.0000
     26 O5        -7.9680    3.8910   20.2271 O.3       2 RES2    0.0000
     27 O6        -4.4172    7.9370   18.7031 O.3       2 RES2    0.0000
     28 N2        -5.0993    6.6421   18.8386 N.3       2 RES2    0.0000
     29 C21       -9.3731    1.6200   22.6563 C.ar      2 RES2    0.0000
     30 C22      -10.0160    0.3978   22.6968 C.ar      2 RES2    0.0000
     31 C23      -10.4019   -0.2212   21.5807 C.ar      2 RES2    0.0000
     32 C24      -10.1606    0.3753   20.3710 C.ar      2 RES2    0.0000
     33 C25       -9.4819    1.5900   20.2746 C.ar      2 RES2    0.0000
     34 C26       -9.1123    2.2178   21.4354 C.ar      2 RES2    0.0000
     35 C27       -8.4032    3.5424   21.4550 C.2       2 RES2    0.0000
     36 C28       -7.2262    5.1599   20.1349 C.3       2 RES2    0.0000
     37 C29       -5.7733    4.9427   20.4729 C.3       2 RES2    0.0000
     38 C30       -4.8953    6.1927   20.2634 C.3       2 RES2    0.0000
     39 C31       -5.1650    7.2474   21.3530 C.3       2 RES2    0.0000
     40 C32       -3.4367    5.7353   20.4268 C.3       2 RES2    0.0000
     41 C33       -7.3127    5.5962   18.6933 C.3       2 RES2    0.0000
     42 C34       -6.5204    6.8907   18.4209 C.3       2 RES2    0.0000
     43 C35       -7.2087    8.1249   19.0369 C.3       2 RES2    0.0000
     44 C36       -6.5271    7.0671   16.8941 C.3       2 RES2    0.0000
     45 C37       -3.2708    8.0344   17.7755 C.3       2 RES2    0.0000
     46 C38       -3.5838    9.2311   16.8843 C.3       2 RES2    0.0000
     47 C39       -2.0527    8.3681   18.6053 C.3       2 RES2    0.0000
     48 C40       -3.0039    6.7940   16.9625 C.3       2 RES2    0.0000
     49 H1        -8.3580    4.6829   15.6774 H         1 RES1    0.0000
     50 H2        -9.7346    3.6277   17.2615 H         1 RES1    0.0000
     51 H3       -10.6121    1.5081   16.8396 H         1 RES1    0.0000
     52 H4       -10.1798    0.4562   14.8253 H         1 RES1    0.0000
     53 H5        -8.8752    1.5538   13.1769 H         1 RES1    0.0000
     54 H6        -6.6731    5.6513   11.7200 H         1 RES1    0.0000
     55 H7        -6.0538    7.3209   13.9019 H         1 RES1    0.0000
     56 H8        -7.2521    7.5552   12.9367 H         1 RES1    0.0000
     57 H9        -4.7897   10.0346   12.1349 H         1 RES1    0.0000
     58 H10       -6.2256    9.8754   12.7439 H         1 RES1    0.0000
     59 H11       -4.9721    9.4161   13.5639 H         1 RES1    0.0000
     60 H12       -5.4808    8.7315   10.1107 H         1 RES1    0.0000
     61 H13       -6.1747    7.3405   10.3133 H         1 RES1    0.0000
     62 H14       -6.9122    8.6556   10.7435 H         1 RES1    0.0000
     63 H15       -4.9203    4.3302   12.4911 H         1 RES1    0.0000
     64 H16       -4.6425    5.3400   13.6365 H         1 RES1    0.0000
     65 H17       -2.3858    5.7705   13.1546 H         1 RES1    0.0000
     66 H18       -2.4047    4.6037   12.1083 H         1 RES1    0.0000
     67 H19       -1.8860    6.0233   11.6906 H         1 RES1    0.0000
     68 H20       -5.0132    5.8734   10.0996 H         1 RES1    0.0000
     69 H21       -3.4938    6.0887    9.7783 H         1 RES1    0.0000
     70 H22       -4.0129    4.6705   10.1946 H         1 RES1    0.0000
     71 H23       -0.7278    7.4861   10.9712 H         1 RES1    0.0000
     72 H24       -1.1964    8.3791    9.7713 H         1 RES1    0.0000
     73 H25       -0.1351    8.9262   10.7868 H         1 RES1    0.0000
     74 H26       -2.4749   10.4118   10.1010 H         1 RES1    0.0000
     75 H27       -3.1154   10.6918   11.5035 H         1 RES1    0.0000
     76 H28       -1.5896   10.9654   11.2702 H         1 RES1    0.0000
     77 H29       -1.5764    7.9989   13.2314 H         1 RES1    0.0000
     78 H30       -1.0444    9.4725   13.1783 H         1 RES1    0.0000
     79 H31       -2.5701    9.1989   13.4116 H         1 RES1    0.0000
     80 H32       -9.1118    2.0630   23.4665 H         2 RES2    0.0000
     81 H33      -10.1763   -0.0394   23.5363 H         2 RES2    0.0000
     82 H34      -10.8511   -1.0683   21.6254 H         2 RES2    0.0000
     83 H35      -10.4610   -0.0521   19.5664 H         2 RES2    0.0000
     84 H36       -9.2794    2.0064   19.4336 H         2 RES2    0.0000
     85 H37       -7.5955    5.8242   20.7216 H         2 RES2    0.0000
     86 H38       -5.4574    4.2406   19.9002 H         2 RES2    0.0000
     87 H39       -5.6989    4.6394   21.3809 H         2 RES2    0.0000
     88 H40       -4.6073    8.0190   21.2273 H         2 RES2    0.0000
     89 H41       -6.0858    7.4995   21.2552 H         2 RES2    0.0000
     90 H42       -5.0224    6.8894   22.2316 H         2 RES2    0.0000
     91 H43       -3.2369    5.0719   19.7619 H         2 RES2    0.0000
     92 H44       -2.8637    6.4951   20.3025 H         2 RES2    0.0000
     93 H45       -3.2932    5.3661   21.3013 H         2 RES2    0.0000
     94 H46       -8.2450    5.7269   18.4991 H         2 RES2    0.0000
     95 H47       -6.9836    4.8917   18.1317 H         2 RES2    0.0000
     96 H48       -7.2354    8.0176   19.9896 H         2 RES2    0.0000
     97 H49       -6.6795    8.8948   18.8162 H         2 RES2    0.0000
     98 H50       -8.1013    8.2450   18.7045 H         2 RES2    0.0000
     99 H51       -6.1378    6.2853   16.4974 H         2 RES2    0.0000
    100 H52       -7.4189    7.1863   16.5588 H         2 RES2    0.0000
    101 H53       -5.9961    7.8360   16.6720 H         2 RES2    0.0000
    102 H54       -3.6812   10.0252   17.4151 H         2 RES2    0.0000
    103 H55       -2.9072    9.3724   16.2194 H         2 RES2    0.0000
    104 H56       -4.4186    9.0311   16.4541 H         2 RES2    0.0000
    105 H57       -1.8178    7.6209   19.1613 H         2 RES2    0.0000
    106 H58       -1.3091    8.5972   18.0451 H         2 RES2    0.0000
    107 H59       -2.2800    9.1189   19.1585 H         2 RES2    0.0000
    108 H60       -2.7499    6.0517   17.5157 H         2 RES2    0.0000
    109 H61       -3.8395    6.6010   16.5323 H         2 RES2    0.0000
    110 H62       -2.3269    6.9422   16.2976 H         2 RES2    0.0000
@<TRIPOS>BOND
     1    1   11 2
     2    2   11 1
     3    3    4 1
     4    4   14 1
     5    5    6 ar
     6    6    7 ar
     7    7    8 ar
     8    8    9 ar
     9    9   10 ar
    10   10    5 ar
    11   11   10 1
    12   12    2 1
    13   13   12 1
    14   14   13 1
    15   15   14 1
    16   16   14 1
    17   17   12 1
    18   18    4 1
    19   19   18 1
    20   20   18 1
    21   21    3 1
    22   22   21 1
    23   23   21 1
    24   24   21 1
    25   25   35 2
    26   26   35 1
    27   27   28 1
    28   28   38 1
    29   29   30 ar
    30   30   31 ar
    31   31   32 ar
    32   32   33 ar
    33   33   34 ar
    34   34   29 ar
    35   35   34 1
    36   36   26 1
    37   37   36 1
    38   38   37 1
    39   39   38 1
    40   40   38 1
    41   41   36 1
    42   42   28 1
    43   43   42 1
    44   44   42 1
    45   45   27 1
    46   46   45 1
    47   47   45 1
    48   48   45 1
    49   49    5 1
    50   50    6 1
    51   51    7 1
    52   52    8 1
    53   53    9 1
    54   54   12 1
    55   55   13 1
    56   56   13 1
    57   57   15 1
    58   58   15 1
    59   59   15 1
    60   60   16 1
    61   61   16 1
    62   62   16 1
    63   63   17 1
    64   64   17 1
    65   65   19 1
    66   66   19 1
    67   67   19 1
    68   68   20 1
    69   69   20 1
    70   70   20 1
    71   71   22 1
    72   72   22 1
    73   73   22 1
    74   74   23 1
    75   75   23 1
    76   76   23 1
    77   77   24 1
    78   78   24 1
    79   79   24 1
    80   80   29 1
    81   81   30 1
    82   82   31 1
    83   83   32 1
    84   84   33 1
    85   85   36 1
    86   86   37 1
    87   87   37 1
    88   88   39 1
    89   89   39 1
    90   90   39 1
    91   91   40 1
    92   92   40 1
    93   93   40 1
    94   94   41 1
    95   95   41 1
    96   96   43 1
    97   97   43 1
    98   98   43 1
    99   99   44 1
   100  100   44 1
   101  101   44 1
   102  102   46 1
   103  103   46 1
   104  104   46 1
   105  105   47 1
   106  106   47 1
   107  107   47 1
   108  108   48 1
   109  109   48 1
   110  110   48 1
   111   17   18 1
   112   41   42 1
@<TRIPOS>SUBSTRUCTURE
     1 RES1 1
     2 RES2 25

@<TRIPOS>CRYSIN
  12.3850   12.8610   14.1070  94.0400  94.5200 115.2900   2 1

