# MOL2 file generated by ConQuest
# Please check atom types

@<TRIPOS>MOLECULE
SULROG
    25    25     1
SMALL
NO_CHARGES
****
Generated from CSD

@<TRIPOS>ATOM
      1 N1         6.6367    1.0736    3.3321 N.3       1 RES1    0.0000
      2 C1         6.6529   -0.1628    2.7802 C.2       1 RES1    0.0000
      3 N2         5.9184   -0.2856    1.7109 N.2       1 RES1    0.0000
      4 C2         5.3923    0.9564    1.5447 C.2       1 RES1    0.0000
      5 C3         5.8167    1.8036    2.5159 C.2       1 RES1    0.0000
      6 N3         7.4256   -1.2505    3.3096 N.pl3     1 RES1    0.0000
      7 O1         7.4800   -2.2752    2.6645 O.2       1 RES1    0.0000
      8 O2         8.0066   -1.0847    4.3663 O.2       1 RES1    0.0000
      9 C4         7.3991    1.6041    4.4617 C.3       1 RES1    0.0000
     10 C5         8.8906    1.5439    4.1693 C.2       1 RES1    0.0000
     11 O3         9.2850    1.5754    3.0053 O.2       1 RES1    0.0000
     12 N4         9.6763    1.4990    5.2239 N.am      1 RES1    0.0000
     13 C6        11.1292    1.4785    5.1363 C.3       1 RES1    0.0000
     14 C7        11.7333    0.6654    6.2533 C.3       1 RES1    0.0000
     15 O4        11.3314   -0.6939    6.2364 O.3       1 RES1    0.0000
     16 H1         4.8297    1.1561    0.8414 H         1 RES1    0.0000
     17 H2         5.6596    2.7123    2.7066 H         1 RES1    0.0000
     18 H3         7.1635    1.0560    5.2870 H         1 RES1    0.0000
     19 H4         7.1127    2.5344    4.5437 H         1 RES1    0.0000
     20 H5         9.3320    1.4451    6.0022 H         1 RES1    0.0000
     21 H6        11.4641    2.3788    5.1748 H         1 RES1    0.0000
     22 H7        11.4085    1.1227    4.2492 H         1 RES1    0.0000
     23 H8        11.4028    1.0116    7.1171 H         1 RES1    0.0000
     24 H9        12.7375    0.7337    6.1775 H         1 RES1    0.0000
     25 H10       11.6260   -1.0227    5.5535 H         1 RES1    0.0000
@<TRIPOS>BOND
     1    1    2 1
     2    2    3 2
     3    3    4 1
     4    4    5 2
     5    5    1 1
     6    6    2 1
     7    7    6 2
     8    8    6 2
     9    9    1 1
    10   10    9 1
    11   11   10 2
    12   12   10 1
    13   13   12 1
    14   14   13 1
    15   15   14 1
    16   16    4 1
    17   17    5 1
    18   18    9 1
    19   19    9 1
    20   20   12 1
    21   21   13 1
    22   22   13 1
    23   23   14 1
    24   24   14 1
    25   25   15 1
@<TRIPOS>SUBSTRUCTURE
     1 RES1 1

@<TRIPOS>CRYSIN
  12.0520   11.1160    7.3300  90.0000 106.9400  90.0000  14 1

