# MOL2 file generated by ConQuest
# Please check atom types

@<TRIPOS>MOLECULE
SULZUV
    26    26     1
SMALL
USER_CHARGES
****
Generated from CSD

@<TRIPOS>ATOM
      1 O1         1.2053    2.2012    4.4239 O.2       1 RES1   -1.0000
      2 O2         1.8117   -0.2460    8.3105 O.2       1 RES1    0.0000
      3 N1         1.5034    1.8063    5.5923 N.pl3     1 RES1    1.0000
      4 N2         2.3682    1.8897    7.6848 N.am      1 RES1    0.0000
      5 C1         2.1767    2.7623    6.5401 C.3       1 RES1    0.0000
      6 C2         1.8415    0.6604    7.4931 C.2       1 RES1    0.0000
      7 C3         1.3244    0.6435    6.1296 C.2       1 RES1    0.0000
      8 C4         2.7691    2.3590    8.9975 C.3       1 RES1    0.0000
      9 C5         3.4778    3.2373    5.8697 C.3       1 RES1    0.0000
     10 C6         4.4017    2.0946    5.5152 C.3       1 RES1    0.0000
     11 C7         4.2241    4.2738    6.6810 C.3       1 RES1    0.0000
     12 C8         1.1873    3.8827    6.8140 C.3       1 RES1    0.0000
     13 H1         0.9196   -0.1031    5.7043 H         1 RES1    0.0000
     14 H2         2.3672    3.2026    9.1690 H         1 RES1    0.0000
     15 H3         3.7146    2.4472    9.0273 H         1 RES1    0.0000
     16 H4         2.4886    1.7347    9.6565 H         1 RES1    0.0000
     17 H5         3.2304    3.6539    5.0532 H         1 RES1    0.0000
     18 H6         5.1780    2.4360    5.0855 H         1 RES1    0.0000
     19 H7         4.6547    1.6343    6.3064 H         1 RES1    0.0000
     20 H8         3.9545    1.4957    4.9289 H         1 RES1    0.0000
     21 H9         4.6161    3.8602    7.4406 H         1 RES1    0.0000
     22 H10        4.9060    4.6637    6.1454 H         1 RES1    0.0000
     23 H11        3.6197    4.9493    6.9645 H         1 RES1    0.0000
     24 H12        1.5519    4.4754    7.4607 H         1 RES1    0.0000
     25 H13        1.0163    4.3578    6.0097 H         1 RES1    0.0000
     26 H14        0.3757    3.5141    7.1439 H         1 RES1    0.0000
@<TRIPOS>BOND
     1    1    3 1
     2    2    6 2
     3    3    5 1
     4    4    5 1
     5    5    9 1
     6    6    4 1
     7    7    3 2
     8    8    4 1
     9    9   10 1
    10   10   18 1
    11   11    9 1
    12   12    5 1
    13   13    7 1
    14   14    8 1
    15   15    8 1
    16   16    8 1
    17   17    9 1
    18   19   10 1
    19   20   10 1
    20   21   11 1
    21   22   11 1
    22   23   11 1
    23   24   12 1
    24   25   12 1
    25   26   12 1
    26    6    7 1
@<TRIPOS>SUBSTRUCTURE
     1 RES1 1

@<TRIPOS>CRYSIN
   6.9000    7.3650    8.8190  83.7800  86.0600  84.7800   2 1

