# MOL2 file generated by ConQuest
# Please check atom types

@<TRIPOS>MOLECULE
SULZOP
    43    45     1
SMALL
NO_CHARGES
****
Generated from CSD

@<TRIPOS>ATOM
      1 N1         8.3791   -1.7252    3.7123 N.pl3     1 RES1    0.0000
      2 N2         5.5084    4.7513   -0.6834 N.1       1 RES1    0.0000
      3 O1         3.9011    1.8796   -0.8299 O.2       1 RES1    0.0000
      4 O2         8.8477    1.6705    0.4241 O.2       1 RES1    0.0000
      5 O3         8.6165    3.8912    0.2555 O.3       1 RES1    0.0000
      6 O4         8.4878   -2.3712    2.7066 O.2       1 RES1    0.0000
      7 O5         8.7469   -2.1327    4.7879 O.2       1 RES1    0.0000
      8 C1         7.1648    0.0012    2.4709 C.ar      1 RES1    0.0000
      9 C2         7.7594   -0.3914    3.6511 C.ar      1 RES1    0.0000
     10 C3         7.8214    0.4064    4.7658 C.ar      1 RES1    0.0000
     11 C4         7.2488    1.6539    4.6921 C.ar      1 RES1    0.0000
     12 C5         6.6220    2.0643    3.5330 C.ar      1 RES1    0.0000
     13 C6         6.5824    1.2500    2.4086 C.ar      1 RES1    0.0000
     14 C7         5.8975    1.7678    1.1888 C.3       1 RES1    0.0000
     15 C8         6.6729    2.6049    0.1557 C.3       1 RES1    0.0000
     16 C9         6.0740    1.2295   -0.1829 C.3       1 RES1    0.0000
     17 C10        4.8965    1.2567   -1.1281 C.2       1 RES1    0.0000
     18 C11        5.0204    0.5673   -2.4371 C.ar      1 RES1    0.0000
     19 C12        4.3168    1.0784   -3.5211 C.ar      1 RES1    0.0000
     20 C13        4.3625    0.4426   -4.7409 C.ar      1 RES1    0.0000
     21 C14        5.0707   -0.7176   -4.8866 C.ar      1 RES1    0.0000
     22 C15        5.7648   -1.2340   -3.8197 C.ar      1 RES1    0.0000
     23 C16        5.7624   -0.5894   -2.6020 C.ar      1 RES1    0.0000
     24 C17        8.1685    2.6462    0.2891 C.2       1 RES1    0.0000
     25 C18       10.0744    4.0549    0.3671 C.3       1 RES1    0.0000
     26 H1        10.3721    3.7947    1.2525 H         1 RES1    0.0000
     27 H2        10.5230    3.4915   -0.2833 H         1 RES1    0.0000
     28 C19       10.4003    5.4606    0.1224 C.3       1 RES1    0.0000
     29 H3        10.1100    5.7074   -0.7599 H         1 RES1    0.0000
     30 H4        11.3497    5.5867    0.1932 H         1 RES1    0.0000
     31 H5         9.9552    6.0105    0.7712 H         1 RES1    0.0000
     32 C20        6.0253    3.8070   -0.3215 C.1       1 RES1    0.0000
     33 H6         7.1513   -0.5768    1.7468 H         1 RES1    0.0000
     34 H7         8.2676    0.1073    5.5220 H         1 RES1    0.0000
     35 H8         7.3185    2.2400    5.4061 H         1 RES1    0.0000
     36 H9         6.2046    2.9241    3.4823 H         1 RES1    0.0000
     37 H10        5.0916    2.1663    1.3475 H         1 RES1    0.0000
     38 H11        6.6851    0.5996   -0.3091 H         1 RES1    0.0000
     39 H12        3.8236    1.8376   -3.3857 H         1 RES1    0.0000
     40 H13        3.8640    0.7914   -5.4415 H         1 RES1    0.0000
     41 H14        5.1105   -1.1536   -5.7474 H         1 RES1    0.0000
     42 H15        6.2100   -2.0657   -3.8799 H         1 RES1    0.0000
     43 H16        6.2295   -0.9376   -1.8434 H         1 RES1    0.0000
@<TRIPOS>BOND
     1    1    6 2
     2    2   32 3
     3    3   17 2
     4    4   24 2
     5    5   24 1
     6    7    1 2
     7    8    9 ar
     8    9    1 1
     9   10    9 ar
    10   11   10 ar
    11   12   11 ar
    12   13    8 ar
    13   14   13 1
    14   15   14 1
    15   16   14 1
    16   17   16 1
    17   18   17 1
    18   19   18 ar
    19   20   19 ar
    20   21   20 ar
    21   22   21 ar
    22   23   18 ar
    23   24   15 1
    24   25    5 1
    25   26   25 1
    26   27   25 1
    27   28   25 1
    28   29   28 1
    29   30   28 1
    30   31   28 1
    31   32   15 1
    32   33    8 1
    33   34   10 1
    34   35   11 1
    35   36   12 1
    36   37   14 1
    37   38   16 1
    38   39   19 1
    39   40   20 1
    40   41   21 1
    41   42   22 1
    42   43   23 1
    43   12   13 ar
    44   15   16 1
    45   22   23 ar
@<TRIPOS>SUBSTRUCTURE
     1 RES1 1

@<TRIPOS>CRYSIN
   8.4448   13.4134   16.1150  90.0000  92.5380  90.0000 231 1

