# MOL2 file generated by ConQuest
# Please check atom types

@<TRIPOS>MOLECULE
SUMGAJ
    62    66     1
SMALL
NO_CHARGES
****
Generated from CSD

@<TRIPOS>ATOM
      1 O1        -0.2479    3.4390    9.2274 O.3       1 RES1    0.0000
      2 O2         1.9825    3.0038    9.3119 O.3       1 RES1    0.0000
      3 O3         2.6328    2.9403    3.3427 O.3       1 RES1    0.0000
      4 O4         3.6748    4.6175    2.2968 O.2       1 RES1    0.0000
      5 O5         0.8315   -0.7656    0.8346 O.2       1 RES1    0.0000
      6 O6         0.8930   -0.7680   -1.3396 O.2       1 RES1    0.0000
      7 O7         3.0633    2.8977   -3.6702 O.2       1 RES1    0.0000
      8 O8         3.8223    4.5263   -2.5398 O.2       1 RES1    0.0000
      9 N1         1.1624   -0.2792   -0.2620 N.pl3     1 RES1    0.0000
     10 N2         3.2946    3.4316   -2.6412 N.pl3     1 RES1    0.0000
     11 C1         2.7944    3.6085    4.6443 C.3       1 RES1    0.0000
     12 C2         4.1422    3.2855    5.2951 C.3       1 RES1    0.0000
     13 C3         3.8539    3.1813    6.7996 C.3       1 RES1    0.0000
     14 C4         2.3567    3.5179    6.9707 C.3       1 RES1    0.0000
     15 C5         2.0352    4.9276    7.2179 C.2       1 RES1    0.0000
     16 C6         0.7532    5.2395    7.1968 C.2       1 RES1    0.0000
     17 C7        -0.2019    4.1022    6.8883 C.3       1 RES1    0.0000
     18 C8         0.1103    3.0044    7.8898 C.3       1 RES1    0.0000
     19 C9         1.6046    2.6715    7.9913 C.3       1 RES1    0.0000
     20 C10        0.2417    3.5770    5.4536 C.3       1 RES1    0.0000
     21 C11        1.7468    3.1197    5.5909 C.3       1 RES1    0.0000
     22 C12        0.7943    2.9995   10.1169 C.3       1 RES1    0.0000
     23 C13        0.4804    1.5595   10.5797 C.3       1 RES1    0.0000
     24 C14        0.9080    3.9623   11.2326 C.3       1 RES1    0.0000
     25 C15       -1.6135    4.5244    6.9369 C.3       1 RES1    0.0000
     26 C16       -0.6032    2.3837    4.9528 C.3       1 RES1    0.0000
     27 C17        0.1036    4.7032    4.3950 C.3       1 RES1    0.0000
     28 C18        3.1005    3.5739    2.2714 C.2       1 RES1    0.0000
     29 C19        2.8290    2.8016    1.0185 C.ar      1 RES1    0.0000
     30 C20        2.1715    1.5848    0.9994 C.ar      1 RES1    0.0000
     31 C21        1.9048    0.9881   -0.2134 C.ar      1 RES1    0.0000
     32 C22        2.2953    1.5293   -1.4347 C.ar      1 RES1    0.0000
     33 C23        2.9439    2.7646   -1.3882 C.ar      1 RES1    0.0000
     34 C24        3.2298    3.4211   -0.1754 C.ar      1 RES1    0.0000
     35 H1         2.7065    4.5978    4.5281 H         1 RES1    0.0000
     36 H2         4.8016    4.0153    5.1134 H         1 RES1    0.0000
     37 H3         4.5005    2.4194    4.9465 H         1 RES1    0.0000
     38 H4         4.4165    3.8341    7.3067 H         1 RES1    0.0000
     39 H5         4.0419    2.2548    7.1250 H         1 RES1    0.0000
     40 H6         2.7445    5.6106    7.3912 H         1 RES1    0.0000
     41 H7         0.4306    6.1696    7.3743 H         1 RES1    0.0000
     42 H8        -0.4032    2.1790    7.6553 H         1 RES1    0.0000
     43 H9         1.7581    1.6988    7.8201 H         1 RES1    0.0000
     44 H10        1.7540    2.1205    5.5444 H         1 RES1    0.0000
     45 H11        1.1991    1.2451   11.1988 H         1 RES1    0.0000
     46 H12       -0.3991    1.5472   11.0551 H         1 RES1    0.0000
     47 H13        0.4396    0.9554    9.7831 H         1 RES1    0.0000
     48 H14        1.6303    3.6646   11.8580 H         1 RES1    0.0000
     49 H15        0.0387    4.0073   11.7249 H         1 RES1    0.0000
     50 H16        1.1330    4.8666   10.8713 H         1 RES1    0.0000
     51 H17       -2.2031    3.7478    6.7277 H         1 RES1    0.0000
     52 H18       -1.8273    4.8696    7.8497 H         1 RES1    0.0000
     53 H19       -1.7665    5.2518    6.2629 H         1 RES1    0.0000
     54 H20       -0.2777    2.1007    4.0506 H         1 RES1    0.0000
     55 H21       -0.5152    1.6205    5.5930 H         1 RES1    0.0000
     56 H22       -1.5634    2.6573    4.8894 H         1 RES1    0.0000
     57 H23        0.3857    4.3556    3.5012 H         1 RES1    0.0000
     58 H24        0.6842    5.4756    4.6507 H         1 RES1    0.0000
     59 H25       -0.8492    5.0034    4.3485 H         1 RES1    0.0000
     60 H26        1.8929    1.1453    1.8531 H         1 RES1    0.0000
     61 H27        2.1210    1.0590   -2.3010 H         1 RES1    0.0000
     62 H28        3.7041    4.3019   -0.1648 H         1 RES1    0.0000
@<TRIPOS>BOND
     1    1   18 1
     2    2   19 1
     3    3   11 1
     4    4   28 2
     5    5    9 2
     6    6    9 2
     7    7   10 2
     8    8   10 2
     9    9   31 1
    10   10   33 1
    11   11   12 1
    12   12   13 1
    13   13   14 1
    14   14   15 1
    15   15   16 2
    16   16   17 1
    17   17   18 1
    18   18   19 1
    19   19   14 1
    20   20   17 1
    21   21   11 1
    22   22    1 1
    23   23   22 1
    24   24   22 1
    25   25   17 1
    26   26   20 1
    27   27   20 1
    28   28    3 1
    29   29   28 1
    30   30   29 ar
    31   31   30 ar
    32   32   31 ar
    33   33   32 ar
    34   34   29 ar
    35   35   11 1
    36   36   12 1
    37   37   12 1
    38   38   13 1
    39   39   13 1
    40   40   15 1
    41   41   16 1
    42   42   18 1
    43   43   19 1
    44   44   21 1
    45   45   23 1
    46   46   23 1
    47   47   23 1
    48   48   24 1
    49   49   24 1
    50   50   24 1
    51   51   25 1
    52   52   25 1
    53   53   25 1
    54   54   26 1
    55   55   26 1
    56   56   26 1
    57   57   27 1
    58   58   27 1
    59   59   27 1
    60   60   30 1
    61   61   32 1
    62   62   34 1
    63    2   22 1
    64   14   21 1
    65   20   21 1
    66   33   34 ar
@<TRIPOS>SUBSTRUCTURE
     1 RES1 1

@<TRIPOS>CRYSIN
   9.1347    6.1641   21.3826  90.0000  98.8200  90.0000   4 1

