# MOL2 file generated by ConQuest
# Please check atom types

@<TRIPOS>MOLECULE
SUMJIU
    62    64     1
SMALL
USER_CHARGES
****
Generated from CSD

@<TRIPOS>ATOM
      1 O1        -5.3135   -0.0247    3.2916 O.2       1 RES1   -1.0000
      2 O2        -3.6179   -3.7088    1.1537 O.2       1 RES1    0.0000
      3 N1        -4.2611   -2.9868    1.9768 N.3       1 RES1    0.0000
      4 N2        -5.0434   -1.2310    3.0081 N.pl3     1 RES1    1.0000
      5 C1        -5.3142   -1.6903   -0.8064 C.3       1 RES1    0.0000
      6 H1        -5.4839   -1.5596   -1.7425 H         1 RES1    0.0000
      7 H2        -6.0865   -1.4271   -0.3012 H         1 RES1    0.0000
      8 H3        -5.1240   -2.6175   -0.6412 H         1 RES1    0.0000
      9 C2        -4.1338   -0.8538   -0.3901 C.ar      1 RES1    0.0000
     10 C3        -3.6925   -0.7980    0.9424 C.ar      1 RES1    0.0000
     11 C4        -2.6642    0.0475    1.3116 C.ar      1 RES1    0.0000
     12 H4        -2.4052    0.0795    2.2038 H         1 RES1    0.0000
     13 C5        -4.3254   -1.6482    1.9601 C.2       1 RES1    0.0000
     14 C6        -5.4338   -2.3545    3.9275 C.3       1 RES1    0.0000
     15 C7        -4.5493   -2.2277    5.1555 C.3       1 RES1    0.0000
     16 H5        -4.6526   -1.3529    5.5351 H         1 RES1    0.0000
     17 H6        -3.6322   -2.3614    4.9044 H         1 RES1    0.0000
     18 H7        -4.8034   -2.8895    5.8029 H         1 RES1    0.0000
     19 C8        -6.8864   -2.1883    4.3407 C.3       1 RES1    0.0000
     20 H8        -7.4464   -2.2113    3.5614 H         1 RES1    0.0000
     21 H9        -6.9975   -1.3476    4.7904 H         1 RES1    0.0000
     22 H10       -7.1341   -2.9019    4.9327 H         1 RES1    0.0000
     23 C9        -5.1467   -3.5956    3.0343 C.3       1 RES1    0.0000
     24 C10       -6.3551   -4.1205    2.2791 C.3       1 RES1    0.0000
     25 H11       -6.0657   -4.7352    1.5992 H         1 RES1    0.0000
     26 H12       -6.8208   -3.3876    1.8701 H         1 RES1    0.0000
     27 H13       -6.9423   -4.5727    2.8889 H         1 RES1    0.0000
     28 C11       -4.4031   -4.7352    3.6985 C.3       1 RES1    0.0000
     29 H14       -3.5654   -4.4137    4.0405 H         1 RES1    0.0000
     30 H15       -4.2420   -5.4293    3.0562 H         1 RES1    0.0000
     31 H16       -4.9316   -5.0831    4.4212 H         1 RES1    0.0000
     32 O1B       -0.8235    0.0247   -3.2916 O.2       1 RES1   -1.0000
     33 O2B       -2.5191    3.7088   -1.1537 O.2       1 RES1    0.0000
     34 N1B       -1.8759    2.9868   -1.9768 N.3       1 RES1    0.0000
     35 N2B       -1.0936    1.2310   -3.0081 N.pl3     1 RES1    1.0000
     36 C1B       -0.8228    1.6903    0.8064 C.3       1 RES1    0.0000
     37 H1B       -0.6531    1.5596    1.7425 H         1 RES1    0.0000
     38 H2B       -0.0505    1.4271    0.3012 H         1 RES1    0.0000
     39 H3B       -1.0130    2.6175    0.6412 H         1 RES1    0.0000
     40 C2B       -2.0032    0.8538    0.3901 C.ar      1 RES1    0.0000
     41 C3B       -2.4445    0.7980   -0.9424 C.ar      1 RES1    0.0000
     42 C4B       -3.4728   -0.0475   -1.3116 C.ar      1 RES1    0.0000
     43 H4B       -3.7318   -0.0795   -2.2038 H         1 RES1    0.0000
     44 C5B       -1.8116    1.6482   -1.9601 C.2       1 RES1    0.0000
     45 C6B       -0.7032    2.3545   -3.9275 C.3       1 RES1    0.0000
     46 C7B       -1.5877    2.2277   -5.1555 C.3       1 RES1    0.0000
     47 H5B       -1.4844    1.3529   -5.5351 H         1 RES1    0.0000
     48 H6B       -2.5048    2.3614   -4.9044 H         1 RES1    0.0000
     49 H7B       -1.3336    2.8895   -5.8029 H         1 RES1    0.0000
     50 C8B        0.7494    2.1883   -4.3407 C.3       1 RES1    0.0000
     51 H8B        1.3094    2.2113   -3.5614 H         1 RES1    0.0000
     52 H9B        0.8605    1.3476   -4.7904 H         1 RES1    0.0000
     53 H10B       0.9971    2.9019   -4.9327 H         1 RES1    0.0000
     54 C9B       -0.9903    3.5956   -3.0343 C.3       1 RES1    0.0000
     55 C10B       0.2181    4.1205   -2.2791 C.3       1 RES1    0.0000
     56 H11B      -0.0713    4.7352   -1.5992 H         1 RES1    0.0000
     57 H12B       0.6838    3.3876   -1.8701 H         1 RES1    0.0000
     58 H13B       0.8053    4.5727   -2.8889 H         1 RES1    0.0000
     59 C11B      -1.7339    4.7352   -3.6985 C.3       1 RES1    0.0000
     60 H14B      -2.5716    4.4137   -4.0405 H         1 RES1    0.0000
     61 H15B      -1.8950    5.4293   -3.0562 H         1 RES1    0.0000
     62 H16B      -1.2054    5.0831   -4.4212 H         1 RES1    0.0000
@<TRIPOS>BOND
     1    1    4 1
     2    2    3 1
     3    3   13 1
     4    4   13 2
     5    5    6 1
     6    7    5 1
     7    8    5 1
     8    9    5 1
     9   10    9 ar
    10   11   10 ar
    11   12   11 1
    12   13   10 1
    13   14    4 1
    14   15   14 1
    15   16   15 1
    16   17   15 1
    17   18   15 1
    18   19   14 1
    19   20   19 1
    20   21   19 1
    21   22   19 1
    22   23    3 1
    23   24   23 1
    24   25   24 1
    25   26   24 1
    26   27   24 1
    27   28   23 1
    28   29   28 1
    29   30   28 1
    30   31   28 1
    31   32   35 1
    32   33   34 1
    33   34   44 1
    34   35   44 2
    35   36   37 1
    36   38   36 1
    37   39   36 1
    38   40   11 ar
    39   41   40 ar
    40   42    9 ar
    41   43   42 1
    42   44   41 1
    43   45   35 1
    44   46   45 1
    45   47   46 1
    46   48   46 1
    47   49   46 1
    48   50   45 1
    49   51   50 1
    50   52   50 1
    51   53   50 1
    52   54   34 1
    53   55   54 1
    54   56   55 1
    55   57   55 1
    56   58   55 1
    57   59   54 1
    58   60   59 1
    59   61   59 1
    60   62   59 1
    61   14   23 1
    62   36   40 1
    63   41   42 ar
    64   45   54 1
@<TRIPOS>SUBSTRUCTURE
     1 RES1 1

@<TRIPOS>CRYSIN
   6.1370   17.6620   11.8090  90.0000 117.6600  90.0000  14 1

