# MOL2 file generated by ConQuest
# Please check atom types

@<TRIPOS>MOLECULE
SUMNEV
    84    88     2
SMALL
NO_CHARGES
****
Generated from CSD

@<TRIPOS>ATOM
      1 C1         3.2221   14.7916    4.6826 C.3       1 RES1    0.0000
      2 H1         3.2007   15.5345    5.3058 H         1 RES1    0.0000
      3 H2         2.3819   14.7854    4.1983 H         1 RES1    0.0000
      4 C2         3.9897   13.4568    6.6180 C.2       1 RES1    0.0000
      5 C3         4.3041   11.9801    6.9017 C.3       1 RES1    0.0000
      6 C4         3.3900   11.2590    5.9198 C.3       1 RES1    0.0000
      7 H3         2.5213   11.0870    6.3160 H         1 RES1    0.0000
      8 H4         3.7794   10.4169    5.6374 H         1 RES1    0.0000
      9 C5         3.2727   12.2334    4.7403 C.3       1 RES1    0.0000
     10 H5         4.0541   12.1260    4.1582 H         1 RES1    0.0000
     11 C6         4.1171   11.5919    8.3513 C.3       1 RES1    0.0000
     12 H6         4.3347   10.6642    8.4645 H         1 RES1    0.0000
     13 H7         3.2034   11.7396    8.6064 H         1 RES1    0.0000
     14 H8         4.6944   12.1247    8.9026 H         1 RES1    0.0000
     15 C7         2.0147   12.1117    3.9056 C.ar      1 RES1    0.0000
     16 C8         2.1345   12.0496    2.5165 C.ar      1 RES1    0.0000
     17 H9         2.9779   12.0753    2.1254 H         1 RES1    0.0000
     18 C9         1.0047   11.9509    1.7147 C.ar      1 RES1    0.0000
     19 H10        1.0803   11.9232    0.7882 H         1 RES1    0.0000
     20 C10       -0.2292   11.8956    2.3228 C.ar      1 RES1    0.0000
     21 C11       -0.3909   11.9585    3.6995 C.ar      1 RES1    0.0000
     22 H11       -1.2367   11.9234    4.0842 H         1 RES1    0.0000
     23 C12        0.7485   12.0748    4.4844 C.ar      1 RES1    0.0000
     24 H12        0.6649   12.1293    5.4091 H         1 RES1    0.0000
     25 C13        4.3601   14.9927    3.7055 C.ar      1 RES1    0.0000
     26 C14        5.6482   15.2009    4.1895 C.ar      1 RES1    0.0000
     27 H13        5.7976   15.2207    5.1068 H         1 RES1    0.0000
     28 C15        6.7130   15.3805    3.3146 C.ar      1 RES1    0.0000
     29 H14        7.5721   15.5079    3.6462 H         1 RES1    0.0000
     30 C16        6.4919   15.3686    1.9420 C.ar      1 RES1    0.0000
     31 H15        7.2001   15.5006    1.3542 H         1 RES1    0.0000
     32 C17        5.2151   15.1598    1.4545 C.ar      1 RES1    0.0000
     33 H16        5.0663   15.1470    0.5367 H         1 RES1    0.0000
     34 C18        4.1519   14.9697    2.3307 C.ar      1 RES1    0.0000
     35 H17        3.2968   14.8269    1.9958 H         1 RES1    0.0000
     36 N1         3.3598   13.5388    5.4276 N.am      1 RES1    0.0000
     37 N2        -1.4194   11.7735    1.4727 N.pl3     1 RES1    0.0000
     38 O1         4.3227   14.4167    7.3226 O.2       1 RES1    0.0000
     39 O2         5.6477   11.7775    6.4487 O.3       1 RES1    0.0000
     40 H18        6.2205   11.9993    7.0687 H         1 RES1    0.0000
     41 O3        -1.2656   11.7289    0.2602 O.2       1 RES1    0.0000
     42 O4        -2.5189   11.7152    2.0088 O.2       1 RES1    0.0000
     43 C19        4.8722    8.0201   10.8200 C.3       2 RES2    0.0000
     44 H19        4.8784    8.7936   10.2352 H         2 RES2    0.0000
     45 H20        5.7201    7.9932   11.2902 H         2 RES2    0.0000
     46 C20        4.0954    6.7891    8.8222 C.2       2 RES2    0.0000
     47 C21        3.7700    5.3282    8.4678 C.3       2 RES2    0.0000
     48 C22        4.6754    4.5537    9.4126 C.3       2 RES2    0.0000
     49 H21        5.5424    4.3936    9.0090 H         2 RES2    0.0000
     50 H22        4.2781    3.7029    9.6537 H         2 RES2    0.0000
     51 C23        4.8016    5.4682   10.6394 C.3       2 RES2    0.0000
     52 H23        4.0240    5.3373   11.2208 H         2 RES2    0.0000
     53 C24        3.9615    5.0112    7.0041 C.3       2 RES2    0.0000
     54 H24        3.7369    4.0919    6.8435 H         2 RES2    0.0000
     55 H25        4.8771    5.1639    6.7602 H         2 RES2    0.0000
     56 H26        3.3917    5.5757    6.4764 H         2 RES2    0.0000
     57 C25        6.0660    5.2828   11.4496 C.ar      2 RES2    0.0000
     58 C26        5.9639    4.9580   12.8023 C.ar      2 RES2    0.0000
     59 H27        5.1246    4.8591   13.1904 H         2 RES2    0.0000
     60 C27        7.1035    4.7806   13.5727 C.ar      2 RES2    0.0000
     61 H28        7.0387    4.5639   14.4752 H         2 RES2    0.0000
     62 C28        8.3345    4.9335   12.9701 C.ar      2 RES2    0.0000
     63 C29        8.4759    5.2308   11.6233 C.ar      2 RES2    0.0000
     64 H29        9.3177    5.3086   11.2362 H         2 RES2    0.0000
     65 C30        7.3250    5.4091   10.8696 C.ar      2 RES2    0.0000
     66 H30        7.3953    5.6158    9.9653 H         2 RES2    0.0000
     67 C31        3.7467    8.1575   11.8217 C.ar      2 RES2    0.0000
     68 C32        2.4519    8.3759   11.3586 C.ar      2 RES2    0.0000
     69 H31        2.3010    8.4702   10.4465 H         2 RES2    0.0000
     70 C33        1.3868    8.4543   12.2400 C.ar      2 RES2    0.0000
     71 H32        0.5249    8.5967   11.9194 H         2 RES2    0.0000
     72 C34        1.6098    8.3188   13.6050 C.ar      2 RES2    0.0000
     73 H33        0.8963    8.3563   14.2006 H         2 RES2    0.0000
     74 C35        2.8956    8.1274   14.0761 C.ar      2 RES2    0.0000
     75 H34        3.0468    8.0536   14.9903 H         2 RES2    0.0000
     76 C36        3.9651    8.0454   13.1905 C.ar      2 RES2    0.0000
     77 H35        4.8274    7.9152   13.5143 H         2 RES2    0.0000
     78 N3         4.7245    6.8061   10.0169 N.am      2 RES2    0.0000
     79 N4         9.5391    4.7883   13.7962 N.pl3     2 RES2    0.0000
     80 O5         3.7741    7.7830    8.1641 O.2       2 RES2    0.0000
     81 O6         2.4219    5.1066    8.9069 O.3       2 RES2    0.0000
     82 H36        1.8616    5.3492    8.2872 H         2 RES2    0.0000
     83 O7         9.4072    4.7648   15.0133 O.2       2 RES2    0.0000
     84 O8        10.6236    4.6972   13.2329 O.2       2 RES2    0.0000
@<TRIPOS>BOND
     1    1    2 1
     2    3    1 1
     3    4    5 1
     4    5    6 1
     5    6    7 1
     6    8    6 1
     7    9    6 1
     8   10    9 1
     9   11    5 1
    10   12   11 1
    11   13   11 1
    12   14   11 1
    13   15    9 1
    14   16   15 ar
    15   17   16 1
    16   18   16 ar
    17   19   18 1
    18   20   18 ar
    19   21   20 ar
    20   22   21 1
    21   23   15 ar
    22   24   23 1
    23   25    1 1
    24   26   25 ar
    25   27   26 1
    26   28   26 ar
    27   29   28 1
    28   30   28 ar
    29   31   30 1
    30   32   30 ar
    31   33   32 1
    32   34   25 ar
    33   35   34 1
    34   36    1 1
    35   37   20 1
    36   38    4 2
    37   39    5 1
    38   40   39 1
    39   41   37 2
    40   42   37 2
    41   43   44 1
    42   45   43 1
    43   46   47 1
    44   47   48 1
    45   48   49 1
    46   50   48 1
    47   51   48 1
    48   52   51 1
    49   53   47 1
    50   54   53 1
    51   55   53 1
    52   56   53 1
    53   57   51 1
    54   58   57 ar
    55   59   58 1
    56   60   58 ar
    57   61   60 1
    58   62   60 ar
    59   63   62 ar
    60   64   63 1
    61   65   57 ar
    62   66   65 1
    63   67   43 1
    64   68   67 ar
    65   69   68 1
    66   70   68 ar
    67   71   70 1
    68   72   70 ar
    69   73   72 1
    70   74   72 ar
    71   75   74 1
    72   76   67 ar
    73   77   76 1
    74   78   43 1
    75   79   62 1
    76   80   46 2
    77   81   47 1
    78   82   81 1
    79   83   79 2
    80   84   79 2
    81    4   36 1
    82    9   36 1
    83   21   23 ar
    84   32   34 ar
    85   46   78 1
    86   51   78 1
    87   63   65 ar
    88   74   76 ar
@<TRIPOS>SUBSTRUCTURE
     1 RES1 1
     2 RES2 43

@<TRIPOS>CRYSIN
   7.8744   13.1736   15.8461  88.7943  76.7697  88.4490   2 1

