# MOL2 file generated by ConQuest
# Please check atom types

@<TRIPOS>MOLECULE
SUMVIG
    43    45     1
SMALL
NO_CHARGES
****
Generated from CSD

@<TRIPOS>ATOM
      1 O1        -0.5785    3.2876    5.6950 O.2       1 RES1    0.0000
      2 O2        -0.2946    2.1449    3.8841 O.2       1 RES1    0.0000
      3 O3        -3.2511    4.9619    1.0981 O.2       1 RES1    0.0000
      4 O4        -1.7091    5.5126    2.6520 O.3       1 RES1    0.0000
      5 O5         5.1521   -0.3998    2.0031 O.3       1 RES1    0.0000
      6 N1        -0.0972    3.1325    4.5819 N.pl3     1 RES1    0.0000
      7 N2        -1.3829    2.9432    0.1835 N.2       1 RES1    0.0000
      8 N3        -0.3233    2.1928    0.0337 N.2       1 RES1    0.0000
      9 N4         0.6069    2.6135    0.9437 N.pl3     1 RES1    0.0000
     10 C1         0.7817    4.1895    4.0638 C.ar      1 RES1    0.0000
     11 C2         1.4426    4.9811    4.9846 C.ar      1 RES1    0.0000
     12 H1         1.3313    4.8320    5.9163 H         1 RES1    0.0000
     13 C3         2.2638    5.9901    4.5306 C.ar      1 RES1    0.0000
     14 H2         2.7334    6.5326    5.1533 H         1 RES1    0.0000
     15 C4         2.4096    6.2188    3.1730 C.ar      1 RES1    0.0000
     16 H3         2.9742    6.9185    2.8665 H         1 RES1    0.0000
     17 C5         1.7294    5.4259    2.2604 C.ar      1 RES1    0.0000
     18 H4         1.8262    5.5948    1.3307 H         1 RES1    0.0000
     19 C6         0.9079    4.3872    2.6857 C.ar      1 RES1    0.0000
     20 C7         0.1238    3.6430    1.6737 C.2       1 RES1    0.0000
     21 C8        -1.1493    3.8392    1.1857 C.2       1 RES1    0.0000
     22 C9        -2.1698    4.8133    1.6117 C.2       1 RES1    0.0000
     23 C10       -2.5177    6.5959    3.1594 C.3       1 RES1    0.0000
     24 H5        -3.2151    6.2510    3.7704 H         1 RES1    0.0000
     25 H6        -2.9582    7.0778    2.4150 H         1 RES1    0.0000
     26 C11       -1.5852    7.5026    3.8897 C.3       1 RES1    0.0000
     27 H7        -2.0879    8.2596    4.2573 H         1 RES1    0.0000
     28 H8        -0.9009    7.8344    3.2716 H         1 RES1    0.0000
     29 H9        -1.1563    7.0108    4.6201 H         1 RES1    0.0000
     30 C12        1.8180    1.8629    1.1301 C.ar      1 RES1    0.0000
     31 C13        1.7077    0.5201    1.4579 C.ar      1 RES1    0.0000
     32 H10        0.8526    0.1100    1.5131 H         1 RES1    0.0000
     33 C14        2.8468   -0.2139    1.7026 C.ar      1 RES1    0.0000
     34 H11        2.7782   -1.1395    1.9054 H         1 RES1    0.0000
     35 C15        4.0990    0.3938    1.6546 C.ar      1 RES1    0.0000
     36 C16        4.2063    1.7257    1.2756 C.ar      1 RES1    0.0000
     37 H12        5.0612    2.1322    1.1996 H         1 RES1    0.0000
     38 C17        3.0590    2.4600    1.0081 C.ar      1 RES1    0.0000
     39 H13        3.1262    3.3692    0.7422 H         1 RES1    0.0000
     40 C18        6.4349    0.2138    2.0858 C.3       1 RES1    0.0000
     41 H14        7.1028   -0.4578    2.3381 H         1 RES1    0.0000
     42 H15        6.4147    0.9248    2.7600 H         1 RES1    0.0000
     43 H16        6.6704    0.5971    1.2144 H         1 RES1    0.0000
@<TRIPOS>BOND
     1    1    6 2
     2    2    6 2
     3    3   22 2
     4    4   22 1
     5    5   35 1
     6    6   10 1
     7    7    8 2
     8    8    9 1
     9    9   20 1
    10   10   11 ar
    11   11   12 1
    12   13   11 ar
    13   14   13 1
    14   15   13 ar
    15   16   15 1
    16   17   15 ar
    17   18   17 1
    18   19   10 ar
    19   20   19 1
    20   21    7 1
    21   22   21 1
    22   23    4 1
    23   24   23 1
    24   25   23 1
    25   26   23 1
    26   27   26 1
    27   28   26 1
    28   29   26 1
    29   30    9 1
    30   31   30 ar
    31   32   31 1
    32   33   31 ar
    33   34   33 1
    34   35   33 ar
    35   36   35 ar
    36   37   36 1
    37   38   30 ar
    38   39   38 1
    39   40    5 1
    40   41   40 1
    41   42   40 1
    42   43   40 1
    43   17   19 ar
    44   20   21 2
    45   36   38 ar
@<TRIPOS>SUBSTRUCTURE
     1 RES1 1

@<TRIPOS>CRYSIN
   8.8287   10.0418   10.6487 104.7160 103.3140 100.3250   2 1

