# MOL2 file generated by ConQuest
# Please check atom types

@<TRIPOS>MOLECULE
SUMVOM
    86    90     2
SMALL
NO_CHARGES
****
Generated from CSD

@<TRIPOS>ATOM
      1 C1         1.8963    4.5625    6.4590 C.2       1 RES1    0.0000
      2 C2         0.4929    4.4944    6.0337 C.2       1 RES1    0.0000
      3 C3        -1.0661    4.4363    4.2580 C.3       1 RES1    0.0000
      4 H1        -1.4967    3.6047    4.5079 H         1 RES1    0.0000
      5 H2        -1.5583    5.1676    4.6616 H         1 RES1    0.0000
      6 C4        -1.0710    4.5819    2.8162 C.3       1 RES1    0.0000
      7 H3        -1.9751    4.5779    2.4966 H         1 RES1    0.0000
      8 H4        -0.5889    3.8472    2.4197 H         1 RES1    0.0000
      9 H5        -0.6457    5.4061    2.5735 H         1 RES1    0.0000
     10 C5         2.4479    4.7174    7.6941 C.2       1 RES1    0.0000
     11 C6         1.8276    4.9352    9.0109 C.ar      1 RES1    0.0000
     12 C7         0.9584    4.0242    9.5492 C.ar      1 RES1    0.0000
     13 H6         0.7407    3.2434    9.0926 H         1 RES1    0.0000
     14 C8         0.3986    4.3047   10.8179 C.ar      1 RES1    0.0000
     15 H7        -0.1879    3.6875   11.1903 H         1 RES1    0.0000
     16 C9         0.6842    5.4435   11.5171 C.ar      1 RES1    0.0000
     17 H8         0.3037    5.6104   12.3509 H         1 RES1    0.0000
     18 C10        1.5479    6.3305   10.9380 C.ar      1 RES1    0.0000
     19 C11        2.1282    6.0726    9.7029 C.ar      1 RES1    0.0000
     20 H9         2.7269    6.6844    9.3425 H         1 RES1    0.0000
     21 C12        4.8400    4.7849    8.4342 C.ar      1 RES1    0.0000
     22 C13        5.0420    3.7810    9.2872 C.ar      1 RES1    0.0000
     23 H10        4.4707    3.0470    9.2944 H         1 RES1    0.0000
     24 C14        6.1107    3.8452   10.1595 C.ar      1 RES1    0.0000
     25 H11        6.2788    3.1245   10.7218 H         1 RES1    0.0000
     26 C15        6.9208    4.9238   10.2172 C.ar      1 RES1    0.0000
     27 C16        6.7080    5.9290    9.3665 C.ar      1 RES1    0.0000
     28 H12        7.2808    6.6604    9.3737 H         1 RES1    0.0000
     29 C17        5.6363    5.9063    8.4654 C.ar      1 RES1    0.0000
     30 H13        5.4673    6.6290    7.9056 H         1 RES1    0.0000
     31 C18        8.8658    5.9644   11.0846 C.3       1 RES1    0.0000
     32 H14        9.5307    5.8289   11.7646 H         1 RES1    0.0000
     33 H15        8.4034    6.7886   11.2504 H         1 RES1    0.0000
     34 H16        9.2900    6.0005   10.2268 H         1 RES1    0.0000
     35 C19       -2.8328    5.4615   17.9377 C.2       2 RES2    0.0000
     36 C20       -4.3003    5.5537   18.0843 C.2       2 RES2    0.0000
     37 C21       -6.0893    5.6051   19.5957 C.3       2 RES2    0.0000
     38 H17       -6.4478    6.3952   19.1632 H         2 RES2    0.0000
     39 H18       -6.5249    4.8270   19.2161 H         2 RES2    0.0000
     40 C22       -6.3368    5.6639   20.9702 C.3       2 RES2    0.0000
     41 H19       -7.2841    5.7113   21.1216 H         2 RES2    0.0000
     42 H20       -5.9144    6.4407   21.3402 H         2 RES2    0.0000
     43 H21       -5.9856    4.8757   21.3907 H         2 RES2    0.0000
     44 C23       -2.1381    5.5677   16.7747 C.2       2 RES2    0.0000
     45 C24       -2.5057    5.8395   15.3834 C.ar      2 RES2    0.0000
     46 C25       -3.2018    4.9158   14.6601 C.ar      2 RES2    0.0000
     47 H22       -3.4725    4.1183   15.0566 H         2 RES2    0.0000
     48 C26       -3.5178    5.1836   13.2857 C.ar      2 RES2    0.0000
     49 H23       -3.9674    4.5425   12.7835 H         2 RES2    0.0000
     50 C27       -3.1723    6.3371   12.7210 C.ar      2 RES2    0.0000
     51 H24       -3.4099    6.5255   11.8415 H         2 RES2    0.0000
     52 C28       -2.4781    7.2221   13.4491 C.ar      2 RES2    0.0000
     53 C29       -2.1362    6.9970   14.7466 C.ar      2 RES2    0.0000
     54 H25       -1.6435    7.6369   15.2080 H         2 RES2    0.0000
     55 C30        0.3272    5.3546   16.3205 C.ar      2 RES2    0.0000
     56 C31        0.5525    4.2706   15.5588 C.ar      2 RES2    0.0000
     57 H26       -0.0620    3.5727   15.5829 H         2 RES2    0.0000
     58 C32        1.6544    4.1557   14.7490 C.ar      2 RES2    0.0000
     59 H27        1.8199    3.3790   14.2637 H         2 RES2    0.0000
     60 C33        2.4903    5.2117   14.6818 C.ar      2 RES2    0.0000
     61 C34        2.2695    6.3592   15.4747 C.ar      2 RES2    0.0000
     62 H28        2.8640    7.0725   15.4459 H         2 RES2    0.0000
     63 C35        1.1806    6.4133   16.2821 C.ar      2 RES2    0.0000
     64 H29        1.0201    7.1667   16.8035 H         2 RES2    0.0000
     65 C36        3.9285    4.1544   13.1848 C.3       2 RES2    0.0000
     66 H30        4.7186    4.3167   12.6681 H         2 RES2    0.0000
     67 H31        3.2066    3.9119   12.5984 H         2 RES2    0.0000
     68 H32        4.0923    3.4331   13.7999 H         2 RES2    0.0000
     69 N1         2.8885    4.4904    5.5171 N.2       1 RES1    0.0000
     70 N2         4.0385    4.5999    6.1442 N.2       1 RES1    0.0000
     71 N3         3.7679    4.7442    7.4490 N.pl3     1 RES1    0.0000
     72 N4         1.8908    7.5895   11.6517 N.pl3     1 RES1    0.0000
     73 N5        -1.9699    5.2878   19.0022 N.2       2 RES2    0.0000
     74 N6        -0.7663    5.2418   18.4904 N.2       2 RES2    0.0000
     75 N7        -0.8451    5.4121   17.1544 N.pl3     2 RES2    0.0000
     76 N8        -2.1274    8.5118   12.8652 N.pl3     2 RES2    0.0000
     77 O1         0.3030    4.4436    4.7385 O.3       1 RES1    0.0000
     78 O2        -0.4133    4.4790    6.8339 O.2       1 RES1    0.0000
     79 O3         1.2262    7.8145   12.6249 O.2       1 RES1    0.0000
     80 O4         2.8264    8.2413   11.2024 O.2       1 RES1    0.0000
     81 O5         7.9478    4.8964   11.1086 O.3       1 RES1    0.0000
     82 O6        -4.6629    5.5276   19.3578 O.3       2 RES2    0.0000
     83 O7        -5.0549    5.6332   17.1736 O.2       2 RES2    0.0000
     84 O8        -1.3447    9.2319   13.4635 O.2       2 RES2    0.0000
     85 O9        -2.6381    8.8151   11.8127 O.2       2 RES2    0.0000
     86 O10        3.5875    5.3045   13.8960 O.3       2 RES2    0.0000
@<TRIPOS>BOND
     1    1    2 1
     2    2   77 1
     3    3    4 1
     4    5    3 1
     5    6    3 1
     6    7    6 1
     7    8    6 1
     8    9    6 1
     9   10    1 2
    10   11   10 1
    11   12   11 ar
    12   13   12 1
    13   14   12 ar
    14   15   14 1
    15   16   14 ar
    16   17   16 1
    17   18   16 ar
    18   19   11 ar
    19   20   19 1
    20   21   22 ar
    21   22   23 1
    22   24   22 ar
    23   25   24 1
    24   26   24 ar
    25   27   26 ar
    26   28   27 1
    27   29   21 ar
    28   30   29 1
    29   31   32 1
    30   33   31 1
    31   34   31 1
    32   35   36 1
    33   36   82 1
    34   37   38 1
    35   39   37 1
    36   40   37 1
    37   41   40 1
    38   42   40 1
    39   43   40 1
    40   44   35 2
    41   45   44 1
    42   46   45 ar
    43   47   46 1
    44   48   46 ar
    45   49   48 1
    46   50   48 ar
    47   51   50 1
    48   52   50 ar
    49   53   45 ar
    50   54   53 1
    51   55   56 ar
    52   56   57 1
    53   58   56 ar
    54   59   58 1
    55   60   58 ar
    56   61   60 ar
    57   62   61 1
    58   63   55 ar
    59   64   63 1
    60   65   66 1
    61   67   65 1
    62   68   65 1
    63   69    1 1
    64   70   69 2
    65   71   10 1
    66   72   18 1
    67   73   35 1
    68   74   73 2
    69   75   44 1
    70   76   52 1
    71   77    3 1
    72   78    2 2
    73   79   72 2
    74   80   72 2
    75   81   26 1
    76   82   37 1
    77   83   36 2
    78   84   76 2
    79   85   76 2
    80   86   60 1
    81   18   19 ar
    82   21   71 1
    83   27   29 ar
    84   31   81 1
    85   52   53 ar
    86   55   75 1
    87   61   63 ar
    88   65   86 1
    89   70   71 1
    90   74   75 1
@<TRIPOS>SUBSTRUCTURE
     1 RES1 1
     2 RES2 35

@<TRIPOS>CRYSIN
  24.2894    6.6791   25.8889  90.0000 111.8500  90.0000  13 1

