# MOL2 file generated by ConQuest
# Please check atom types

@<TRIPOS>MOLECULE
SUMZEF
    64    66     1
SMALL
NO_CHARGES
****
Generated from CSD

@<TRIPOS>ATOM
      1 O1        -0.7487    8.2604    6.2906 O.2       1 RES1    0.0000
      2 O2        -0.3455   10.2764    5.4454 O.3       1 RES1    0.0000
      3 O3        -0.1938   16.9771    6.6331 O.2       1 RES1    0.0000
      4 O4        -1.9213   16.8777    7.8560 O.2       1 RES1    0.0000
      5 O5         3.4395    8.9347    3.1757 O.2       1 RES1    0.0000
      6 O6         4.3785    6.9472    2.6027 O.3       1 RES1    0.0000
      7 O7         1.7252    5.1600    2.3049 O.2       1 RES1    0.0000
      8 O8         2.7277    3.4300    3.3422 O.3       1 RES1    0.0000
      9 N1         2.7600    6.9622    4.1073 N.am      1 RES1    0.0000
     10 N2        -1.1426   16.3805    7.1197 N.pl3     1 RES1    0.0000
     11 C1         1.6635    7.3886    4.8660 C.2       1 RES1    0.0000
     12 C2         1.1623    6.1953    5.6023 C.3       1 RES1    0.0000
     13 C3         2.3210    5.2349    5.6599 C.3       1 RES1    0.0000
     14 C4         3.0184    5.5047    4.3314 C.3       1 RES1    0.0000
     15 C5         1.1242    8.6132    4.8564 C.2       1 RES1    0.0000
     16 C6        -0.0773    8.9646    5.5959 C.2       1 RES1    0.0000
     17 C7        -1.5233   10.7505    6.0793 C.3       1 RES1    0.0000
     18 C8        -1.3774   12.2544    6.2649 C.ar      1 RES1    0.0000
     19 C9        -2.4595   12.9109    6.8924 C.ar      1 RES1    0.0000
     20 C10       -2.3631   14.2527    7.1837 C.ar      1 RES1    0.0000
     21 C11       -1.2170   14.9243    6.7900 C.ar      1 RES1    0.0000
     22 C12       -0.1730   14.3222    6.1241 C.ar      1 RES1    0.0000
     23 C13       -0.2763   12.9559    5.8936 C.ar      1 RES1    0.0000
     24 C14        3.5444    7.7700    3.3037 C.2       1 RES1    0.0000
     25 C15        5.1929    7.6896    1.6807 C.3       1 RES1    0.0000
     26 C16        3.2035    7.4512    0.0576 C.ar      1 RES1    0.0000
     27 C17        2.5212    7.7877   -1.1173 C.ar      1 RES1    0.0000
     28 C18        3.1418    8.7126   -1.9272 C.ar      1 RES1    0.0000
     29 C19        4.3358    9.2384   -1.6967 C.ar      1 RES1    0.0000
     30 C20        4.9789    8.9319   -0.5154 C.ar      1 RES1    0.0000
     31 C21        4.4437    8.0056    0.3681 C.ar      1 RES1    0.0000
     32 C22        2.3972    4.7105    3.1725 C.2       1 RES1    0.0000
     33 C23        2.1353    2.3716    2.4458 C.3       1 RES1    0.0000
     34 C24        0.6114    2.4315    2.6315 C.3       1 RES1    0.0000
     35 C25        2.6094    1.0857    3.1565 C.3       1 RES1    0.0000
     36 C26        2.5887    2.5092    1.0884 C.3       1 RES1    0.0000
     37 H1         0.4274    5.7948    5.1317 H         1 RES1    0.0000
     38 H2         0.8779    6.4051    6.4954 H         1 RES1    0.0000
     39 H3         2.0315    4.3236    5.7431 H         1 RES1    0.0000
     40 H4         2.9007    5.4420    6.3962 H         1 RES1    0.0000
     41 H5         3.9615    5.3507    4.4274 H         1 RES1    0.0000
     42 H6         1.5435    9.2834    4.3089 H         1 RES1    0.0000
     43 H7        -1.5804   10.3595    6.9564 H         1 RES1    0.0000
     44 H8        -2.3141   10.5216    5.5863 H         1 RES1    0.0000
     45 H9        -3.2803   12.4382    7.0461 H         1 RES1    0.0000
     46 H10       -3.0345   14.7349    7.6703 H         1 RES1    0.0000
     47 H11        0.5497   14.8493    5.7751 H         1 RES1    0.0000
     48 H12        0.4413   12.4532    5.4998 H         1 RES1    0.0000
     49 H13        5.9658    7.1665    1.4566 H         1 RES1    0.0000
     50 H14        5.4842    8.5206    2.0648 H         1 RES1    0.0000
     51 H15        2.7571    6.9023    0.7075 H         1 RES1    0.0000
     52 H16        1.6635    7.4240   -1.3477 H         1 RES1    0.0000
     53 H17        2.7306    8.9129   -2.7723 H         1 RES1    0.0000
     54 H18        4.6715    9.8528   -2.3530 H         1 RES1    0.0000
     55 H19        5.8118    9.3638   -0.3105 H         1 RES1    0.0000
     56 H20        0.1419    1.7286    2.1769 H         1 RES1    0.0000
     57 H21        0.3201    2.4710    3.5438 H         1 RES1    0.0000
     58 H22        0.4280    3.2693    2.1993 H         1 RES1    0.0000
     59 H23        3.5606    1.0312    3.0380 H         1 RES1    0.0000
     60 H24        2.4116    1.2083    4.0881 H         1 RES1    0.0000
     61 H25        2.2011    0.2738    2.8492 H         1 RES1    0.0000
     62 H26        3.5323    2.3539    1.0052 H         1 RES1    0.0000
     63 H27        2.1180    1.9779    0.4418 H         1 RES1    0.0000
     64 H28        2.4035    3.4396    0.9348 H         1 RES1    0.0000
@<TRIPOS>BOND
     1    1   16 2
     2    2   16 1
     3    3   10 2
     4    4   10 2
     5    5   24 2
     6    6   24 1
     7    7   32 2
     8    8   32 1
     9    9   11 1
    10   10   21 1
    11   11   12 1
    12   12   13 1
    13   13   14 1
    14   14    9 1
    15   15   11 2
    16   16   15 1
    17   17    2 1
    18   18   17 1
    19   19   18 ar
    20   20   19 ar
    21   21   20 ar
    22   22   21 ar
    23   23   18 ar
    24   24    9 1
    25   25    6 1
    26   26   27 ar
    27   27   28 ar
    28   28   29 ar
    29   29   30 ar
    30   30   31 ar
    31   31   25 1
    32   32   14 1
    33   33    8 1
    34   34   33 1
    35   35   33 1
    36   36   33 1
    37   37   12 1
    38   38   12 1
    39   39   13 1
    40   40   13 1
    41   41   14 1
    42   42   15 1
    43   43   17 1
    44   44   17 1
    45   45   19 1
    46   46   20 1
    47   47   22 1
    48   48   23 1
    49   49   25 1
    50   50   25 1
    51   51   26 1
    52   52   27 1
    53   53   28 1
    54   54   29 1
    55   55   30 1
    56   56   34 1
    57   57   34 1
    58   58   34 1
    59   59   35 1
    60   60   35 1
    61   61   35 1
    62   62   36 1
    63   63   36 1
    64   64   36 1
    65   22   23 ar
    66   26   31 ar
@<TRIPOS>SUBSTRUCTURE
     1 RES1 1

@<TRIPOS>CRYSIN
   5.7680   13.6220   32.0130  90.0000  90.0000  90.0000  19 1

