# MOL2 file generated by ConQuest
# Please check atom types

@<TRIPOS>MOLECULE
SUNCIO
    36    37     1
SMALL
NO_CHARGES
****
Generated from CSD

@<TRIPOS>ATOM
      1 O1        -4.3242    0.0411    7.5773 O.2       1 RES1    0.0000
      2 O2        -4.7416    2.1412    7.2737 O.2       1 RES1    0.0000
      3 N1        -4.1608    1.2247    7.8425 N.pl3     1 RES1    0.0000
      4 N2        -1.0050    1.1381    6.9872 N.ar      1 RES1    0.0000
      5 C1        -3.1761    1.5841    8.9120 C.3       1 RES1    0.0000
      6 H1        -2.6571    0.7809    9.1687 H         1 RES1    0.0000
      7 H2        -3.6586    1.9085    9.7120 H         1 RES1    0.0000
      8 C2        -2.2202    2.6744    8.4088 C.3       1 RES1    0.0000
      9 H3        -2.7326    3.5286    8.3180 H         1 RES1    0.0000
     10 C3        -1.6405    2.3167    7.0629 C.ar      1 RES1    0.0000
     11 C4        -1.7443    3.1732    5.9804 C.ar      1 RES1    0.0000
     12 H4        -2.2025    4.0008    6.0678 H         1 RES1    0.0000
     13 C5        -1.1778    2.8166    4.7722 C.ar      1 RES1    0.0000
     14 H5        -1.2382    3.3926    4.0196 H         1 RES1    0.0000
     15 C6        -0.5216    1.6052    4.6818 C.ar      1 RES1    0.0000
     16 H6        -0.1280    1.3236    3.8641 H         1 RES1    0.0000
     17 C7        -0.4535    0.8165    5.8074 C.ar      1 RES1    0.0000
     18 H7         0.0141   -0.0083    5.7443 H         1 RES1    0.0000
     19 O1B        1.0055    5.5132   10.2954 O.2       1 RES1    0.0000
     20 O2B        1.4230    3.4131   10.5991 O.2       1 RES1    0.0000
     21 N1B        0.8421    4.3296   10.0302 N.pl3     1 RES1    0.0000
     22 N2B       -2.3136    4.4162   10.8855 N.ar      1 RES1    0.0000
     23 C1B       -0.1425    3.9702    8.9607 C.3       1 RES1    0.0000
     24 H1B       -0.6616    4.7734    8.7040 H         1 RES1    0.0000
     25 H2B        0.3399    3.6458    8.1607 H         1 RES1    0.0000
     26 C2B       -1.0985    2.8799    9.4640 C.3       1 RES1    0.0000
     27 H3B       -0.5861    2.0257    9.5547 H         1 RES1    0.0000
     28 C3B       -1.6781    3.2376   10.8098 C.ar      1 RES1    0.0000
     29 C4B       -1.5743    2.3811   11.8923 C.ar      1 RES1    0.0000
     30 H4B       -1.1161    1.5535   11.8049 H         1 RES1    0.0000
     31 C5B       -2.1409    2.7377   13.1005 C.ar      1 RES1    0.0000
     32 H5B       -2.0804    2.1617   13.8531 H         1 RES1    0.0000
     33 C6B       -2.7971    3.9491   13.1909 C.ar      1 RES1    0.0000
     34 H6B       -3.1907    4.2307   14.0086 H         1 RES1    0.0000
     35 C7B       -2.8652    4.7378   12.0653 C.ar      1 RES1    0.0000
     36 H7B       -3.3327    5.5626   12.1284 H         1 RES1    0.0000
@<TRIPOS>BOND
     1    1    3 2
     2    2    3 2
     3    3    5 1
     4    4   10 ar
     5    5    6 1
     6    7    5 1
     7    8    5 1
     8    9    8 1
     9   10    8 1
    10   11   10 ar
    11   12   11 1
    12   13   11 ar
    13   14   13 1
    14   15   13 ar
    15   16   15 1
    16   17    4 ar
    17   18   17 1
    18   19   21 2
    19   20   21 2
    20   21   23 1
    21   22   28 ar
    22   23   24 1
    23   25   23 1
    24   26    8 1
    25   27   26 1
    26   28   26 1
    27   29   28 ar
    28   30   29 1
    29   31   29 ar
    30   32   31 1
    31   33   31 ar
    32   34   33 1
    33   35   22 ar
    34   36   35 1
    35   15   17 ar
    36   23   26 1
    37   33   35 ar
@<TRIPOS>SUBSTRUCTURE
     1 RES1 1

@<TRIPOS>CRYSIN
   6.9276    5.5543   18.1782  90.0000 100.5190  90.0000 231 1

