# MOL2 file generated by ConQuest
# Please check atom types

@<TRIPOS>MOLECULE
SUNCUZ
    90    95     1
SMALL
NO_CHARGES
****
Generated from CSD

@<TRIPOS>ATOM
      1 O1         2.4939    4.3523    5.5746 O.3       1 RES1    0.0000
      2 O2         3.7294    3.1078    4.1850 O.3       1 RES1    0.0000
      3 O3         1.1515    5.6293    6.8631 O.3       1 RES1    0.0000
      4 O4         3.1592    4.6554    8.2909 O.3       1 RES1    0.0000
      5 O5         2.3057    4.8417   10.3386 O.2       1 RES1    0.0000
      6 O6        -1.3026    0.2220    9.6545 O.3       1 RES1    0.0000
      7 O7        -1.9820   -0.9542    7.4536 O.3       1 RES1    0.0000
      8 O8         7.2523    3.2079    4.3363 O.3       1 RES1    0.0000
      9 O9         5.9066    1.6592    3.4903 O.2       1 RES1    0.0000
     10 N1         2.7504    2.9559    5.1713 N.3       1 RES1    0.0000
     11 C1         1.5201    4.3306    6.6260 C.3       1 RES1    0.0000
     12 H1         0.7640    3.8099    6.3571 H         1 RES1    0.0000
     13 C2         2.1290    3.7400    7.8762 C.3       1 RES1    0.0000
     14 H2         1.5075    3.7269    8.5423 H         1 RES1    0.0000
     15 C3         2.6810    2.3337    7.6080 C.3       1 RES1    0.0000
     16 C4         3.5096    2.3418    6.2952 C.3       1 RES1    0.0000
     17 H3         3.6265    1.3980    6.0226 H         1 RES1    0.0000
     18 C5         4.8517    3.0604    6.2854 C.3       1 RES1    0.0000
     19 H4         5.6463    2.4137    6.5782 H         1 RES1    0.0000
     20 H5         4.8546    3.8375    6.7118 H         1 RES1    0.0000
     21 C6         4.9984    3.4315    4.8091 C.3       1 RES1    0.0000
     22 H6         5.0994    4.2642    4.6850 H         1 RES1    0.0000
     23 C7         0.1484    6.1873    5.9945 C.3       1 RES1    0.0000
     24 H7        -0.2865    5.4851    5.5053 H         1 RES1    0.0000
     25 C8         0.7877    7.2050    5.0463 C.3       1 RES1    0.0000
     26 H8         0.3400    7.1960    4.1972 H         1 RES1    0.0000
     27 H9         1.7179    7.0038    4.9198 H         1 RES1    0.0000
     28 C9         0.6289    8.5508    5.7070 C.3       1 RES1    0.0000
     29 H10        1.4784    8.9926    5.7751 H         1 RES1    0.0000
     30 H11        0.0216    9.1002    5.2061 H         1 RES1    0.0000
     31 C10        0.0680    8.2648    7.0890 C.3       1 RES1    0.0000
     32 H12        0.7750    8.0989    7.7169 H         1 RES1    0.0000
     33 H13       -0.4688    8.9983    7.3979 H         1 RES1    0.0000
     34 C11       -0.7884    7.0091    6.8878 C.3       1 RES1    0.0000
     35 C12       -1.1141    6.2427    8.1714 C.ar      1 RES1    0.0000
     36 C13       -0.8865    6.7323    9.4272 C.ar      1 RES1    0.0000
     37 H14       -0.5397    7.6214    9.5320 H         1 RES1    0.0000
     38 C14       -1.1509    5.9596   10.5600 C.ar      1 RES1    0.0000
     39 H15       -0.9679    6.3056   11.4365 H         1 RES1    0.0000
     40 C15       -1.6719    4.7060   10.4081 C.ar      1 RES1    0.0000
     41 H16       -1.8607    4.1748   11.1851 H         1 RES1    0.0000
     42 C16       -1.9284    4.1978    9.1667 C.ar      1 RES1    0.0000
     43 H17       -2.2939    3.3155    9.0677 H         1 RES1    0.0000
     44 C17       -1.6573    4.9637    8.0670 C.ar      1 RES1    0.0000
     45 H18       -1.8475    4.6092    7.1954 H         1 RES1    0.0000
     46 C18       -2.0965    7.3768    6.1769 C.ar      1 RES1    0.0000
     47 C19       -2.4646    6.9034    4.9349 C.ar      1 RES1    0.0000
     48 H19       -1.8830    6.2964    4.4711 H         1 RES1    0.0000
     49 C20       -3.6542    7.2859    4.3454 C.ar      1 RES1    0.0000
     50 H20       -3.8863    6.9484    3.4772 H         1 RES1    0.0000
     51 C21       -4.4999    8.1395    4.9883 C.ar      1 RES1    0.0000
     52 H21       -5.3177    8.4149    4.5677 H         1 RES1    0.0000
     53 C22       -4.1760    8.6067    6.2481 C.ar      1 RES1    0.0000
     54 H22       -4.7722    9.1977    6.7138 H         1 RES1    0.0000
     55 C23       -2.9909    8.2166    6.8280 C.ar      1 RES1    0.0000
     56 H23       -2.7759    8.5341    7.7080 H         1 RES1    0.0000
     57 C24        3.0704    5.2180    9.5076 C.2       1 RES1    0.0000
     58 C25        4.0359    6.3166    9.6480 C.3       1 RES1    0.0000
     59 H24        3.9556    6.7036   10.5228 H         1 RES1    0.0000
     60 H25        3.8571    6.9867    8.9842 H         1 RES1    0.0000
     61 H26        4.9261    5.9775    9.5285 H         1 RES1    0.0000
     62 C26        3.5864    1.8978    8.7787 C.3       1 RES1    0.0000
     63 H27        3.0731    1.9544    9.5879 H         1 RES1    0.0000
     64 H28        4.3258    2.5084    8.8254 H         1 RES1    0.0000
     65 C27        4.1432    0.4973    8.6760 C.3       1 RES1    0.0000
     66 H29        4.6911    0.3136    9.4426 H         1 RES1    0.0000
     67 H30        4.6724    0.4210    7.8787 H         1 RES1    0.0000
     68 H31        3.4198   -0.1330    8.6413 H         1 RES1    0.0000
     69 C28        1.4726    1.3846    7.5150 C.ar      1 RES1    0.0000
     70 C29        0.6550    1.2130    8.6325 C.ar      1 RES1    0.0000
     71 H32        0.8826    1.6625    9.4497 H         1 RES1    0.0000
     72 C30       -0.4630    0.4219    8.5980 C.ar      1 RES1    0.0000
     73 C31       -0.8226   -0.2325    7.4208 C.ar      1 RES1    0.0000
     74 C32       -0.0125   -0.1126    6.3262 C.ar      1 RES1    0.0000
     75 H33       -0.2323   -0.5801    5.5171 H         1 RES1    0.0000
     76 C33        1.1321    0.6846    6.3765 C.ar      1 RES1    0.0000
     77 H34        1.6948    0.7473    5.6012 H         1 RES1    0.0000
     78 C34       -0.9978    0.8709   10.8817 C.3       1 RES1    0.0000
     79 H35       -1.6638    0.6471   11.5358 H         1 RES1    0.0000
     80 H36       -0.9876    1.8214   10.7476 H         1 RES1    0.0000
     81 H37       -0.1360    0.5821   11.1907 H         1 RES1    0.0000
     82 C35       -2.5642   -1.2925    6.2162 C.3       1 RES1    0.0000
     83 H38       -3.3680   -1.7948    6.3676 H         1 RES1    0.0000
     84 H39       -1.9469   -1.8225    5.7064 H         1 RES1    0.0000
     85 H40       -2.7743   -0.4911    5.7313 H         1 RES1    0.0000
     86 C36        6.0697    2.6513    4.1202 C.2       1 RES1    0.0000
     87 C37        8.3791    2.5746    3.7181 C.3       1 RES1    0.0000
     88 H41        9.1789    3.0571    3.9392 H         1 RES1    0.0000
     89 H42        8.2609    2.5702    2.7654 H         1 RES1    0.0000
     90 H43        8.4522    1.6715    4.0357 H         1 RES1    0.0000
@<TRIPOS>BOND
     1    1   10 1
     2    2   10 1
     3    3   11 1
     4    4   13 1
     5    5   57 2
     6    6   72 1
     7    7   73 1
     8    8   86 1
     9    9   86 2
    10   10   16 1
    11   11    1 1
    12   12   11 1
    13   13   11 1
    14   14   13 1
    15   15   13 1
    16   16   15 1
    17   17   16 1
    18   18   16 1
    19   19   18 1
    20   20   18 1
    21   21    2 1
    22   22   21 1
    23   23    3 1
    24   24   23 1
    25   25   23 1
    26   26   25 1
    27   27   25 1
    28   28   25 1
    29   29   28 1
    30   30   28 1
    31   31   28 1
    32   32   31 1
    33   33   31 1
    34   34   23 1
    35   35   34 1
    36   36   35 ar
    37   37   36 1
    38   38   36 ar
    39   39   38 1
    40   40   38 ar
    41   41   40 1
    42   42   40 ar
    43   43   42 1
    44   44   35 ar
    45   45   44 1
    46   46   34 1
    47   47   46 ar
    48   48   47 1
    49   49   47 ar
    50   50   49 1
    51   51   49 ar
    52   52   51 1
    53   53   51 ar
    54   54   53 1
    55   55   46 ar
    56   56   55 1
    57   57    4 1
    58   58   57 1
    59   59   58 1
    60   60   58 1
    61   61   58 1
    62   62   15 1
    63   63   62 1
    64   64   62 1
    65   65   62 1
    66   66   65 1
    67   67   65 1
    68   68   65 1
    69   69   15 1
    70   70   69 ar
    71   71   70 1
    72   72   70 ar
    73   73   72 ar
    74   74   73 ar
    75   75   74 1
    76   76   69 ar
    77   77   76 1
    78   78    6 1
    79   79   78 1
    80   80   78 1
    81   81   78 1
    82   82    7 1
    83   83   82 1
    84   84   82 1
    85   85   82 1
    86   86   21 1
    87   87    8 1
    88   88   87 1
    89   89   87 1
    90   90   87 1
    91   18   21 1
    92   31   34 1
    93   42   44 ar
    94   53   55 ar
    95   74   76 ar
@<TRIPOS>SUBSTRUCTURE
     1 RES1 1

@<TRIPOS>CRYSIN
   9.0860   21.9150    9.3840  90.0000 113.2900  90.0000   4 1

