# MOL2 file generated by ConQuest
# Please check atom types

@<TRIPOS>MOLECULE
SUNCOU
    36    37     1
SMALL
NO_CHARGES
****
Generated from CSD

@<TRIPOS>ATOM
      1 O1        -0.6905    4.6757    3.2539 O.2       1 RES1    0.0000
      2 O2        -1.2561    6.7185    3.6724 O.2       1 RES1    0.0000
      3 O3         3.3092    6.9606   -2.0083 O.2       1 RES1    0.0000
      4 O4         2.9163    9.0040   -1.4841 O.2       1 RES1    0.0000
      5 N1        -1.5074    6.8044    0.2723 N.ar      1 RES1    0.0000
      6 N2         3.5225    7.0225    1.5122 N.ar      1 RES1    0.0000
      7 N3        -0.5829    5.8827    3.0931 N.pl3     1 RES1    0.0000
      8 N4         2.6893    7.8050   -1.3936 N.pl3     1 RES1    0.0000
      9 C1        -2.6268    6.9549   -0.4521 C.ar      1 RES1    0.0000
     10 H1        -2.9990    6.1865   -0.8682 H         1 RES1    0.0000
     11 C2        -3.2663    8.1628   -0.6259 C.ar      1 RES1    0.0000
     12 H2        -4.0446    8.2275   -1.1670 H         1 RES1    0.0000
     13 C3        -2.7514    9.2752    0.0045 C.ar      1 RES1    0.0000
     14 H3        -3.1839   10.1170   -0.0751 H         1 RES1    0.0000
     15 C4        -1.5981    9.1478    0.7539 C.ar      1 RES1    0.0000
     16 H4        -1.2176    9.9029    1.1868 H         1 RES1    0.0000
     17 C5        -1.0015    7.8952    0.8649 C.ar      1 RES1    0.0000
     18 C6         0.2909    7.7370    1.6427 C.3       1 RES1    0.0000
     19 H5         0.2456    8.3494    2.4317 H         1 RES1    0.0000
     20 C7         1.5006    8.1829    0.7705 C.3       1 RES1    0.0000
     21 H6         1.3393    9.1325    0.4999 H         1 RES1    0.0000
     22 C8         2.8018    8.1510    1.5643 C.ar      1 RES1    0.0000
     23 C9         3.1956    9.2470    2.3145 C.ar      1 RES1    0.0000
     24 H7         2.6562   10.0279    2.3468 H         1 RES1    0.0000
     25 C10        4.3847    9.1873    3.0147 C.ar      1 RES1    0.0000
     26 H8         4.6764    9.9304    3.5294 H         1 RES1    0.0000
     27 C11        5.1407    8.0421    2.9603 C.ar      1 RES1    0.0000
     28 H9         5.9675    7.9817    3.4245 H         1 RES1    0.0000
     29 C12        4.6715    6.9852    2.2162 C.ar      1 RES1    0.0000
     30 H10        5.1846    6.1855    2.1966 H         1 RES1    0.0000
     31 C13        0.5038    6.3244    2.1686 C.3       1 RES1    0.0000
     32 H11        0.5512    5.6980    1.4035 H         1 RES1    0.0000
     33 H12        1.3704    6.2851    2.6456 H         1 RES1    0.0000
     34 C14        1.5760    7.3508   -0.5083 C.3       1 RES1    0.0000
     35 H13        1.7132    6.3995   -0.2719 H         1 RES1    0.0000
     36 H14        0.7187    7.4232   -0.9971 H         1 RES1    0.0000
@<TRIPOS>BOND
     1    1    7 2
     2    2    7 2
     3    3    8 2
     4    4    8 2
     5    5    9 ar
     6    6   22 ar
     7    7   31 1
     8    8   34 1
     9    9   10 1
    10   11    9 ar
    11   12   11 1
    12   13   11 ar
    13   14   13 1
    14   15   13 ar
    15   16   15 1
    16   17    5 ar
    17   18   17 1
    18   19   18 1
    19   20   18 1
    20   21   20 1
    21   22   20 1
    22   23   22 ar
    23   24   23 1
    24   25   23 ar
    25   26   25 1
    26   27   25 ar
    27   28   27 1
    28   29    6 ar
    29   30   29 1
    30   31   18 1
    31   32   31 1
    32   33   31 1
    33   34   20 1
    34   35   34 1
    35   36   34 1
    36   15   17 ar
    37   27   29 ar
@<TRIPOS>SUBSTRUCTURE
     1 RES1 1

@<TRIPOS>CRYSIN
   9.4811   10.5970   14.6023  90.0000 104.0940  90.0000  14 1

