# MOL2 file generated by ConQuest
# Please check atom types

@<TRIPOS>MOLECULE
SUNKIV
    27    26     1
SMALL
NO_CHARGES
****
Generated from CSD

@<TRIPOS>ATOM
      1 O1         0.4883    6.5044   -3.6333 O.2       1 RES1    0.0000
      2 O2         0.5183    8.6499   -3.4892 O.2       1 RES1    0.0000
      3 O3        -0.3485    6.5886   -0.6929 O.3       1 RES1    0.0000
      4 H1        -0.0532    5.8758   -0.9712 H         1 RES1    0.0000
      5 O4         2.2851    6.2629    0.7028 O.3       1 RES1    0.0000
      6 H2         2.9333    6.3253    0.2043 H         1 RES1    0.0000
      7 O5        -0.2957    8.5595    1.6859 O.3       1 RES1    0.0000
      8 H3        -0.9062    8.4981    2.2307 H         1 RES1    0.0000
      9 O6         2.3755    8.6974    3.1141 O.3       1 RES1    0.0000
     10 H4         2.1992    9.3005    3.6412 H         1 RES1    0.0000
     11 O7         2.4380    6.4789    5.0536 O.3       1 RES1    0.0000
     12 H5         1.7706    6.5131    5.5294 H         1 RES1    0.0000
     13 N1         0.8332    7.5456   -3.0894 N.pl3     1 RES1    0.0000
     14 C1         1.6367    7.4349   -1.8408 C.3       1 RES1    0.0000
     15 H6         2.3006    8.1416   -1.8132 H         1 RES1    0.0000
     16 H7         2.0986    6.5825   -1.8211 H         1 RES1    0.0000
     17 C2         0.7060    7.5499   -0.6337 C.3       1 RES1    0.0000
     18 H8         0.2947    8.4393   -0.6633 H         1 RES1    0.0000
     19 C3         1.5255    7.4674    0.6485 C.3       1 RES1    0.0000
     20 H9         2.1395    8.2303    0.6820 H         1 RES1    0.0000
     21 C4         0.6298    7.4990    1.8912 C.3       1 RES1    0.0000
     22 H10        0.1305    6.6571    1.9336 H         1 RES1    0.0000
     23 C5         1.3936    7.6790    3.2158 C.3       1 RES1    0.0000
     24 H11        0.7468    7.9547    3.8988 H         1 RES1    0.0000
     25 C6         2.0446    6.3841    3.6866 C.3       1 RES1    0.0000
     26 H12        1.4184    5.6510    3.5810 H         1 RES1    0.0000
     27 H13        2.8226    6.1962    3.1388 H         1 RES1    0.0000
@<TRIPOS>BOND
     1    1   13 2
     2    2   13 2
     3    3    4 1
     4    5    6 1
     5    7    8 1
     6    9   10 1
     7   11   12 1
     8   13   14 1
     9   14   15 1
    10   16   14 1
    11   17    3 1
    12   18   17 1
    13   19    5 1
    14   20   19 1
    15   21    7 1
    16   22   21 1
    17   23    9 1
    18   24   23 1
    19   25   11 1
    20   26   25 1
    21   27   25 1
    22   14   17 1
    23   17   19 1
    24   19   21 1
    25   21   23 1
    26   23   25 1
@<TRIPOS>SUBSTRUCTURE
     1 RES1 1

@<TRIPOS>CRYSIN
   5.0120    8.7790    9.8880  90.0000  93.4200  90.0000   4 1

