# MOL2 file generated by ConQuest
# Please check atom types

@<TRIPOS>MOLECULE
SUNMET
    90    94     2
SMALL
NO_CHARGES
****
Generated from CSD

@<TRIPOS>ATOM
      1 O1         2.4219    3.4551    4.6929 O.3       1 RES1    0.0000
      2 C1         3.7157    2.8934    4.5545 C.3       1 RES1    0.0000
      3 H1         4.3297    3.2822    5.1976 H         1 RES1    0.0000
      4 H2         4.0605    3.0443    3.6615 H         1 RES1    0.0000
      5 C2         3.5338    1.4194    4.8154 C.3       1 RES1    0.0000
      6 H3         3.5070    0.9285    3.9800 H         1 RES1    0.0000
      7 H4         4.2636    1.0782    5.3544 H         1 RES1    0.0000
      8 C3         2.2445    1.2790    5.5369 C.3       1 RES1    0.0000
      9 H5         2.3819    0.8623    6.4018 H         1 RES1    0.0000
     10 H6         1.6233    0.7381    5.0249 H         1 RES1    0.0000
     11 C4         1.7104    2.7088    5.7023 C.3       1 RES1    0.0000
     12 C5         2.0676    3.2590    7.0878 C.3       1 RES1    0.0000
     13 H7         1.4169    2.9282    7.7248 H         1 RES1    0.0000
     14 H8         2.9320    2.9015    7.3438 H         1 RES1    0.0000
     15 C6         2.1229    4.7538    7.2029 C.2       1 RES1    0.0000
     16 C7         0.8998    5.6092    7.0363 C.3       1 RES1    0.0000
     17 H9         1.0753    6.2591    6.3381 H         1 RES1    0.0000
     18 H10        0.7580    6.1024    7.8608 H         1 RES1    0.0000
     19 C8        -0.3893    4.8768    6.6946 C.3       1 RES1    0.0000
     20 H11       -0.5632    4.2234    7.3891 H         1 RES1    0.0000
     21 H12       -1.1168    5.5175    6.7080 H         1 RES1    0.0000
     22 C9        -0.4009    4.1700    5.3606 C.3       1 RES1    0.0000
     23 H13        0.0751    4.7178    4.7138 H         1 RES1    0.0000
     24 H14       -1.3180    4.0888    5.0592 H         1 RES1    0.0000
     25 C10        0.2313    2.7878    5.3802 C.3       1 RES1    0.0000
     26 H15       -0.2463    2.2492    6.0306 H         1 RES1    0.0000
     27 H16        0.0908    2.3804    4.5116 H         1 RES1    0.0000
     28 N1         3.2848    5.2239    7.4541 N.2       1 RES1    0.0000
     29 N2         3.3778    6.6003    7.5717 N.pl3     1 RES1    0.0000
     30 H17        2.6743    7.0947    7.5325 H         1 RES1    0.0000
     31 C11        4.5960    7.1493    7.7493 C.ar      1 RES1    0.0000
     32 C12        4.8350    8.5501    7.8179 C.ar      1 RES1    0.0000
     33 C13        6.1078    9.0538    8.0065 C.ar      1 RES1    0.0000
     34 H18        6.2421    9.9730    8.0666 H         1 RES1    0.0000
     35 C14        7.1706    8.1985    8.1021 C.ar      1 RES1    0.0000
     36 C15        6.9859    6.8139    8.0163 C.ar      1 RES1    0.0000
     37 H19        7.7160    6.2405    8.0617 H         1 RES1    0.0000
     38 C16        5.7360    6.3160    7.8657 C.ar      1 RES1    0.0000
     39 H20        5.6230    5.3933    7.8363 H         1 RES1    0.0000
     40 N3         3.7708    9.5169    7.6145 N.pl3     1 RES1    0.0000
     41 O2         4.0446   10.6996    7.7101 O.2       1 RES1    0.0000
     42 O3         2.6409    9.1165    7.3536 O.2       1 RES1    0.0000
     43 N4         8.5107    8.7254    8.2638 N.pl3     1 RES1    0.0000
     44 O4         9.4616    7.9640    8.0911 O.2       1 RES1    0.0000
     45 O5         8.6321    9.9046    8.5823 O.2       1 RES1    0.0000
     46 O6         9.2513    2.7959    1.6562 O.3       2 RES2    0.0000
     47 C17       10.5050    3.4481    1.5312 C.3       2 RES2    0.0000
     48 H21       11.0246    3.0326    0.8269 H         2 RES2    0.0000
     49 H22       11.0005    3.3750    2.3618 H         2 RES2    0.0000
     50 C18       10.2643    4.8815    1.2066 C.3       2 RES2    0.0000
     51 H23       10.7642    5.1426    0.4177 H         2 RES2    0.0000
     52 H24       10.5292    5.4490    1.9477 H         2 RES2    0.0000
     53 C19        8.7836    4.9859    0.9579 C.3       2 RES2    0.0000
     54 H25        8.6043    5.4687    0.1360 H         2 RES2    0.0000
     55 H26        8.3412    5.4397    1.6917 H         2 RES2    0.0000
     56 C20        8.3092    3.5329    0.8501 C.3       2 RES2    0.0000
     57 C21        8.3948    3.0512   -0.6125 C.3       2 RES2    0.0000
     58 H27        7.6076    3.3634   -1.0878 H         2 RES2    0.0000
     59 H28        9.1701    3.4586   -1.0278 H         2 RES2    0.0000
     60 C22        8.4911    1.5633   -0.7730 C.2       2 RES2    0.0000
     61 C23        7.3174    0.6731   -0.5047 C.3       2 RES2    0.0000
     62 H29        7.6181   -0.0592    0.0551 H         2 RES2    0.0000
     63 H30        7.0304    0.2913   -1.3499 H         2 RES2    0.0000
     64 C24        6.1085    1.3103    0.1605 C.3       2 RES2    0.0000
     65 H31        5.4190    0.6372    0.2634 H         2 RES2    0.0000
     66 H32        5.7595    2.0032   -0.4226 H         2 RES2    0.0000
     67 C25        6.4055    1.9220    1.5227 C.3       2 RES2    0.0000
     68 H33        5.5897    1.9127    2.0494 H         2 RES2    0.0000
     69 H34        7.0525    1.3625    1.9784 H         2 RES2    0.0000
     70 C26        6.9349    3.3390    1.4773 C.3       2 RES2    0.0000
     71 H35        6.9686    3.6791    2.3851 H         2 RES2    0.0000
     72 H36        6.3015    3.8845    0.9873 H         2 RES2    0.0000
     73 N5         9.6431    1.1362   -1.1588 N.2       2 RES2    0.0000
     74 N6         9.7440   -0.2356   -1.3279 N.pl3     2 RES2    0.0000
     75 H37        9.0427   -0.7323   -1.2862 H         2 RES2    0.0000
     76 C27       10.9484   -0.7764   -1.5545 C.ar      2 RES2    0.0000
     77 C28       11.1716   -2.1854   -1.6133 C.ar      2 RES2    0.0000
     78 C29       12.4330   -2.7077   -1.7897 C.ar      2 RES2    0.0000
     79 H38       12.5514   -3.6292   -1.8265 H         2 RES2    0.0000
     80 C30       13.5108   -1.8802   -1.9110 C.ar      2 RES2    0.0000
     81 C31       13.3345   -0.4735   -1.8865 C.ar      2 RES2    0.0000
     82 H39       14.0635    0.0952   -1.9820 H         2 RES2    0.0000
     83 C32       12.0983    0.0290   -1.7223 C.ar      2 RES2    0.0000
     84 H40       11.9945    0.9529   -1.7187 H         2 RES2    0.0000
     85 N7        10.0907   -3.1290   -1.4761 N.pl3     2 RES2    0.0000
     86 O7         8.9612   -2.7251   -1.2201 O.2       2 RES2    0.0000
     87 O8        10.3399   -4.3186   -1.5937 O.2       2 RES2    0.0000
     88 N8        14.8333   -2.4407   -2.0408 N.pl3     2 RES2    0.0000
     89 O9        15.7961   -1.7014   -1.9539 O.2       2 RES2    0.0000
     90 O10       14.9325   -3.6489   -2.2258 O.2       2 RES2    0.0000
@<TRIPOS>BOND
     1    1    2 1
     2    2    3 1
     3    4    2 1
     4    5    2 1
     5    6    5 1
     6    7    5 1
     7    8    5 1
     8    9    8 1
     9   10    8 1
    10   11    1 1
    11   12   11 1
    12   13   12 1
    13   14   12 1
    14   15   12 1
    15   16   15 1
    16   17   16 1
    17   18   16 1
    18   19   16 1
    19   20   19 1
    20   21   19 1
    21   22   19 1
    22   23   22 1
    23   24   22 1
    24   25   11 1
    25   26   25 1
    26   27   25 1
    27   28   15 2
    28   29   28 1
    29   30   29 1
    30   31   29 1
    31   32   31 ar
    32   33   32 ar
    33   34   33 1
    34   35   33 ar
    35   36   35 ar
    36   37   36 1
    37   38   31 ar
    38   39   38 1
    39   40   32 1
    40   41   40 2
    41   42   40 2
    42   43   35 1
    43   44   43 2
    44   45   43 2
    45   46   47 1
    46   47   48 1
    47   49   47 1
    48   50   47 1
    49   51   50 1
    50   52   50 1
    51   53   50 1
    52   54   53 1
    53   55   53 1
    54   56   46 1
    55   57   56 1
    56   58   57 1
    57   59   57 1
    58   60   57 1
    59   61   60 1
    60   62   61 1
    61   63   61 1
    62   64   61 1
    63   65   64 1
    64   66   64 1
    65   67   64 1
    66   68   67 1
    67   69   67 1
    68   70   56 1
    69   71   70 1
    70   72   70 1
    71   73   60 2
    72   74   73 1
    73   75   74 1
    74   76   74 1
    75   77   76 ar
    76   78   77 ar
    77   79   78 1
    78   80   78 ar
    79   81   80 ar
    80   82   81 1
    81   83   76 ar
    82   84   83 1
    83   85   77 1
    84   86   85 2
    85   87   85 2
    86   88   80 1
    87   89   88 2
    88   90   88 2
    89    8   11 1
    90   22   25 1
    91   36   38 ar
    92   53   56 1
    93   67   70 1
    94   81   83 ar
@<TRIPOS>SUBSTRUCTURE
     1 RES1 1
     2 RES2 46

@<TRIPOS>CRYSIN
  23.7640   11.6060   18.1080  90.0000 137.4300  90.0000   5 1

