# MOL2 file generated by ConQuest
# Please check atom types

@<TRIPOS>MOLECULE
SUNMUJ
   116   122     2
SMALL
NO_CHARGES
****
Generated from CSD

@<TRIPOS>ATOM
      1 O1         3.8621    5.5199   11.5912 O.2       1 RES1    0.0000
      2 O2         5.2859    6.0122    9.9713 O.3       1 RES1    0.0000
      3 N1         6.3644    5.3552    9.2202 N.3       1 RES1    0.0000
      4 N2         4.0529    3.7604    8.1065 N.3       1 RES1    0.0000
      5 C1         4.7426    5.1531   10.8778 C.2       1 RES1    0.0000
      6 C2         5.4107    3.8072   10.7648 C.3       1 RES1    0.0000
      7 H1         4.7550    3.0922   10.7436 H         1 RES1    0.0000
      8 H2         6.0210    3.6575   11.5017 H         1 RES1    0.0000
      9 C3         6.1582    3.8990    9.4486 C.3       1 RES1    0.0000
     10 H3         7.0325    3.4703    9.5546 H         1 RES1    0.0000
     11 C4         7.6057    5.8643    9.8230 C.3       1 RES1    0.0000
     12 H4         8.3604    5.4469    9.4015 H         1 RES1    0.0000
     13 H5         7.6119    5.6622   10.7624 H         1 RES1    0.0000
     14 H6         7.6552    6.8152    9.7005 H         1 RES1    0.0000
     15 C5         5.4385    3.2476    8.2949 C.3       1 RES1    0.0000
     16 H7         5.3375    2.3061    8.5445 H         1 RES1    0.0000
     17 C6         6.2747    3.2420    6.9929 C.3       1 RES1    0.0000
     18 H8         5.6829    3.0978    6.2371 H         1 RES1    0.0000
     19 H9         6.6922    4.1105    6.8798 H         1 RES1    0.0000
     20 C7         8.6449    2.4221    7.4332 C.ar      1 RES1    0.0000
     21 C8         9.5883    1.4001    7.4402 C.ar      1 RES1    0.0000
     22 C9         9.2367    0.1273    7.0070 C.ar      1 RES1    0.0000
     23 C10        7.9439   -0.1254    6.5643 C.ar      1 RES1    0.0000
     24 C11        7.0005    0.8966    6.5573 C.ar      1 RES1    0.0000
     25 C12        7.3510    2.1694    6.9905 C.ar      1 RES1    0.0000
     26 H10        8.8883    3.3056    7.7345 H         1 RES1    0.0000
     27 H11       10.4863    1.5742    7.7463 H         1 RES1    0.0000
     28 H12        9.8914   -0.5821    7.0117 H         1 RES1    0.0000
     29 H13        7.6995   -1.0089    6.2630 H         1 RES1    0.0000
     30 H14        6.1025    0.7206    6.2512 H         1 RES1    0.0000
     31 C13        3.9642    4.9359    7.2071 C.3       1 RES1    0.0000
     32 H15        4.1756    4.6664    6.2983 H         1 RES1    0.0000
     33 H16        4.6127    5.6023    7.4826 H         1 RES1    0.0000
     34 C14        2.0733    6.0272    8.4409 C.ar      1 RES1    0.0000
     35 C15        0.7867    6.5513    8.4833 C.ar      1 RES1    0.0000
     36 C16        0.0103    6.5831    7.3319 C.ar      1 RES1    0.0000
     37 C17        0.5207    6.0890    6.1358 C.ar      1 RES1    0.0000
     38 C18        1.8073    5.5649    6.0934 C.ar      1 RES1    0.0000
     39 C19        2.5837    5.5330    7.2448 C.ar      1 RES1    0.0000
     40 H17        2.6126    6.0047    9.2414 H         1 RES1    0.0000
     41 H18        0.4330    6.8938    9.3144 H         1 RES1    0.0000
     42 H19       -0.8825    6.9462    7.3602 H         1 RES1    0.0000
     43 H20       -0.0186    6.1114    5.3353 H         1 RES1    0.0000
     44 H21        2.1610    5.2223    5.2623 H         1 RES1    0.0000
     45 C20        3.1580    2.6767    7.6050 C.3       1 RES1    0.0000
     46 H22        3.6126    2.1863    6.9010 H         1 RES1    0.0000
     47 H23        2.3600    3.0735    7.2213 H         1 RES1    0.0000
     48 C21        2.9909    0.3538    8.5633 C.ar      1 RES1    0.0000
     49 C22        2.5394   -0.5241    9.5428 C.ar      1 RES1    0.0000
     50 C23        1.8548   -0.0393   10.6494 C.ar      1 RES1    0.0000
     51 C24        1.6218    1.3252   10.7813 C.ar      1 RES1    0.0000
     52 C25        2.0723    2.2031    9.8041 C.ar      1 RES1    0.0000
     53 C26        2.7579    1.7183    8.6952 C.ar      1 RES1    0.0000
     54 H24        3.4662    0.0187    7.7957 H         1 RES1    0.0000
     55 H25        2.7023   -1.4712    9.4510 H         1 RES1    0.0000
     56 H26        1.5413   -0.6495   11.3299 H         1 RES1    0.0000
     57 H27        1.1465    1.6622   11.5512 H         1 RES1    0.0000
     58 H28        1.9104    3.1502    9.8936 H         1 RES1    0.0000
     59 O3         2.4311    3.3543   -0.0542 O.2       2 RES2    0.0000
     60 O4         1.8723    4.4549    1.8083 O.3       2 RES2    0.0000
     61 N3         0.6526    5.0127    2.4487 N.3       2 RES2    0.0000
     62 N4         0.1093    1.9766    2.6064 N.3       2 RES2    0.0000
     63 C27        1.6032    3.8559    0.6122 C.2       2 RES2    0.0000
     64 C28        0.1103    3.9401    0.3791 C.3       2 RES2    0.0000
     65 H29       -0.2402    3.0960    0.0542 H         2 RES2    0.0000
     66 H30       -0.1031    4.6364   -0.2613 H         2 RES2    0.0000
     67 C29       -0.4444    4.2714    1.7588 C.3       2 RES2    0.0000
     68 H31       -1.2021    4.8835    1.6458 H         2 RES2    0.0000
     69 C30        0.6784    6.4259    2.0979 C.3       2 RES2    0.0000
     70 H32        1.5104    6.8115    2.3828 H         2 RES2    0.0000
     71 H33       -0.0485    6.8770    2.5334 H         2 RES2    0.0000
     72 H34        0.5897    6.5214    1.1466 H         2 RES2    0.0000
     73 C31       -0.9320    3.0510    2.5193 C.3       2 RES2    0.0000
     74 H35       -1.6558    2.6748    1.9778 H         2 RES2    0.0000
     75 C32       -1.5712    3.4123    3.8732 C.3       2 RES2    0.0000
     76 H36       -1.7042    2.5999    4.3864 H         2 RES2    0.0000
     77 H37       -0.9630    3.9813    4.3676 H         2 RES2    0.0000
     78 C33       -4.0003    3.4273    3.2115 C.ar      2 RES2    0.0000
     79 C34       -5.2282    4.0637    3.0656 C.ar      2 RES2    0.0000
     80 C35       -5.3674    5.3983    3.4234 C.ar      2 RES2    0.0000
     81 C36       -4.2776    6.1002    3.9273 C.ar      2 RES2    0.0000
     82 C37       -3.0497    5.4657    4.0733 C.ar      2 RES2    0.0000
     83 C38       -2.9115    4.1292    3.7154 C.ar      2 RES2    0.0000
     84 H38       -3.9044    2.5007    2.9643 H         2 RES2    0.0000
     85 H39       -5.9839    3.5751    2.7147 H         2 RES2    0.0000
     86 H40       -6.2190    5.8400    3.3198 H         2 RES2    0.0000
     87 H41       -4.3745    7.0267    4.1745 H         2 RES2    0.0000
     88 H42       -2.2940    5.9523    4.4241 H         2 RES2    0.0000
     89 C39        0.9980    2.1114    3.7931 C.3       2 RES2    0.0000
     90 H43        0.4877    1.9336    4.5983 H         2 RES2    0.0000
     91 H44        1.3310    3.0211    3.8449 H         2 RES2    0.0000
     92 C40        2.4156    0.3014    4.7985 C.ar      2 RES2    0.0000
     93 C41        3.5054   -0.5597    4.7796 C.ar      2 RES2    0.0000
     94 C42        4.3591   -0.5784    3.6824 C.ar      2 RES2    0.0000
     95 C43        4.1209    0.2639    2.6041 C.ar      2 RES2    0.0000
     96 C44        3.0311    1.1268    2.6229 C.ar      2 RES2    0.0000
     97 C45        2.1785    1.1455    3.7201 C.ar      2 RES2    0.0000
     98 H45        1.8238    0.3145    5.5613 H         2 RES2    0.0000
     99 H46        3.6704   -1.1455    5.5307 H         2 RES2    0.0000
    100 H47        5.1158   -1.1774    3.6707 H         2 RES2    0.0000
    101 H48        4.7137    0.2508    1.8412 H         2 RES2    0.0000
    102 H49        2.8662    1.7127    1.8742 H         2 RES2    0.0000
    103 C46       -0.5227    0.6420    2.6088 C.3       2 RES2    0.0000
    104 H50       -1.2114    0.6158    3.2892 H         2 RES2    0.0000
    105 H51        0.1443   -0.0262    2.8325 H         2 RES2    0.0000
    106 C47       -0.3743    0.3762    0.1083 C.ar      2 RES2    0.0000
    107 C48       -0.9382    0.0487   -1.1184 C.ar      2 RES2    0.0000
    108 C49       -2.2651   -0.3594   -1.1867 C.ar      2 RES2    0.0000
    109 C50       -3.0291   -0.4361   -0.0283 C.ar      2 RES2    0.0000
    110 C51       -2.4651   -0.1086    1.1984 C.ar      2 RES2    0.0000
    111 C52       -1.1382    0.2976    1.2667 C.ar      2 RES2    0.0000
    112 H52        0.5475    0.6589    0.1554 H         2 RES2    0.0000
    113 H53       -0.4072    0.1011   -1.9236 H         2 RES2    0.0000
    114 H54       -2.6569   -0.5859   -2.0390 H         2 RES2    0.0000
    115 H55       -3.9508   -0.7188   -0.0753 H         2 RES2    0.0000
    116 H56       -2.9951   -0.1610    2.0037 H         2 RES2    0.0000
@<TRIPOS>BOND
     1    1    5 2
     2    2    3 1
     3    3    9 1
     4    4   15 1
     5    5    2 1
     6    6    5 1
     7    7    6 1
     8    8    6 1
     9    9    6 1
    10   10    9 1
    11   11    3 1
    12   12   11 1
    13   13   11 1
    14   14   11 1
    15   15    9 1
    16   16   15 1
    17   17   15 1
    18   18   17 1
    19   19   17 1
    20   20   21 ar
    21   21   22 ar
    22   22   23 ar
    23   23   24 ar
    24   24   25 ar
    25   25   17 1
    26   26   20 1
    27   27   21 1
    28   28   22 1
    29   29   23 1
    30   30   24 1
    31   31    4 1
    32   32   31 1
    33   33   31 1
    34   34   35 ar
    35   35   36 ar
    36   36   37 ar
    37   37   38 ar
    38   38   39 ar
    39   39   31 1
    40   40   34 1
    41   41   35 1
    42   42   36 1
    43   43   37 1
    44   44   38 1
    45   45    4 1
    46   46   45 1
    47   47   45 1
    48   48   49 ar
    49   49   50 ar
    50   50   51 ar
    51   51   52 ar
    52   52   53 ar
    53   53   45 1
    54   54   48 1
    55   55   49 1
    56   56   50 1
    57   57   51 1
    58   58   52 1
    59   59   63 2
    60   60   61 1
    61   61   67 1
    62   62   73 1
    63   63   60 1
    64   64   63 1
    65   65   64 1
    66   66   64 1
    67   67   64 1
    68   68   67 1
    69   69   61 1
    70   70   69 1
    71   71   69 1
    72   72   69 1
    73   73   67 1
    74   74   73 1
    75   75   73 1
    76   76   75 1
    77   77   75 1
    78   78   79 ar
    79   79   80 ar
    80   80   81 ar
    81   81   82 ar
    82   82   83 ar
    83   83   75 1
    84   84   78 1
    85   85   79 1
    86   86   80 1
    87   87   81 1
    88   88   82 1
    89   89   62 1
    90   90   89 1
    91   91   89 1
    92   92   93 ar
    93   93   94 ar
    94   94   95 ar
    95   95   96 ar
    96   96   97 ar
    97   97   89 1
    98   98   92 1
    99   99   93 1
   100  100   94 1
   101  101   95 1
   102  102   96 1
   103  103   62 1
   104  104  103 1
   105  105  103 1
   106  106  107 ar
   107  107  108 ar
   108  108  109 ar
   109  109  110 ar
   110  110  111 ar
   111  111  103 1
   112  112  106 1
   113  113  107 1
   114  114  108 1
   115  115  109 1
   116  116  110 1
   117   20   25 ar
   118   34   39 ar
   119   48   53 ar
   120   78   83 ar
   121   92   97 ar
   122  106  111 ar
@<TRIPOS>SUBSTRUCTURE
     1 RES1 1
     2 RES2 59

@<TRIPOS>CRYSIN
  10.3100   18.7180   23.5450  90.0000  90.0000  90.0000  19 1

