# MOL2 file generated by ConQuest
# Please check atom types

@<TRIPOS>MOLECULE
SUNROJ
    82    84     2
SMALL
NO_CHARGES
****
Generated from CSD

@<TRIPOS>ATOM
      1 N1         6.6764    4.3803    2.6252 N.2       1 RES1    0.0000
      2 O1         7.4430    3.4264    1.8848 O.3       1 RES1    0.0000
      3 O2         6.9747    7.3705    4.0765 O.3       1 RES1    0.0000
      4 H1         6.9329    7.6434    3.2106 H         1 RES1    0.0000
      5 O3         9.2386    4.7850    1.2386 O.3       1 RES1    0.0000
      6 O4         8.9995    4.9844    9.6564 O.3       1 RES1    0.0000
      7 C1         7.2588    5.0433    3.5448 C.2       1 RES1    0.0000
      8 C2         8.7230    4.9541    3.9712 C.3       1 RES1    0.0000
      9 H2         9.1817    5.7506    3.6300 H         1 RES1    0.0000
     10 C3         9.3693    3.7290    3.3180 C.3       1 RES1    0.0000
     11 H3        10.3347    3.8240    3.3280 H         1 RES1    0.0000
     12 H4         9.1374    2.9319    3.8212 H         1 RES1    0.0000
     13 C4         8.8892    3.5896    1.8938 C.3       1 RES1    0.0000
     14 C5         6.4008    6.0649    4.2657 C.3       1 RES1    0.0000
     15 H5         6.4581    5.8632    5.2235 H         1 RES1    0.0000
     16 C6         4.9302    6.0492    3.8957 C.3       1 RES1    0.0000
     17 H6         4.4546    6.6714    4.4486 H         1 RES1    0.0000
     18 H7         4.5766    5.1664    4.0292 H         1 RES1    0.0000
     19 H8         4.8301    6.2993    2.9758 H         1 RES1    0.0000
     20 C7         9.3944    2.3453    1.1984 C.3       1 RES1    0.0000
     21 H9         8.9912    2.2782    0.3288 H         1 RES1    0.0000
     22 H10        9.1636    1.5721    1.7177 H         1 RES1    0.0000
     23 H11       10.3482    2.3954    1.1071 H         1 RES1    0.0000
     24 C8         8.9364    4.8550   -0.1617 C.3       1 RES1    0.0000
     25 H12        9.0128    5.7640   -0.4596 H         1 RES1    0.0000
     26 H13        8.0404    4.5424   -0.3120 H         1 RES1    0.0000
     27 H14        9.5539    4.3045   -0.6508 H         1 RES1    0.0000
     28 C9         8.8619    4.9541    5.4822 C.ar      1 RES1    0.0000
     29 C10        9.4466    6.0259    6.1408 C.ar      1 RES1    0.0000
     30 H15        9.7863    6.7332    5.6429 H         1 RES1    0.0000
     31 C11        9.5383    6.0713    7.5327 C.ar      1 RES1    0.0000
     32 H16        9.9409    6.7967    7.9511 H         1 RES1    0.0000
     33 C12        9.0241    5.0276    8.2839 C.ar      1 RES1    0.0000
     34 C13        8.4344    3.9313    7.6417 C.ar      1 RES1    0.0000
     35 H17        8.0939    3.2263    8.1456 H         1 RES1    0.0000
     36 C14        8.3581    3.8958    6.2595 C.ar      1 RES1    0.0000
     37 H18        7.9682    3.1628    5.8408 H         1 RES1    0.0000
     38 C15        9.5411    6.1110   10.3431 C.3       1 RES1    0.0000
     39 H19        9.3730    6.0229   11.2825 H         1 RES1    0.0000
     40 H20        9.1275    6.9134   10.0177 H         1 RES1    0.0000
     41 H21       10.4881    6.1536   10.1888 H         1 RES1    0.0000
     42 O5        13.9864    6.2142   14.7987 O.3       2 RES2    0.0000
     43 N2        14.8268    5.2468   14.1539 N.2       2 RES2    0.0000
     44 C16       14.3377    4.5640   13.2038 C.2       2 RES2    0.0000
     45 O6        14.6484    2.2397   12.6751 O.3       2 RES2    0.0000
     46 H22       14.7084    1.9126   13.4933 H         2 RES2    0.0000
     47 C17       12.9140    4.6264   12.6546 C.3       2 RES2    0.0000
     48 H23       12.4469    3.8240   12.9666 H         2 RES2    0.0000
     49 O7        12.1920    4.8101   15.3385 O.3       2 RES2    0.0000
     50 C18       12.1855    5.8334   13.2410 C.3       2 RES2    0.0000
     51 H24       12.4230    6.6317   12.7452 H         2 RES2    0.0000
     52 H25       11.2274    5.7046   13.1679 H         2 RES2    0.0000
     53 O8        12.7491    4.6206    6.9647 O.3       2 RES2    0.0000
     54 C19       12.5634    6.0078   14.6934 C.3       2 RES2    0.0000
     55 C20       15.2703    3.5255   12.5892 C.3       2 RES2    0.0000
     56 H26       15.3613    3.7418   11.6381 H         2 RES2    0.0000
     57 C21       16.6660    3.5092   13.1843 C.3       2 RES2    0.0000
     58 H27       17.2142    2.8899   12.6982 H         2 RES2    0.0000
     59 H28       16.6181    3.2392   14.1039 H         2 RES2    0.0000
     60 H29       17.0486    4.3879   13.1276 H         2 RES2    0.0000
     61 C22       11.9577    7.2393   15.3331 C.3       2 RES2    0.0000
     62 H30       12.2612    7.3099   16.2410 H         2 RES2    0.0000
     63 H31       11.0005    7.1688   15.3217 H         2 RES2    0.0000
     64 H32       12.2283    8.0201   14.8453 H         2 RES2    0.0000
     65 C23       12.7170    4.6246   16.6647 C.3       2 RES2    0.0000
     66 H33       12.2029    3.9552   17.1233 H         2 RES2    0.0000
     67 H34       12.6663    5.4527   17.1468 H         2 RES2    0.0000
     68 H35       13.6327    4.3418   16.6100 H         2 RES2    0.0000
     69 C24       12.8754    4.6054   11.1352 C.ar      2 RES2    0.0000
     70 C25       12.3215    3.5301   10.4619 C.ar      2 RES2    0.0000
     71 H36       11.9948    2.8100   10.9537 H         2 RES2    0.0000
     72 C26       12.2376    3.4928    9.0709 C.ar      2 RES2    0.0000
     73 H37       11.8547    2.7622    8.6422 H         2 RES2    0.0000
     74 C27       12.7313    4.5564    8.3345 C.ar      2 RES2    0.0000
     75 C28       13.2988    5.6509    8.9934 C.ar      2 RES2    0.0000
     76 H38       13.6304    6.3670    8.5013 H         2 RES2    0.0000
     77 C29       13.3686    5.6737   10.3766 C.ar      2 RES2    0.0000
     78 H39       13.7473    6.4060   10.8061 H         2 RES2    0.0000
     79 C30       12.2017    3.5027    6.2662 C.3       2 RES2    0.0000
     80 H40       12.3601    3.6042    5.3242 H         2 RES2    0.0000
     81 H41       11.2566    3.4561    6.4279 H         2 RES2    0.0000
     82 H42       12.6202    2.6963    6.5756 H         2 RES2    0.0000
@<TRIPOS>BOND
     1    1    2 1
     2    2   13 1
     3    3    4 1
     4    5   13 1
     5    6   33 1
     6    7    1 2
     7    8    7 1
     8    9    8 1
     9   10    8 1
    10   11   10 1
    11   12   10 1
    12   13   10 1
    13   14    3 1
    14   15   14 1
    15   16   14 1
    16   17   16 1
    17   18   16 1
    18   19   16 1
    19   20   13 1
    20   21   20 1
    21   22   20 1
    22   23   20 1
    23   24    5 1
    24   25   24 1
    25   26   24 1
    26   27   24 1
    27   28    8 1
    28   29   28 ar
    29   30   29 1
    30   31   29 ar
    31   32   31 1
    32   33   31 ar
    33   34   33 ar
    34   35   34 1
    35   36   28 ar
    36   37   36 1
    37   38    6 1
    38   39   38 1
    39   40   38 1
    40   41   38 1
    41   42   43 1
    42   43   44 2
    43   44   47 1
    44   45   46 1
    45   47   48 1
    46   49   54 1
    47   50   47 1
    48   51   50 1
    49   52   50 1
    50   53   74 1
    51   54   42 1
    52   55   44 1
    53   56   55 1
    54   57   55 1
    55   58   57 1
    56   59   57 1
    57   60   57 1
    58   61   54 1
    59   62   61 1
    60   63   61 1
    61   64   61 1
    62   65   49 1
    63   66   65 1
    64   67   65 1
    65   68   65 1
    66   69   47 1
    67   70   69 ar
    68   71   70 1
    69   72   70 ar
    70   73   72 1
    71   74   72 ar
    72   75   74 ar
    73   76   75 1
    74   77   69 ar
    75   78   77 1
    76   79   53 1
    77   80   79 1
    78   81   79 1
    79   82   79 1
    80    7   14 1
    81   34   36 ar
    82   45   55 1
    83   50   54 1
    84   75   77 ar
@<TRIPOS>SUBSTRUCTURE
     1 RES1 1
     2 RES2 42

@<TRIPOS>CRYSIN
  14.5272    5.8311   33.5490  90.0000  90.1990  90.0000  14 1

