# MOL2 file generated by ConQuest
# Please check atom types

@<TRIPOS>MOLECULE
SUPRIF
   146   152     2
SMALL
NO_CHARGES
****
Generated from CSD

@<TRIPOS>ATOM
      1 O1         4.1209   17.6489    2.0744 O.3       1 RES1    0.0000
      2 O2         2.9756   10.5075    1.8746 O.3       2 RES2    0.0000
      3 O3         2.1443   17.4385    0.9798 O.2       1 RES1    0.0000
      4 O4         5.7331   10.5441    4.5150 O.3       2 RES2    0.0000
      5 O5         1.2570   17.8292    4.5693 O.3       1 RES1    0.0000
      6 O6        -5.1505   16.3584    1.8395 O.2       1 RES1    0.0000
      7 O7         4.9656   10.1161    0.8619 O.2       2 RES2    0.0000
      8 O8         1.2371    7.2147   -4.2399 O.2       2 RES2    0.0000
      9 O9        -3.6700   15.7695    0.3601 O.2       1 RES1    0.0000
     10 O10        7.5913   15.0111   -3.1434 O.2       1 RES1    0.0000
     11 O11       10.9514    8.6424    0.5388 O.2       2 RES2    0.0000
     12 O12       -0.5667    7.7088   -3.1742 O.2       2 RES2    0.0000
     13 O13       12.3414    9.1063    2.1368 O.2       2 RES2    0.0000
     14 O14       -0.1689   18.3419    6.1788 O.2       1 RES1    0.0000
     15 O15        5.7756   14.7669   -4.2734 O.2       1 RES1    0.0000
     16 O16        7.1457   11.5668    5.9287 O.2       2 RES2    0.0000
     17 N1         0.6531    7.6930   -3.2800 N.pl3     2 RES2    0.0000
     18 N2        11.1961    9.0130    1.6849 N.pl3     2 RES2    0.0000
     19 N3        -3.9812   16.2032    1.4711 N.pl3     1 RES1    0.0000
     20 N4         6.3702   15.0800   -3.2495 N.pl3     1 RES1    0.0000
     21 C1         4.1409   16.5954   -0.0170 C.ar      1 RES1    0.0000
     22 C2         1.4499    8.2646   -2.1791 C.ar      2 RES2    0.0000
     23 C3         4.8658   18.3592    5.3178 C.3       1 RES1    0.0000
     24 C4        -2.9158   16.5436    2.4190 C.ar      1 RES1    0.0000
     25 C5         3.3441   10.8012    4.3095 C.3       2 RES2    0.0000
     26 C6         4.5838   11.1804    5.1303 C.3       2 RES2    0.0000
     27 C7         4.2153   15.7235   -2.2764 C.ar      1 RES1    0.0000
     28 C8         2.1482   11.4073    5.0579 C.3       2 RES2    0.0000
     29 C9         3.3427   17.2475    1.0546 C.2       1 RES1    0.0000
     30 C10        3.4984   16.2463   -1.2118 C.ar      1 RES1    0.0000
     31 C11        3.1765    8.4945    5.5313 C.ar      2 RES2    0.0000
     32 C12        5.4950   16.3900    0.1120 C.ar      1 RES1    0.0000
     33 C13        3.2111    9.2428    4.2197 C.3       2 RES2    0.0000
     34 C14        5.5868   15.5799   -2.1096 C.ar      1 RES1    0.0000
     35 C15        2.4143   18.3506    5.2720 C.3       1 RES1    0.0000
     36 C16        3.6474   16.3282    4.3722 C.3       1 RES1    0.0000
     37 C17        2.7987    8.4298   -2.3650 C.ar      2 RES2    0.0000
     38 C18       -0.6491   17.0665    2.8319 C.ar      1 RES1    0.0000
     39 C19        6.2558   15.8829   -0.9306 C.ar      1 RES1    0.0000
     40 C20        8.8138    9.4812    1.9908 C.ar      2 RES2    0.0000
     41 C21       -0.9710   17.3767    4.1584 C.ar      1 RES1    0.0000
     42 C22        3.5356   18.5272    3.0982 C.3       1 RES1    0.0000
     43 C23        6.9409   10.8500    4.9825 C.2       2 RES2    0.0000
     44 C24        3.5981   15.5440    5.6726 C.ar      1 RES1    0.0000
     45 C25        7.7696    9.9265    2.7999 C.ar      2 RES2    0.0000
     46 C26        2.3970   15.2510    6.3014 C.ar      1 RES1    0.0000
     47 C27       10.0655    9.3721    2.5586 C.ar      2 RES2    0.0000
     48 C28        1.9727    8.1540    6.1140 C.ar      2 RES2    0.0000
     49 C29        3.5742   11.3829    2.8935 C.3       2 RES2    0.0000
     50 C30        3.5503    8.9771   -1.3338 C.ar      2 RES2    0.0000
     51 C31        0.8141    8.5921   -1.0054 C.ar      2 RES2    0.0000
     52 C32        3.0461   12.7862    2.6166 C.3       2 RES2    0.0000
     53 C33       -3.2722   16.7979    3.7431 C.ar      1 RES1    0.0000
     54 C34       10.3302    9.6320    3.8798 C.ar      2 RES2    0.0000
     55 C35        4.3484    8.0765    6.1665 C.ar      2 RES2    0.0000
     56 C36        4.7767   15.0829    6.2586 C.ar      1 RES1    0.0000
     57 C37        6.2505   18.3261    4.6576 C.3       1 RES1    0.0000
     58 C38       -1.6375   16.6471    1.9612 C.ar      1 RES1    0.0000
     59 C39        5.6918   19.9133    2.6580 C.3       1 RES1    0.0000
     60 C40       -2.2759   17.2115    4.6019 C.ar      1 RES1    0.0000
     61 C41        0.0505   17.8981    5.0981 C.2       1 RES1    0.0000
     62 C42        4.3058    7.3497    7.3487 C.ar      2 RES2    0.0000
     63 C43        0.7848   11.5064    4.3549 C.3       2 RES2    0.0000
     64 C44        3.0940    7.0265    7.9077 C.ar      2 RES2    0.0000
     65 C45        9.2847   10.0888    4.6816 C.ar      2 RES2    0.0000
     66 C46        8.0210   10.2482    4.1402 C.ar      2 RES2    0.0000
     67 C47        1.9301    7.4215    7.3012 C.ar      2 RES2    0.0000
     68 C48        4.7527   14.3690    7.4478 C.ar      1 RES1    0.0000
     69 C49        0.6584   12.7632    3.4862 C.3       2 RES2    0.0000
     70 C50       -0.3286   11.4806    5.3881 C.3       2 RES2    0.0000
     71 C51        4.1821   19.8960    2.9161 C.3       1 RES1    0.0000
     72 C52        3.5489   14.0947    8.0587 C.ar      1 RES1    0.0000
     73 C53        2.3664   14.5199    7.4971 C.ar      1 RES1    0.0000
     74 C54        1.5550   12.8939    2.2782 C.3       2 RES2    0.0000
     75 C55        1.2810   14.2024    1.5403 C.3       2 RES2    0.0000
     76 C56        7.3107   18.1308    5.7377 C.3       1 RES1    0.0000
     77 C57        6.5338   19.6246    3.8807 C.3       1 RES1    0.0000
     78 C58        6.0909   21.2778    2.0741 C.3       1 RES1    0.0000
     79 C59        3.6434   17.8751    4.5071 C.3       1 RES1    0.0000
     80 C60        1.5670    9.1379    0.0229 C.ar      2 RES2    0.0000
     81 C61        2.9370    9.3347   -0.1437 C.ar      2 RES2    0.0000
     82 C62        3.7524   10.0026    0.9098 C.2       2 RES2    0.0000
     83 H1         3.7870   15.4750   -3.0882 H         1 RES1    0.0000
     84 H2         2.5606   16.3699   -1.2934 H         1 RES1    0.0000
     85 H3         5.9193   16.5997    0.9356 H         1 RES1    0.0000
     86 H4         3.2111    8.1742   -3.1821 H         2 RES2    0.0000
     87 H5         0.2487   17.1455    2.5310 H         1 RES1    0.0000
     88 H6         7.1923   15.7494   -0.8417 H         1 RES1    0.0000
     89 H7         8.6688    9.2600    1.0793 H         2 RES2    0.0000
     90 H8         6.8930   10.0098    2.4460 H         2 RES2    0.0000
     91 H9         1.5816   15.5497    5.9155 H         1 RES1    0.0000
     92 H10        1.1599    8.4226    5.7014 H         2 RES2    0.0000
     93 H11        4.4854    9.1063   -1.4429 H         2 RES2    0.0000
     94 H12       -0.1197    8.4471   -0.9004 H         2 RES2    0.0000
     95 H13       -4.1675   16.6916    4.0414 H         1 RES1    0.0000
     96 H14       11.2001    9.5056    4.2379 H         2 RES2    0.0000
     97 H15        5.1904    8.2934    5.7835 H         2 RES2    0.0000
     98 H16        5.6094   15.2624    5.8363 H         1 RES1    0.0000
     99 H17       -1.4286   16.4345    1.0587 H         1 RES1    0.0000
    100 H18       -2.4848   17.3868    5.5107 H         1 RES1    0.0000
    101 H19        5.1132    7.0754    7.7690 H         2 RES2    0.0000
    102 H20        3.0621    6.5296    8.7163 H         2 RES2    0.0000
    103 H21        9.4390   10.2899    5.5958 H         2 RES2    0.0000
    104 H22        1.0934    7.1960    7.6898 H         2 RES2    0.0000
    105 H23        5.5655   14.0703    7.8394 H         1 RES1    0.0000
    106 H24        3.5356   13.6064    8.8747 H         1 RES1    0.0000
    107 H25        1.5364   14.3216    7.9156 H         1 RES1    0.0000
    108 H26        1.1493    9.3792    0.8417 H         2 RES2    0.0000
    109 H27        2.5633   18.6249    2.8888 H         1 RES1    0.0000
    110 H28        4.5612   11.3973    2.7334 H         2 RES2    0.0000
    111 H29        6.2878   17.5534    4.0238 H         1 RES1    0.0000
    112 H30        5.8954   19.2138    1.9738 H         1 RES1    0.0000
    113 H31        0.6811   10.7064    3.7628 H         2 RES2    0.0000
    114 H32        1.3328   12.1442    1.6541 H         2 RES2    0.0000
    115 H33        4.6902   19.2913    5.5987 H         1 RES1    0.0000
    116 H34        4.9137   17.8119    6.1413 H         1 RES1    0.0000
    117 H35        2.4063   12.3223    5.3377 H         2 RES2    0.0000
    118 H36        2.0179   10.8788    5.8861 H         2 RES2    0.0000
    119 H37        2.3824    9.0316    3.7217 H         2 RES2    0.0000
    120 H38        3.9706    8.8981    3.6865 H         2 RES2    0.0000
    121 H39        2.8679   16.0639    3.8214 H         1 RES1    0.0000
    122 H40        4.4628   16.0610    3.8801 H         1 RES1    0.0000
    123 H41        3.5636   13.1697    1.8653 H         2 RES2    0.0000
    124 H42        3.2244   13.3478    3.4138 H         2 RES2    0.0000
    125 H43       -0.2793   12.8207    3.1733 H         2 RES2    0.0000
    126 H44        0.8181   13.5489    4.0678 H         2 RES2    0.0000
    127 H45       -1.1958   11.5438    4.9359 H         2 RES2    0.0000
    128 H46       -0.2235   12.2375    6.0005 H         2 RES2    0.0000
    129 H47       -0.2847   10.6418    5.8949 H         2 RES2    0.0000
    130 H48        4.0012   20.4318    3.7276 H         1 RES1    0.0000
    131 H49        3.7351   20.3485    2.1585 H         1 RES1    0.0000
    132 H50        1.8716   14.2699    0.7625 H         2 RES2    0.0000
    133 H51        1.4459   14.9579    2.1409 H         2 RES2    0.0000
    134 H52        0.3472   14.2211    1.2435 H         2 RES2    0.0000
    135 H53        8.1992   18.1107    5.3230 H         1 RES1    0.0000
    136 H54        7.1497   17.2834    6.2029 H         1 RES1    0.0000
    137 H55        7.2641   18.8705    6.3788 H         1 RES1    0.0000
    138 H56        6.4288   20.3830    4.5077 H         1 RES1    0.0000
    139 H57        7.4836   19.6088    3.5985 H         1 RES1    0.0000
    140 H58        5.5442   21.4660    1.2816 H         1 RES1    0.0000
    141 H59        7.0380   21.2606    1.8213 H         1 RES1    0.0000
    142 H60        5.9446   21.9758    2.7451 H         1 RES1    0.0000
    143 H61        4.7009   12.1628    5.1383 H         2 RES2    0.0000
    144 H62        4.4814   10.8701    6.0650 H         2 RES2    0.0000
    145 H63        2.4342   18.0101    6.2029 H         1 RES1    0.0000
    146 H64        2.3850   19.3402    5.2966 H         1 RES1    0.0000
@<TRIPOS>BOND
     1    1   29 1
     2    2   49 1
     3    3   29 2
     4    4   26 1
     5    5   35 1
     6    6   19 2
     7    7   82 2
     8    8   17 2
     9    9   19 2
    10   10   20 2
    11   11   18 2
    12   12   17 2
    13   13   18 2
    14   14   61 2
    15   15   20 2
    16   16   43 2
    17   17   22 1
    18   18   47 1
    19   19   24 1
    20   20   34 1
    21   21   29 1
    22   22   37 ar
    23   23   57 1
    24   24   53 ar
    25   25   26 1
    26   26  143 1
    27   27   30 ar
    28   28   25 1
    29   30   21 ar
    30   31   33 1
    31   32   21 ar
    32   33   25 1
    33   34   27 ar
    34   35   79 1
    35   36   44 1
    36   37   50 ar
    37   38   41 ar
    38   39   32 ar
    39   40   45 ar
    40   41   60 ar
    41   42    1 1
    42   43    4 1
    43   44   46 ar
    44   45   66 ar
    45   46   73 ar
    46   47   40 ar
    47   48   31 ar
    48   49   25 1
    49   50   81 ar
    50   51   22 ar
    51   52   49 1
    52   53   60 ar
    53   54   47 ar
    54   55   31 ar
    55   56   44 ar
    56   57   76 1
    57   58   24 ar
    58   59   71 1
    59   60  100 1
    60   61    5 1
    61   62   55 ar
    62   63   28 1
    63   64   62 ar
    64   65   54 ar
    65   66   43 1
    66   67   48 ar
    67   68   56 ar
    68   69   63 1
    69   70   63 1
    70   71   42 1
    71   72   68 ar
    72   73   72 ar
    73   74   52 1
    74   75   74 1
    75   76  135 1
    76   77   57 1
    77   78   59 1
    78   79   23 1
    79   80   51 ar
    80   81   80 ar
    81   82    2 1
    82   83   27 1
    83   84   30 1
    84   85   32 1
    85   86   37 1
    86   87   38 1
    87   88   39 1
    88   89   40 1
    89   90   45 1
    90   91   46 1
    91   92   48 1
    92   93   50 1
    93   94   51 1
    94   95   53 1
    95   96   54 1
    96   97   55 1
    97   98   56 1
    98   99   58 1
    99  101   62 1
   100  102   64 1
   101  103   65 1
   102  104   67 1
   103  105   68 1
   104  106   72 1
   105  107   73 1
   106  108   80 1
   107  109   42 1
   108  110   49 1
   109  111   57 1
   110  112   59 1
   111  113   63 1
   112  114   74 1
   113  115   23 1
   114  116   23 1
   115  117   28 1
   116  118   28 1
   117  119   33 1
   118  120   33 1
   119  121   36 1
   120  122   36 1
   121  123   52 1
   122  124   52 1
   123  125   69 1
   124  126   69 1
   125  127   70 1
   126  128   70 1
   127  129   70 1
   128  130   71 1
   129  131   71 1
   130  132   75 1
   131  133   75 1
   132  134   75 1
   133  136   76 1
   134  137   76 1
   135  138   77 1
   136  139   77 1
   137  140   78 1
   138  141   78 1
   139  142   78 1
   140  144   26 1
   141  145   35 1
   142  146   35 1
   143   34   39 ar
   144   36   79 1
   145   38   58 ar
   146   41   61 1
   147   42   79 1
   148   59   77 1
   149   64   67 ar
   150   65   66 ar
   151   69   74 1
   152   81   82 1
@<TRIPOS>SUBSTRUCTURE
     1 RES1 1
     2 RES2 2

@<TRIPOS>CRYSIN
  13.3018   14.3633   29.3280  90.0000  90.0000  90.0000  19 1

