# MOL2 file generated by ConQuest
# Please check atom types

@<TRIPOS>MOLECULE
SUQDEO
    46    48     1
SMALL
NO_CHARGES
****
Generated from CSD

@<TRIPOS>ATOM
      1 C1         4.4235    4.9970    4.8584 C.ar      1 RES1    0.0000
      2 H1         4.6133    4.8152    5.7713 H         1 RES1    0.0000
      3 C2         5.3091    5.7402    4.0978 C.ar      1 RES1    0.0000
      4 H2         6.1248    6.0577    4.4677 H         1 RES1    0.0000
      5 C3         4.9694    6.0089    2.7730 C.ar      1 RES1    0.0000
      6 N1         5.8920    6.8328    1.9792 N.pl3     1 RES1    0.0000
      7 O1         6.9649    7.1480    2.4688 O.2       1 RES1    0.0000
      8 O2         5.5367    7.1746    0.8607 O.2       1 RES1    0.0000
      9 C4         3.7956    5.5749    2.1788 C.ar      1 RES1    0.0000
     10 H3         3.5915    5.7904    1.2763 H         1 RES1    0.0000
     11 C5         2.9257    4.8124    2.9518 C.ar      1 RES1    0.0000
     12 H4         2.1122    4.4925    2.5790 H         1 RES1    0.0000
     13 C6         3.2505    4.5181    4.2754 C.ar      1 RES1    0.0000
     14 N2         2.2927    3.7075    4.9738 N.2       1 RES1    0.0000
     15 N3         2.7562    3.1395    5.9874 N.2       1 RES1    0.0000
     16 C7         1.7250    2.3108    6.6474 C.3       1 RES1    0.0000
     17 C8         0.7646    3.2625    7.3784 C.3       1 RES1    0.0000
     18 H5         1.2645    3.7885    8.0371 H         1 RES1    0.0000
     19 H6         0.0719    2.7411    7.8339 H         1 RES1    0.0000
     20 H7         0.3458    3.8663    6.7297 H         1 RES1    0.0000
     21 C9         2.4205    1.4229    7.6822 C.2       1 RES1    0.0000
     22 N4         3.4170    1.6517    8.4311 N.2       1 RES1    0.0000
     23 H8         3.7245    2.4606    8.2487 H         1 RES1    0.0000
     24 N5         1.7002    0.2207    7.7258 N.am      1 RES1    0.0000
     25 C10        1.9459   -0.8435    8.6566 C.ar      1 RES1    0.0000
     26 C11        0.9253   -1.2474    9.5079 C.ar      1 RES1    0.0000
     27 H9         0.0962   -0.7833    9.5194 H         1 RES1    0.0000
     28 C12        1.1327   -2.3429   10.3452 C.ar      1 RES1    0.0000
     29 H10        0.4403   -2.6309   10.9284 H         1 RES1    0.0000
     30 C13        2.3447   -3.0130   10.3308 C.ar      1 RES1    0.0000
     31 H11        2.4781   -3.7683   10.8917 H         1 RES1    0.0000
     32 C14        3.3657   -2.5778    9.4927 C.ar      1 RES1    0.0000
     33 H12        4.2028   -3.0267    9.4997 H         1 RES1    0.0000
     34 C15        3.1754   -1.4911    8.6435 C.ar      1 RES1    0.0000
     35 H13        3.8712   -1.1988    8.0672 H         1 RES1    0.0000
     36 C16        0.7857    0.1089    6.6893 C.2       1 RES1    0.0000
     37 O3         0.0066   -0.8076    6.5514 O.2       1 RES1    0.0000
     38 C17        1.0098    1.2780    5.7274 C.3       1 RES1    0.0000
     39 C18        1.9762    0.7260    4.6583 C.3       1 RES1    0.0000
     40 H14        1.5964   -0.0858    4.2626 H         1 RES1    0.0000
     41 H15        2.8377    0.5150    5.0753 H         1 RES1    0.0000
     42 H16        2.1079    1.3994    3.9588 H         1 RES1    0.0000
     43 C19       -0.2977    1.7260    5.0828 C.3       1 RES1    0.0000
     44 H17       -0.6761    0.9867    4.5636 H         1 RES1    0.0000
     45 H18       -0.1255    2.4875    4.4902 H         1 RES1    0.0000
     46 H19       -0.9314    1.9930    5.7807 H         1 RES1    0.0000
@<TRIPOS>BOND
     1    1    2 1
     2    3    1 ar
     3    4    3 1
     4    5    3 ar
     5    6    5 1
     6    7    6 2
     7    8    6 2
     8    9    5 ar
     9   10    9 1
    10   11    9 ar
    11   12   11 1
    12   13    1 ar
    13   14   13 1
    14   15   14 2
    15   16   15 1
    16   17   16 1
    17   18   17 1
    18   19   17 1
    19   20   17 1
    20   21   16 1
    21   22   21 2
    22   23   22 1
    23   24   21 1
    24   25   24 1
    25   26   25 ar
    26   27   26 1
    27   28   26 ar
    28   29   28 1
    29   30   28 ar
    30   31   30 1
    31   32   30 ar
    32   33   32 1
    33   34   25 ar
    34   35   34 1
    35   36   24 1
    36   37   36 2
    37   38   16 1
    38   39   38 1
    39   40   39 1
    40   41   39 1
    41   42   39 1
    42   43   38 1
    43   44   43 1
    44   45   43 1
    45   46   43 1
    46   11   13 ar
    47   32   34 ar
    48   36   38 1
@<TRIPOS>SUBSTRUCTURE
     1 RES1 1

@<TRIPOS>CRYSIN
   6.1179    7.7340    9.9532  72.8680  79.4750  81.8280   1 1

