# MOL2 file generated by ConQuest
# Please check atom types

@<TRIPOS>MOLECULE
SUQDOY
    41    41     1
SMALL
NO_CHARGES
****
Generated from CSD

@<TRIPOS>ATOM
      1 C1         5.2590    3.8194    9.9157 C.ar      1 RES1    0.0000
      2 H1         4.4397    3.9787    9.5055 H         1 RES1    0.0000
      3 C2         5.3468    3.8650   11.3018 C.ar      1 RES1    0.0000
      4 H2         4.5891    4.1094   11.8182 H         1 RES1    0.0000
      5 C3         6.5656    3.6230   11.9136 C.ar      1 RES1    0.0000
      6 N1         6.6364    3.5870   13.3687 N.pl3     1 RES1    0.0000
      7 O1         7.7435    3.5501   13.9035 O.2       1 RES1    0.0000
      8 O2         5.5737    3.5772   13.9997 O.2       1 RES1    0.0000
      9 C4         7.7208    3.3844   11.1759 C.ar      1 RES1    0.0000
     10 H3         8.5005    3.2665   11.6299 H         1 RES1    0.0000
     11 C5         7.6376    3.3328    9.7921 C.ar      1 RES1    0.0000
     12 H4         8.4140    3.1100    9.3258 H         1 RES1    0.0000
     13 C6         6.3999    3.5213    9.1546 C.ar      1 RES1    0.0000
     14 N2         6.3450    3.3588    7.7904 N.3       1 RES1    0.0000
     15 H5         7.0640    3.2748    7.3135 H         1 RES1    0.0000
     16 N3         5.2078    3.6741    7.0677 N.am      1 RES1    0.0000
     17 C7         4.2674    2.7182    6.8245 C.2       1 RES1    0.0000
     18 O3         3.3221    2.9771    6.0840 O.2       1 RES1    0.0000
     19 C8         4.3937    1.3988    7.5414 C.3       1 RES1    0.0000
     20 H6         5.2614    1.1300    7.5695 H         1 RES1    0.0000
     21 H7         4.0448    1.5420    8.4434 H         1 RES1    0.0000
     22 H8         3.8527    0.7534    7.0402 H         1 RES1    0.0000
     23 C9         5.0932    5.0053    6.4130 C.3       1 RES1    0.0000
     24 C10        5.4682    4.9039    4.9352 C.3       1 RES1    0.0000
     25 H9         6.3820    4.5826    4.8900 H         1 RES1    0.0000
     26 H10        4.9093    4.3260    4.4814 H         1 RES1    0.0000
     27 H11        5.4322    5.8162    4.5294 H         1 RES1    0.0000
     28 C11        6.0087    6.0074    7.1202 C.3       1 RES1    0.0000
     29 H12        5.8228    6.0658    8.0360 H         1 RES1    0.0000
     30 H13        5.7737    6.8744    6.7522 H         1 RES1    0.0000
     31 H14        6.9370    5.7679    7.0058 H         1 RES1    0.0000
     32 C12        3.6560    5.5245    6.5917 C.2       1 RES1    0.0000
     33 O4         3.0409    6.1223    5.7455 O.2       1 RES1    0.0000
     34 O5         3.2606    5.3435    7.8571 O.3       1 RES1    0.0000
     35 C13        1.9287    5.7978    8.2222 C.3       1 RES1    0.0000
     36 H15        1.7076    6.5754    7.7012 H         1 RES1    0.0000
     37 H16        1.9488    5.9775    9.2065 H         1 RES1    0.0000
     38 C14        0.9211    4.7181    7.9788 C.3       1 RES1    0.0000
     39 H17        0.9605    4.4496    7.0525 H         1 RES1    0.0000
     40 H18        0.0000    5.0146    8.1910 H         1 RES1    0.0000
     41 H19        1.0352    3.9198    8.4680 H         1 RES1    0.0000
@<TRIPOS>BOND
     1    1    2 1
     2    3    1 ar
     3    4    3 1
     4    5    3 ar
     5    6    5 1
     6    7    6 2
     7    8    6 2
     8    9    5 ar
     9   10    9 1
    10   11    9 ar
    11   12   11 1
    12   13    1 ar
    13   14   13 1
    14   15   14 1
    15   16   14 1
    16   17   16 1
    17   18   17 2
    18   19   17 1
    19   20   19 1
    20   21   19 1
    21   22   19 1
    22   23   16 1
    23   24   23 1
    24   25   24 1
    25   26   24 1
    26   27   24 1
    27   28   23 1
    28   29   28 1
    29   30   28 1
    30   31   28 1
    31   32   23 1
    32   33   32 2
    33   34   32 1
    34   35   34 1
    35   36   35 1
    36   37   35 1
    37   38   35 1
    38   39   38 1
    39   40   38 1
    40   41   38 1
    41   11   13 ar
@<TRIPOS>SUBSTRUCTURE
     1 RES1 1

@<TRIPOS>CRYSIN
  10.6723   11.7713   12.3081  90.0000  90.0000  90.0000  19 1

