# MOL2 file generated by ConQuest
# Please check atom types

@<TRIPOS>MOLECULE
SUQGIV
    54    57     1
SMALL
NO_CHARGES
****
Generated from CSD

@<TRIPOS>ATOM
      1 O1         5.3621   -1.5831    7.3263 O.3       1 RES1    0.0000
      2 O2         7.5039   -1.9759    7.6805 O.2       1 RES1    0.0000
      3 O3         9.2997   -0.4876    6.1716 O.3       1 RES1    0.0000
      4 O4        10.4948   -0.2224    3.3086 O.2       1 RES1    0.0000
      5 O5        12.3998    1.3567    1.5481 O.3       1 RES1    0.0000
      6 O6        14.5193    3.3064    0.9307 O.2       1 RES1    0.0000
      7 O7        15.8491    1.8819    1.7357 O.2       1 RES1    0.0000
      8 N1         9.5956    1.5470    4.3861 N.am      1 RES1    0.0000
      9 H1         9.7307    2.3605    4.6305 H         1 RES1    0.0000
     10 N2        14.8441    2.5354    1.7896 N.pl3     1 RES1    0.0000
     11 C1         5.0568   -2.4870    8.3973 C.3       1 RES1    0.0000
     12 H2         5.4794   -3.3331    8.2326 H         1 RES1    0.0000
     13 H3         4.1068   -2.6090    8.4509 H         1 RES1    0.0000
     14 H4         5.3794   -2.1237    9.2252 H         1 RES1    0.0000
     15 C2         6.6584   -1.4082    7.0573 C.2       1 RES1    0.0000
     16 C3         6.8620   -0.4470    5.9516 C.ar      1 RES1    0.0000
     17 C4         5.7809    0.0194    5.2341 C.ar      1 RES1    0.0000
     18 H5         4.9320   -0.2861    5.4560 H         1 RES1    0.0000
     19 C5         5.9151    0.9360    4.1826 C.ar      1 RES1    0.0000
     20 C6         4.8039    1.3635    3.4206 C.ar      1 RES1    0.0000
     21 H6         3.9623    1.0132    3.6038 H         1 RES1    0.0000
     22 C7         4.9470    2.2764    2.4275 C.ar      1 RES1    0.0000
     23 H7         4.2040    2.5562    1.9426 H         1 RES1    0.0000
     24 C8         6.2202    2.7998    2.1312 C.ar      1 RES1    0.0000
     25 H8         6.3102    3.4293    1.4531 H         1 RES1    0.0000
     26 C9         7.3144    2.4012    2.8187 C.ar      1 RES1    0.0000
     27 H9         8.1496    2.7523    2.6043 H         1 RES1    0.0000
     28 C10        7.1977    1.4485    3.8673 C.ar      1 RES1    0.0000
     29 C11        8.3002    0.9870    4.6140 C.ar      1 RES1    0.0000
     30 C12        8.1574    0.0348    5.5948 C.ar      1 RES1    0.0000
     31 C13        9.7154    0.0823    7.4066 C.3       1 RES1    0.0000
     32 H10        9.7557    1.0377    7.3201 H         1 RES1    0.0000
     33 H11       10.5837   -0.2540    7.6374 H         1 RES1    0.0000
     34 H12        9.0888   -0.1514    8.0944 H         1 RES1    0.0000
     35 C14       10.6220    0.8831    3.8129 C.2       1 RES1    0.0000
     36 C15       11.9258    1.5953    3.9130 C.ar      1 RES1    0.0000
     37 C16       12.3245    2.0866    5.1374 C.ar      1 RES1    0.0000
     38 H13       11.7729    1.9564    5.8738 H         1 RES1    0.0000
     39 C17       13.5460    2.7830    5.3141 C.ar      1 RES1    0.0000
     40 C18       13.9011    3.3651    6.5412 C.ar      1 RES1    0.0000
     41 H14       13.3345    3.2757    7.2741 H         1 RES1    0.0000
     42 C19       15.0608    4.0575    6.6708 C.ar      1 RES1    0.0000
     43 H15       15.2795    4.4466    7.4873 H         1 RES1    0.0000
     44 C20       15.9230    4.1872    5.5912 C.ar      1 RES1    0.0000
     45 H16       16.7161    4.6622    5.6931 H         1 RES1    0.0000
     46 C21       15.6282    3.6336    4.3899 C.ar      1 RES1    0.0000
     47 H17       16.2242    3.7240    3.6805 H         1 RES1    0.0000
     48 C22       14.4179    2.9168    4.2072 C.ar      1 RES1    0.0000
     49 C23       13.9783    2.3867    2.9709 C.ar      1 RES1    0.0000
     50 C24       12.7760    1.7748    2.8061 C.ar      1 RES1    0.0000
     51 C25       11.4228    2.2222    0.9580 C.3       1 RES1    0.0000
     52 H18       10.5837    2.1101    1.4088 H         1 RES1    0.0000
     53 H19       11.3200    2.0016    0.0290 H         1 RES1    0.0000
     54 H20       11.7118    3.1338    1.0404 H         1 RES1    0.0000
@<TRIPOS>BOND
     1    1   11 1
     2    2   15 2
     3    3   30 1
     4    4   35 2
     5    5   50 1
     6    6   10 2
     7    7   10 2
     8    8    9 1
     9   10   49 1
    10   11   12 1
    11   13   11 1
    12   14   11 1
    13   15    1 1
    14   16   15 1
    15   17   16 ar
    16   18   17 1
    17   19   17 ar
    18   20   19 ar
    19   21   20 1
    20   22   20 ar
    21   23   22 1
    22   24   22 ar
    23   25   24 1
    24   26   24 ar
    25   27   26 1
    26   28   19 ar
    27   29    8 1
    28   30   16 ar
    29   31    3 1
    30   32   31 1
    31   33   31 1
    32   34   31 1
    33   35    8 1
    34   36   35 1
    35   37   36 ar
    36   38   37 1
    37   39   37 ar
    38   40   39 ar
    39   41   40 1
    40   42   40 ar
    41   43   42 1
    42   44   42 ar
    43   45   44 1
    44   46   44 ar
    45   47   46 1
    46   48   39 ar
    47   49   48 ar
    48   50   36 ar
    49   51    5 1
    50   52   51 1
    51   53   51 1
    52   54   51 1
    53   26   28 ar
    54   28   29 ar
    55   29   30 ar
    56   46   48 ar
    57   49   50 ar
@<TRIPOS>SUBSTRUCTURE
     1 RES1 1

@<TRIPOS>CRYSIN
  27.7860    4.5194   17.0553  90.0000  90.0000  90.0000  33 1

