# MOL2 file generated by ConQuest
# Please check atom types

@<TRIPOS>MOLECULE
SUQYAF
   122   128     2
SMALL
NO_CHARGES
****
Generated from CSD

@<TRIPOS>ATOM
      1 N1         2.8252    5.1800   18.5330 N.am      1 RES1    0.0000
      2 C1         4.2754    5.3689   18.8084 C.3       1 RES1    0.0000
      3 H1         4.6868    4.4911   19.0126 H         1 RES1    0.0000
      4 C2         4.2881    6.2476   20.0816 C.3       1 RES1    0.0000
      5 H2         4.9734    6.9593   20.0101 H         1 RES1    0.0000
      6 C3         2.9110    6.8375   20.1096 C.ar      1 RES1    0.0000
      7 C4         2.4142    7.8830   20.8658 C.ar      1 RES1    0.0000
      8 H3         2.9757    8.3465   21.4596 H         1 RES1    0.0000
      9 C5         1.0865    8.2391   20.7391 C.ar      1 RES1    0.0000
     10 H4         0.7366    8.9450   21.2525 H         1 RES1    0.0000
     11 C6         0.2750    7.5548   19.8571 C.ar      1 RES1    0.0000
     12 H5        -0.6270    7.8083   19.7808 H         1 RES1    0.0000
     13 C7         0.7429    6.5092   19.0821 C.ar      1 RES1    0.0000
     14 H6         0.1778    6.0476   18.4894 H         1 RES1    0.0000
     15 C8         2.0860    6.1680   19.2174 C.ar      1 RES1    0.0000
     16 C9         2.3134    4.2414   17.6764 C.2       1 RES1    0.0000
     17 C10        3.2731    3.2871   17.0448 C.3       1 RES1    0.0000
     18 H7         2.7804    2.5935   16.5790 H         1 RES1    0.0000
     19 H8         3.8285    2.8858   17.7301 H         1 RES1    0.0000
     20 H9         3.8340    3.7627   16.4142 H         1 RES1    0.0000
     21 O1         1.1080    4.1883   17.4415 O.2       1 RES1    0.0000
     22 C11        4.9838    5.9901   17.6270 C.ar      1 RES1    0.0000
     23 C12        4.4742    7.0908   16.9608 C.ar      1 RES1    0.0000
     24 H10        3.6657    7.4719   17.2492 H         1 RES1    0.0000
     25 C13        5.1333    7.6378   15.8785 C.ar      1 RES1    0.0000
     26 H11        4.7729    8.3859   15.4390 H         1 RES1    0.0000
     27 C14        6.3149    7.0922   15.4399 C.ar      1 RES1    0.0000
     28 H12        6.7622    7.4650   14.7020 H         1 RES1    0.0000
     29 C15        6.8387    6.0019   16.0851 C.ar      1 RES1    0.0000
     30 H13        7.6483    5.6254   15.7908 H         1 RES1    0.0000
     31 C16        6.1780    5.4575   17.1663 C.ar      1 RES1    0.0000
     32 H14        6.5453    4.7091   17.6010 H         1 RES1    0.0000
     33 O2         4.6073    5.3327   21.1543 O.3       1 RES1    0.0000
     34 N2         4.2233    5.8038   22.4825 N.3       1 RES1    0.0000
     35 C17        5.4746    6.1972   23.2034 C.3       1 RES1    0.0000
     36 C18        5.0720    6.5369   24.6476 C.3       1 RES1    0.0000
     37 H15        5.8834    6.7203   25.1668 H         1 RES1    0.0000
     38 H16        4.5308    7.3536   24.6413 H         1 RES1    0.0000
     39 C19        4.2946    5.4429   25.3336 C.3       1 RES1    0.0000
     40 H17        4.0183    5.7414   26.2267 H         1 RES1    0.0000
     41 H18        4.8579    4.6488   25.4362 H         1 RES1    0.0000
     42 C20        3.0782    5.1051   24.5084 C.3       1 RES1    0.0000
     43 H19        2.4843    5.8852   24.4877 H         1 RES1    0.0000
     44 H20        2.5938    4.3727   24.9442 H         1 RES1    0.0000
     45 C21        3.4033    4.6936   23.0685 C.3       1 RES1    0.0000
     46 C22        6.6181    5.1789   23.1994 C.3       1 RES1    0.0000
     47 H21        6.3979    4.4423   23.7930 H         1 RES1    0.0000
     48 H22        7.4332    5.6069   23.5036 H         1 RES1    0.0000
     49 H23        6.7468    4.8413   22.2990 H         1 RES1    0.0000
     50 C23        5.9831    7.4877   22.5526 C.3       1 RES1    0.0000
     51 H24        6.3526    7.2864   21.6800 H         1 RES1    0.0000
     52 H25        6.6703    7.8825   23.1117 H         1 RES1    0.0000
     53 H26        5.2469    8.1122   22.4549 H         1 RES1    0.0000
     54 C24        4.0482    3.3073   23.0260 C.3       1 RES1    0.0000
     55 H27        4.3809    3.1317   22.1320 H         1 RES1    0.0000
     56 H28        3.3881    2.6376   23.2631 H         1 RES1    0.0000
     57 H29        4.7841    3.2732   23.6572 H         1 RES1    0.0000
     58 C25        2.0935    4.6226   22.2868 C.3       1 RES1    0.0000
     59 H30        1.6971    5.5071   22.2389 H         1 RES1    0.0000
     60 H31        1.4815    4.0178   22.7354 H         1 RES1    0.0000
     61 H32        2.2691    4.2985   21.3906 H         1 RES1    0.0000
     62 N3        -1.3903    1.0522   18.5884 N.am      2 RES2    0.0000
     63 C26        0.0582    0.8667   18.3230 C.3       2 RES2    0.0000
     64 H33        0.4657    1.7375   18.0841 H         2 RES2    0.0000
     65 C27        0.0776   -0.0654   17.1011 C.3       2 RES2    0.0000
     66 H34        0.7969   -0.7400   17.1846 H         2 RES2    0.0000
     67 C28       -1.2769   -0.7177   17.1450 C.ar      2 RES2    0.0000
     68 C29       -1.7353   -1.8507   16.5053 C.ar      2 RES2    0.0000
     69 H35       -1.1683   -2.3406   15.9377 H         2 RES2    0.0000
     70 C30       -3.0374   -2.2553   16.7099 C.ar      2 RES2    0.0000
     71 H36       -3.3636   -3.0203   16.2739 H         2 RES2    0.0000
     72 C31       -3.8575   -1.5438   17.5469 C.ar      2 RES2    0.0000
     73 H37       -4.7411   -1.8372   17.6767 H         2 RES2    0.0000
     74 C32       -3.4213   -0.4055   18.2093 C.ar      2 RES2    0.0000
     75 H38       -3.9934    0.0789   18.7766 H         2 RES2    0.0000
     76 C33       -2.1075   -0.0128   18.0011 C.ar      2 RES2    0.0000
     77 C34       -1.9183    2.0625   19.3321 C.2       2 RES2    0.0000
     78 C35       -0.9638    3.0730   19.8785 C.3       2 RES2    0.0000
     79 H39       -1.4576    3.7580   20.3552 H         2 RES2    0.0000
     80 H40       -0.4694    3.4773   19.1484 H         2 RES2    0.0000
     81 H41       -0.3454    2.6376   20.4866 H         2 RES2    0.0000
     82 O3        -3.1304    2.1365   19.5383 O.2       2 RES2    0.0000
     83 C36        0.7742    0.2839   19.5196 C.ar      2 RES2    0.0000
     84 C37        1.9701    0.8275   19.9544 C.ar      2 RES2    0.0000
     85 H42        2.3307    1.5728   19.5069 H         2 RES2    0.0000
     86 C38        2.6444    0.2877   21.0417 C.ar      2 RES2    0.0000
     87 H43        3.4542    0.6704   21.3282 H         2 RES2    0.0000
     88 C39        2.1328   -0.7996   21.6998 C.ar      2 RES2    0.0000
     89 H44        2.5874   -1.1645   22.4371 H         2 RES2    0.0000
     90 C40        0.9522   -1.3499   21.2741 C.ar      2 RES2    0.0000
     91 H45        0.5992   -2.0971   21.7223 H         2 RES2    0.0000
     92 C41        0.2767   -0.8186   20.1980 C.ar      2 RES2    0.0000
     93 H46       -0.5332   -1.2086   19.9210 H         2 RES2    0.0000
     94 O4         0.3208    0.8068   15.9729 O.3       2 RES2    0.0000
     95 N4        -0.0464    0.2241   14.6949 N.3       2 RES2    0.0000
     96 C42       -0.9382    1.2320   14.0365 C.3       2 RES2    0.0000
     97 C43       -1.2628    0.6658   12.6511 C.3       2 RES2    0.0000
     98 H47       -1.8121   -0.1392   12.7604 H         2 RES2    0.0000
     99 H48       -1.7945    1.3246   12.1570 H         2 RES2    0.0000
    100 C44       -0.0424    0.3146   11.8319 C.3       2 RES2    0.0000
    101 H49        0.4815    1.1228   11.6494 H         2 RES2    0.0000
    102 H50       -0.3157   -0.0766   10.9769 H         2 RES2    0.0000
    103 C45        0.7900   -0.6755   12.6119 C.3       2 RES2    0.0000
    104 H51        1.5928   -0.8931   12.0947 H         2 RES2    0.0000
    105 H52        0.2762   -1.5032   12.7270 H         2 RES2    0.0000
    106 C46        1.2116   -0.1624   13.9841 C.3       2 RES2    0.0000
    107 C47       -0.3698    2.6545   13.9436 C.3       2 RES2    0.0000
    108 H53        0.0135    2.9067   14.7977 H         2 RES2    0.0000
    109 H54       -1.0812    3.2732   13.7134 H         2 RES2    0.0000
    110 H55        0.3179    2.6840   13.2592 H         2 RES2    0.0000
    111 C48       -2.2362    1.3086   14.8425 C.3       2 RES2    0.0000
    112 H56       -2.5921    0.4152   14.9692 H         2 RES2    0.0000
    113 H57       -2.8831    1.8488   14.3635 H         2 RES2    0.0000
    114 H58       -2.0565    1.7097   15.7062 H         2 RES2    0.0000
    115 C49        1.8260   -1.3302   14.7550 C.3       2 RES2    0.0000
    116 H59        2.2230   -1.0021   15.5770 H         2 RES2    0.0000
    117 H60        2.5093   -1.7514   14.2121 H         2 RES2    0.0000
    118 H61        1.1352   -1.9764   14.9647 H         2 RES2    0.0000
    119 C50        2.2789    0.9298   13.8465 C.3       2 RES2    0.0000
    120 H62        2.0070    1.5635   13.1657 H         2 RES2    0.0000
    121 H63        3.1243    0.5266   13.5932 H         2 RES2    0.0000
    122 H64        2.3822    1.3895   14.6953 H         2 RES2    0.0000
@<TRIPOS>BOND
     1    1    2 1
     2    2    3 1
     3    4    2 1
     4    5    4 1
     5    6    4 1
     6    7    6 ar
     7    8    7 1
     8    9    7 ar
     9   10    9 1
    10   11    9 ar
    11   12   11 1
    12   13   11 ar
    13   14   13 1
    14   15    1 1
    15   16    1 1
    16   17   16 1
    17   18   17 1
    18   19   17 1
    19   20   17 1
    20   21   16 2
    21   22    2 1
    22   23   22 ar
    23   24   23 1
    24   25   23 ar
    25   26   25 1
    26   27   25 ar
    27   28   27 1
    28   29   27 ar
    29   30   29 1
    30   31   22 ar
    31   32   31 1
    32   33    4 1
    33   34   33 1
    34   35   34 1
    35   36   35 1
    36   37   36 1
    37   38   36 1
    38   39   36 1
    39   40   39 1
    40   41   39 1
    41   42   39 1
    42   43   42 1
    43   44   42 1
    44   45   34 1
    45   46   35 1
    46   47   46 1
    47   48   46 1
    48   49   46 1
    49   50   35 1
    50   51   50 1
    51   52   50 1
    52   53   50 1
    53   54   45 1
    54   55   54 1
    55   56   54 1
    56   57   54 1
    57   58   45 1
    58   59   58 1
    59   60   58 1
    60   61   58 1
    61   62   63 1
    62   63   64 1
    63   65   63 1
    64   66   65 1
    65   67   65 1
    66   68   67 ar
    67   69   68 1
    68   70   68 ar
    69   71   70 1
    70   72   70 ar
    71   73   72 1
    72   74   72 ar
    73   75   74 1
    74   76   62 1
    75   77   62 1
    76   78   77 1
    77   79   78 1
    78   80   78 1
    79   81   78 1
    80   82   77 2
    81   83   63 1
    82   84   83 ar
    83   85   84 1
    84   86   84 ar
    85   87   86 1
    86   88   86 ar
    87   89   88 1
    88   90   88 ar
    89   91   90 1
    90   92   83 ar
    91   93   92 1
    92   94   65 1
    93   95   94 1
    94   96   95 1
    95   97   96 1
    96   98   97 1
    97   99   97 1
    98  100   97 1
    99  101  100 1
   100  102  100 1
   101  103  100 1
   102  104  103 1
   103  105  103 1
   104  106   95 1
   105  107   96 1
   106  108  107 1
   107  109  107 1
   108  110  107 1
   109  111   96 1
   110  112  111 1
   111  113  111 1
   112  114  111 1
   113  115  106 1
   114  116  115 1
   115  117  115 1
   116  118  115 1
   117  119  106 1
   118  120  119 1
   119  121  119 1
   120  122  119 1
   121    6   15 ar
   122   13   15 ar
   123   29   31 ar
   124   42   45 1
   125   67   76 ar
   126   74   76 ar
   127   90   92 ar
   128  103  106 1
@<TRIPOS>SUBSTRUCTURE
     1 RES1 1
     2 RES2 62

@<TRIPOS>CRYSIN
   8.5157   23.1976   22.6529  90.0000 100.6100  90.0000 231 1

