# MOL2 file generated by ConQuest
# Please check atom types

@<TRIPOS>MOLECULE
SURHIW
    17    16     1
SMALL
NO_CHARGES
****
Generated from CSD

@<TRIPOS>ATOM
      1 O1         1.5511    2.2849    2.8990 O.3       1 RES1    0.0000
      2 N1         2.5214    1.6303    3.6470 N.2       1 RES1    0.0000
      3 C1         3.0477    2.3973    4.5154 C.2       1 RES1    0.0000
      4 C2         4.1148    1.8996    5.4196 C.2       1 RES1    0.0000
      5 O2         4.7374    2.6947    6.1208 O.2       1 RES1    0.0000
      6 N2         4.3543    0.5931    5.4387 N.am      1 RES1    0.0000
      7 C3         5.3790    0.0000    6.2888 C.3       1 RES1    0.0000
      8 C4         4.8694   -0.3163    7.6750 C.3       1 RES1    0.0000
      9 O3         5.9593   -0.6997    8.5070 O.3       1 RES1    0.0000
     10 H1         1.2461    1.8086    2.2269 H         1 RES1    0.0000
     11 H2         2.8036    3.2938    4.5240 H         1 RES1    0.0000
     12 H3         3.6778    0.2708    4.8301 H         1 RES1    0.0000
     13 H4         6.1838    0.7601    6.3990 H         1 RES1    0.0000
     14 H5         5.7096   -0.8650    5.7715 H         1 RES1    0.0000
     15 H6         4.5565    0.4456    8.0198 H         1 RES1    0.0000
     16 H7         3.9846   -0.9611    7.5552 H         1 RES1    0.0000
     17 H8         6.4489    0.0262    8.6488 H         1 RES1    0.0000
@<TRIPOS>BOND
     1    1    2 1
     2    2    3 2
     3    3    4 1
     4    4    5 2
     5    6    4 1
     6    7    6 1
     7    8    7 1
     8    9    8 1
     9   10    1 1
    10   11    3 1
    11   12    6 1
    12   13    7 1
    13   14    7 1
    14   15    8 1
    15   16    8 1
    16   17    9 1
@<TRIPOS>SUBSTRUCTURE
     1 RES1 1

@<TRIPOS>CRYSIN
   4.6495    8.7370   15.2322  90.0000  90.0000  90.0000  19 1

