# MOL2 file generated by ConQuest
# Please check atom types

@<TRIPOS>MOLECULE
SURSOP
    65    68     1
SMALL
NO_CHARGES
****
Generated from CSD

@<TRIPOS>ATOM
      1 N1         7.9141   -0.8149    2.2493 N.2       1 RES1    0.0000
      2 N2         6.9198   -1.1555    1.3251 N.3       1 RES1    0.0000
      3 N3         5.3020   -1.7527   -1.0677 N.pl3     1 RES1    0.0000
      4 N4         5.3063    2.9674   -2.1170 N.pl3     1 RES1    0.0000
      5 O1         7.5536   -3.8266    1.5895 O.3       1 RES1    0.0000
      6 O2         5.6328   -2.7102   -0.3601 O.2       1 RES1    0.0000
      7 O3         4.6185   -1.9051   -2.0636 O.2       1 RES1    0.0000
      8 O4         4.6332    2.6960   -3.1031 O.2       1 RES1    0.0000
      9 O5         5.6492    4.1101   -1.8315 O.2       1 RES1    0.0000
     10 C1         8.0518   -1.5728    3.2832 C.2       1 RES1    0.0000
     11 C2         9.1359   -1.1607    4.2031 C.2       1 RES1    0.0000
     12 H1         9.6783   -1.8413    4.5323 H         1 RES1    0.0000
     13 C3         9.4239    0.0809    4.6153 C.2       1 RES1    0.0000
     14 C4         7.1799   -2.7650    3.6714 C.3       1 RES1    0.0000
     15 H2         6.2721   -2.5498    3.3718 H         1 RES1    0.0000
     16 C5         7.1009   -2.9433    5.1780 C.3       1 RES1    0.0000
     17 H3         7.9747   -3.1893    5.5184 H         1 RES1    0.0000
     18 H4         6.8470   -2.1006    5.5873 H         1 RES1    0.0000
     19 C6         6.1190   -3.9841    5.5578 C.3       1 RES1    0.0000
     20 H5         5.2310   -3.7105    5.2793 H         1 RES1    0.0000
     21 H6         6.1142   -4.0906    6.5213 H         1 RES1    0.0000
     22 C7         6.4724   -5.3124    4.9009 C.3       1 RES1    0.0000
     23 H7         5.7898   -5.9692    5.1090 H         1 RES1    0.0000
     24 H8         7.3173   -5.6342    5.2525 H         1 RES1    0.0000
     25 C8         6.5803   -5.1547    3.3887 C.3       1 RES1    0.0000
     26 H9         6.8632   -5.9960    2.9990 H         1 RES1    0.0000
     27 H10        5.7061   -4.9383    3.0272 H         1 RES1    0.0000
     28 C9         7.5460   -4.0860    3.0047 C.3       1 RES1    0.0000
     29 H11        8.4467   -4.3503    3.2874 H         1 RES1    0.0000
     30 C10        6.5362   -0.1997    0.4515 C.ar      1 RES1    0.0000
     31 C11        6.8921    1.1364    0.7033 C.ar      1 RES1    0.0000
     32 H12        7.4136    1.3339    1.4475 H         1 RES1    0.0000
     33 C12        6.4924    2.1461   -0.1111 C.ar      1 RES1    0.0000
     34 H13        6.7376    3.0207    0.0858 H         1 RES1    0.0000
     35 C13        5.7181    1.8789   -1.2407 C.ar      1 RES1    0.0000
     36 C14        5.3494    0.5884   -1.5262 C.ar      1 RES1    0.0000
     37 H14        4.8304    0.4085   -2.2760 H         1 RES1    0.0000
     38 C15        5.7459   -0.4387   -0.7005 C.ar      1 RES1    0.0000
     39 C16        8.5440    1.2478    4.2538 C.ar      1 RES1    0.0000
     40 C17        7.1999    1.2371    4.5900 C.ar      1 RES1    0.0000
     41 H15        6.8524    0.5110    5.0556 H         1 RES1    0.0000
     42 C18        6.3715    2.2748    4.2510 C.ar      1 RES1    0.0000
     43 H16        5.4680    2.2369    4.4690 H         1 RES1    0.0000
     44 C19        6.8624    3.3562    3.5997 C.ar      1 RES1    0.0000
     45 H17        6.2996    4.0606    3.3718 H         1 RES1    0.0000
     46 C20        8.2012    3.4055    3.2761 C.ar      1 RES1    0.0000
     47 H18        8.5397    4.1449    2.8260 H         1 RES1    0.0000
     48 C21        9.0427    2.3674    3.6166 C.ar      1 RES1    0.0000
     49 H19        9.9490    2.4203    3.4154 H         1 RES1    0.0000
     50 C22       10.5853    0.3447    5.5128 C.ar      1 RES1    0.0000
     51 C23       10.6631    1.5260    6.2527 C.ar      1 RES1    0.0000
     52 H20       10.0110    2.1789    6.1359 H         1 RES1    0.0000
     53 C24       11.6814    1.7477    7.1487 C.ar      1 RES1    0.0000
     54 H21       11.7103    2.5417    7.6326 H         1 RES1    0.0000
     55 C25       12.6521    0.8008    7.3288 C.ar      1 RES1    0.0000
     56 H22       13.3416    0.9544    7.9336 H         1 RES1    0.0000
     57 C26       12.6151   -0.3774    6.6198 C.ar      1 RES1    0.0000
     58 H23       13.2707   -1.0245    6.7520 H         1 RES1    0.0000
     59 C27       11.5997   -0.5928    5.7139 C.ar      1 RES1    0.0000
     60 H24       11.5894   -1.3830    5.2244 H         1 RES1    0.0000
     61 C28        7.9069   -4.9282    0.7638 C.3       1 RES1    0.0000
     62 H25        8.6887   -5.3576    1.1197 H         1 RES1    0.0000
     63 H26        8.0921   -4.6151   -0.1252 H         1 RES1    0.0000
     64 H27        7.1815   -5.5557    0.7371 H         1 RES1    0.0000
     65 H28        6.7924   -1.9853    1.2238 H         1 RES1    0.0000
@<TRIPOS>BOND
     1    1    2 1
     2    2   30 1
     3    3    6 2
     4    4    8 2
     5    5   28 1
     6    7    3 2
     7    9    4 2
     8   10    1 2
     9   11   10 1
    10   12   11 1
    11   13   11 2
    12   14   10 1
    13   15   14 1
    14   16   14 1
    15   17   16 1
    16   18   16 1
    17   19   16 1
    18   20   19 1
    19   21   19 1
    20   22   19 1
    21   23   22 1
    22   24   22 1
    23   25   22 1
    24   26   25 1
    25   27   25 1
    26   28   14 1
    27   29   28 1
    28   30   31 ar
    29   31   32 1
    30   33   31 ar
    31   34   33 1
    32   35    4 1
    33   36   35 ar
    34   37   36 1
    35   38    3 1
    36   39   13 1
    37   40   39 ar
    38   41   40 1
    39   42   40 ar
    40   43   42 1
    41   44   42 ar
    42   45   44 1
    43   46   44 ar
    44   47   46 1
    45   48   39 ar
    46   49   48 1
    47   50   13 1
    48   51   50 ar
    49   52   51 1
    50   53   51 ar
    51   54   53 1
    52   55   53 ar
    53   56   55 1
    54   57   55 ar
    55   58   57 1
    56   59   50 ar
    57   60   59 1
    58   61    5 1
    59   62   61 1
    60   63   61 1
    61   64   61 1
    62   65    2 1
    63   25   28 1
    64   30   38 ar
    65   33   35 ar
    66   36   38 ar
    67   46   48 ar
    68   57   59 ar
@<TRIPOS>SUBSTRUCTURE
     1 RES1 1

@<TRIPOS>CRYSIN
   8.3847   11.1611   14.8806 103.6550  98.2010 107.7010   2 1

