# MOL2 file generated by ConQuest
# Please check atom types

@<TRIPOS>MOLECULE
SURTOQ
   124   128     2
SMALL
NO_CHARGES
****
Generated from CSD

@<TRIPOS>ATOM
      1 O1         1.6769  -10.1973   -5.1562 O.3       1 RES1    0.0000
      2 O2         0.6146   -7.9862   -7.8041 O.3       1 RES1    0.0000
      3 H1        -0.2689   -8.0345   -7.5979 H         1 RES1    0.0000
      4 O3        -0.4283  -10.0797   -6.2005 O.3       1 RES1    0.0000
      5 O4        -5.2865  -10.6936   -2.2777 O.3       1 RES1    0.0000
      6 O5        -4.3231   -8.6873   -3.5729 O.3       1 RES1    0.0000
      7 O6        -2.7122  -14.6622   -3.7938 O.2       1 RES1    0.0000
      8 O7        -1.1576  -13.9304   -5.0972 O.2       1 RES1    0.0000
      9 O8         0.5145   -8.8748   -3.5836 O.3       1 RES1    0.0000
     10 O9        -3.8963   -8.5645    0.7964 O.3       1 RES1    0.0000
     11 O10       -2.7421   -6.7440   -0.6113 O.3       1 RES1    0.0000
     12 O11       -1.8604  -12.8756   -0.6543 O.2       1 RES1    0.0000
     13 O12        0.0804  -12.3274   -1.4532 O.2       1 RES1    0.0000
     14 N1        -2.1370  -13.7381   -4.3632 N.pl3     1 RES1    0.0000
     15 N2        -1.0399  -12.0313   -1.0453 N.pl3     1 RES1    0.0000
     16 C1         0.9727  -10.0144   -6.3832 C.3       1 RES1    0.0000
     17 H2         1.2707  -10.6852   -7.0628 H         1 RES1    0.0000
     18 C2         1.3813   -8.5981   -6.8092 C.3       1 RES1    0.0000
     19 H3         2.3140   -8.6626   -7.1637 H         1 RES1    0.0000
     20 C3         1.4682   -7.8529   -5.4756 C.3       1 RES1    0.0000
     21 H4         2.2421   -7.2359   -5.4666 H         1 RES1    0.0000
     22 H5         0.6419   -7.3336   -5.3083 H         1 RES1    0.0000
     23 C4         1.6383   -8.9525   -4.4349 C.3       1 RES1    0.0000
     24 H6         2.4827   -8.8190   -3.9164 H         1 RES1    0.0000
     25 C5        -0.8311  -11.3979   -5.7644 C.3       1 RES1    0.0000
     26 H7        -0.0844  -11.8323   -5.2802 H         1 RES1    0.0000
     27 H8        -1.0549  -11.9556   -6.5508 H         1 RES1    0.0000
     28 C6        -2.0313  -11.2908   -4.8584 C.ar      1 RES1    0.0000
     29 C7        -2.6196  -12.3719   -4.2011 C.ar      1 RES1    0.0000
     30 C8        -3.7135  -12.2203   -3.3258 C.ar      1 RES1    0.0000
     31 H9        -4.0799  -12.9774   -2.8846 H         1 RES1    0.0000
     32 C9        -4.2465  -10.9744   -3.1139 C.ar      1 RES1    0.0000
     33 C10       -3.7066   -9.8684   -3.8047 C.ar      1 RES1    0.0000
     34 C11       -2.6182  -10.0374   -4.6493 C.ar      1 RES1    0.0000
     35 H10       -2.2625   -9.2802   -5.0989 H         1 RES1    0.0000
     36 C12       -5.7998  -11.7771   -1.4928 C.3       1 RES1    0.0000
     37 H11       -6.4698  -11.4367   -0.8645 H         1 RES1    0.0000
     38 H12       -5.0658  -12.1955   -0.9947 H         1 RES1    0.0000
     39 H13       -6.2136  -12.4407   -2.0840 H         1 RES1    0.0000
     40 C13       -3.8909   -7.5588   -4.3404 C.3       1 RES1    0.0000
     41 H14       -4.4587   -6.7866   -4.1348 H         1 RES1    0.0000
     42 H15       -3.9593   -7.7674   -5.2955 H         1 RES1    0.0000
     43 H16       -2.9609   -7.3481   -4.1169 H         1 RES1    0.0000
     44 C14        0.4104   -9.9409   -2.6420 C.3       1 RES1    0.0000
     45 H17        1.2428  -10.0059   -2.1108 H         1 RES1    0.0000
     46 H18        0.2751  -10.7999   -3.1158 H         1 RES1    0.0000
     47 C15       -0.7537   -9.6658   -1.7391 C.ar      1 RES1    0.0000
     48 C16       -1.4197  -10.6197   -0.9876 C.ar      1 RES1    0.0000
     49 C17       -2.5023  -10.3143   -0.1479 C.ar      1 RES1    0.0000
     50 H19       -2.9523  -11.0046    0.3256 H         1 RES1    0.0000
     51 C18       -2.9094   -9.0000   -0.0157 C.ar      1 RES1    0.0000
     52 C19       -2.2637   -8.0008   -0.7892 C.ar      1 RES1    0.0000
     53 C20       -1.2180   -8.3400   -1.6258 C.ar      1 RES1    0.0000
     54 H20       -0.7995   -7.6599   -2.1402 H         1 RES1    0.0000
     55 C21       -4.5197   -9.5390    1.6396 C.3       1 RES1    0.0000
     56 H21       -5.2238   -9.1100    2.1695 H         1 RES1    0.0000
     57 H22       -3.8493   -9.9278    2.2411 H         1 RES1    0.0000
     58 H23       -4.9119  -10.2472    1.0867 H         1 RES1    0.0000
     59 C22       -2.1363   -5.6867   -1.3625 C.3       1 RES1    0.0000
     60 H24       -2.5191   -4.9603   -1.1837 H         1 RES1    0.0000
     61 H25       -2.2259   -5.8733   -2.3202 H         1 RES1    0.0000
     62 H26       -1.1861   -5.6230   -1.1301 H         1 RES1    0.0000
     63 H27      -12.0548   -7.4912   -7.7894 H         2 RES2    0.0000
     64 O13      -11.3484   -3.3919   -7.2062 O.3       2 RES2    0.0000
     65 O14      -11.2546   -6.9827   -7.0563 O.3       2 RES2    0.0000
     66 O15      -10.2999   -4.9251   -8.6738 O.3       2 RES2    0.0000
     67 O16       -5.7796   -5.3385  -13.0461 O.3       2 RES2    0.0000
     68 O17       -6.9383   -7.1379  -11.6135 O.3       2 RES2    0.0000
     69 O18       -7.8492   -1.0143  -11.7587 O.2       2 RES2    0.0000
     70 O19       -9.7417   -1.5256  -10.8339 O.2       2 RES2    0.0000
     71 O20       -9.1990   -3.4407   -6.2517 O.3       2 RES2    0.0000
     72 O21       -4.3449   -3.0415  -10.1260 O.3       2 RES2    0.0000
     73 O22       -5.3867   -4.9919   -8.7950 O.3       2 RES2    0.0000
     74 O23       -6.9160    1.0055   -8.8411 O.2       2 RES2    0.0000
     75 O24       -8.3958    0.3764   -7.4152 O.2       2 RES2    0.0000
     76 N3        -8.6319   -1.8435  -11.2954 N.pl3     2 RES2    0.0000
     77 N4        -7.4650    0.1215   -8.1794 N.pl3     2 RES2    0.0000
     78 C23      -11.4363   -4.6356   -7.9058 C.3       2 RES2    0.0000
     79 H28      -12.2459   -4.6334   -8.4930 H         2 RES2    0.0000
     80 C24      -11.6269   -5.6459   -6.7708 C.3       2 RES2    0.0000
     81 H29      -12.5929   -5.6421   -6.5125 H         2 RES2    0.0000
     82 C25      -10.8252   -5.0429   -5.6157 C.3       2 RES2    0.0000
     83 H30      -11.3385   -5.0868   -4.7707 H         2 RES2    0.0000
     84 H31       -9.9681   -5.5220   -5.4947 H         2 RES2    0.0000
     85 C26      -10.5827   -3.5974   -6.0262 C.3       2 RES2    0.0000
     86 H32      -10.8880   -2.9760   -5.3045 H         2 RES2    0.0000
     87 C27      -10.0945   -3.8753   -9.6299 C.3       2 RES2    0.0000
     88 H33       -9.9177   -3.0238   -9.1570 H         2 RES2    0.0000
     89 H34      -10.9119   -3.7595  -10.1773 H         2 RES2    0.0000
     90 C28       -8.9296   -4.2103  -10.5221 C.ar      2 RES2    0.0000
     91 C29       -8.2574   -3.2536  -11.2929 C.ar      2 RES2    0.0000
     92 C30       -7.1776   -3.5771  -12.1298 C.ar      2 RES2    0.0000
     93 H35       -6.7359   -2.8992  -12.6278 H         2 RES2    0.0000
     94 C31       -6.7661   -4.8910  -12.2210 C.ar      2 RES2    0.0000
     95 C32       -7.4140   -5.8790  -11.4494 C.ar      2 RES2    0.0000
     96 C33       -8.4633   -5.5269  -10.6101 C.ar      2 RES2    0.0000
     97 H36       -8.8766   -6.1991  -10.0803 H         2 RES2    0.0000
     98 C34       -5.1412   -4.3635  -13.8805 C.3       2 RES2    0.0000
     99 H37       -4.4783   -4.8067  -14.4513 H         2 RES2    0.0000
    100 H38       -4.6941   -3.6962  -13.3199 H         2 RES2    0.0000
    101 H39       -5.8123   -3.9228  -14.4411 H         2 RES2    0.0000
    102 C35       -7.5694   -8.1958  -10.8809 C.3       2 RES2    0.0000
    103 H40       -7.1426   -9.0487  -11.1057 H         2 RES2    0.0000
    104 H41       -8.5199   -8.2336  -11.1159 H         2 RES2    0.0000
    105 H42       -7.4770   -8.0277   -9.9194 H         2 RES2    0.0000
    106 C36       -8.8269   -2.1434   -6.7211 C.3       2 RES2    0.0000
    107 H43       -8.6189   -1.5526   -5.9544 H         2 RES2    0.0000
    108 H44       -9.5743   -1.7408   -7.2301 H         2 RES2    0.0000
    109 C37       -7.6179   -2.2829   -7.6064 C.ar      2 RES2    0.0000
    110 C38       -6.9953   -1.2441   -8.3085 C.ar      2 RES2    0.0000
    111 C39       -5.8993   -1.4387   -9.1558 C.ar      2 RES2    0.0000
    112 H45       -5.5116   -0.7003   -9.6116 H         2 RES2    0.0000
    113 C40       -5.3823   -2.7081   -9.3280 C.ar      2 RES2    0.0000
    114 C41       -5.9666   -3.7820   -8.6021 C.ar      2 RES2    0.0000
    115 C42       -7.0665   -3.5635   -7.7842 C.ar      2 RES2    0.0000
    116 H46       -7.4586   -4.3013   -7.3310 H         2 RES2    0.0000
    117 C43       -3.7750   -1.9788  -10.9039 C.3       2 RES2    0.0000
    118 H47       -3.1123   -2.3474  -11.5245 H         2 RES2    0.0000
    119 H48       -3.3408   -1.3340  -10.3076 H         2 RES2    0.0000
    120 H49       -4.4831   -1.5291  -11.4109 H         2 RES2    0.0000
    121 C44       -5.8870   -6.1002   -8.0397 C.3       2 RES2    0.0000
    122 H50       -5.3843   -6.9081   -8.2734 H         2 RES2    0.0000
    123 H51       -6.8356   -6.2353   -8.2466 H         2 RES2    0.0000
    124 H52       -5.7840   -5.9165   -7.0820 H         2 RES2    0.0000
@<TRIPOS>BOND
     1    1   16 1
     2    2    3 1
     3    4   16 1
     4    5   32 1
     5    6   33 1
     6    7   14 2
     7    8   14 2
     8    9   23 1
     9   10   51 1
    10   11   52 1
    11   12   15 2
    12   13   15 2
    13   14   29 1
    14   15   48 1
    15   16   17 1
    16   18    2 1
    17   19   18 1
    18   20   18 1
    19   21   20 1
    20   22   20 1
    21   23    1 1
    22   24   23 1
    23   25    4 1
    24   26   25 1
    25   27   25 1
    26   28   25 1
    27   29   28 ar
    28   30   29 ar
    29   31   30 1
    30   32   30 ar
    31   33   32 ar
    32   34   28 ar
    33   35   34 1
    34   36    5 1
    35   37   36 1
    36   38   36 1
    37   39   36 1
    38   40    6 1
    39   41   40 1
    40   42   40 1
    41   43   40 1
    42   44    9 1
    43   45   44 1
    44   46   44 1
    45   47   44 1
    46   48   47 ar
    47   49   48 ar
    48   50   49 1
    49   51   49 ar
    50   52   51 ar
    51   53   47 ar
    52   54   53 1
    53   55   10 1
    54   56   55 1
    55   57   55 1
    56   58   55 1
    57   59   11 1
    58   60   59 1
    59   61   59 1
    60   62   59 1
    61   63   65 1
    62   64   78 1
    63   65   80 1
    64   66   78 1
    65   67   94 1
    66   68   95 1
    67   69   76 2
    68   70   76 2
    69   71   85 1
    70   72  113 1
    71   73  114 1
    72   74   77 2
    73   75   77 2
    74   76   91 1
    75   77  110 1
    76   78   79 1
    77   80   78 1
    78   81   80 1
    79   82   80 1
    80   83   82 1
    81   84   82 1
    82   85   64 1
    83   86   85 1
    84   87   66 1
    85   88   87 1
    86   89   87 1
    87   90   87 1
    88   91   90 ar
    89   92   91 ar
    90   93   92 1
    91   94   92 ar
    92   95   94 ar
    93   96   90 ar
    94   97   96 1
    95   98   67 1
    96   99   98 1
    97  100   98 1
    98  101   98 1
    99  102   68 1
   100  103  102 1
   101  104  102 1
   102  105  102 1
   103  106   71 1
   104  107  106 1
   105  108  106 1
   106  109  106 1
   107  110  109 ar
   108  111  110 ar
   109  112  111 1
   110  113  111 ar
   111  114  113 ar
   112  115  109 ar
   113  116  115 1
   114  117   72 1
   115  118  117 1
   116  119  117 1
   117  120  117 1
   118  121   73 1
   119  122  121 1
   120  123  121 1
   121  124  121 1
   122   16   18 1
   123   20   23 1
   124   33   34 ar
   125   52   53 ar
   126   82   85 1
   127   95   96 ar
   128  114  115 ar
@<TRIPOS>SUBSTRUCTURE
     1 RES1 1
     2 RES2 63

@<TRIPOS>CRYSIN
   9.3699   10.4362   13.2079 101.1030  94.9500 111.3460   1 1

