# MOL2 file generated by ConQuest
# Please check atom types

@<TRIPOS>MOLECULE
SUSDUG
    66    69     1
SMALL
NO_CHARGES
****
Generated from CSD

@<TRIPOS>ATOM
      1 N1        10.6949    2.6351    8.7133 N.3       1 RES1    0.0000
      2 N2         6.1899    2.4192    5.4232 N.2       1 RES1    0.0000
      3 N3         5.1325    2.9842    5.8300 N.2       1 RES1    0.0000
      4 N4         0.5514    2.4223    2.6239 N.pl3     1 RES1    0.0000
      5 O1        12.7882    2.3558    6.6528 O.3       1 RES1    0.0000
      6 O2        14.0287    4.7479   -0.1083 O.2       1 RES1    0.0000
      7 O3         0.6269    1.8009    1.5816 O.2       1 RES1    0.0000
      8 O4        -0.4796    2.9393    3.0110 O.2       1 RES1    0.0000
      9 C1        11.7260    1.5997    8.6559 C.3       1 RES1    0.0000
     10 H1        11.3790    0.8412    8.1601 H         1 RES1    0.0000
     11 H2        11.9173    1.2986    9.5581 H         1 RES1    0.0000
     12 C2        13.0148    2.0516    8.0125 C.3       1 RES1    0.0000
     13 H3        13.3523    2.8363    8.4718 H         1 RES1    0.0000
     14 H4        13.6807    1.3489    8.0836 H         1 RES1    0.0000
     15 C3        13.9507    2.8216    6.0036 C.3       1 RES1    0.0000
     16 H5        14.5912    2.0973    5.9372 H         1 RES1    0.0000
     17 H6        14.3524    3.5282    6.5344 H         1 RES1    0.0000
     18 C4        13.6504    3.3409    4.6389 C.ar      1 RES1    0.0000
     19 C5        12.4006    3.2171    4.0676 C.ar      1 RES1    0.0000
     20 H7        11.7087    2.8224    4.5485 H         1 RES1    0.0000
     21 C6        12.1724    3.6783    2.7847 C.ar      1 RES1    0.0000
     22 H8        11.3222    3.5994    2.4152 H         1 RES1    0.0000
     23 C7        13.1934    4.2588    2.0359 C.ar      1 RES1    0.0000
     24 C8        14.4497    4.3826    2.6242 C.ar      1 RES1    0.0000
     25 H9        15.1479    4.7665    2.1464 H         1 RES1    0.0000
     26 C9        14.6602    3.9430    3.9009 C.ar      1 RES1    0.0000
     27 H10       15.5017    4.0498    4.2835 H         1 RES1    0.0000
     28 C10       13.0309    4.6457    0.6010 C.2       1 RES1    0.0000
     29 C11       11.6876    4.9073    0.0159 C.ar      1 RES1    0.0000
     30 C12       10.6831    5.5427    0.7287 C.ar      1 RES1    0.0000
     31 H11       10.8206    5.7679    1.6201 H         1 RES1    0.0000
     32 C13        9.4768    5.8437    0.1232 C.ar      1 RES1    0.0000
     33 H12        8.8104    6.2848    0.5991 H         1 RES1    0.0000
     34 C14        9.2733    5.4908   -1.1721 C.ar      1 RES1    0.0000
     35 H13        8.4615    5.6936   -1.5790 H         1 RES1    0.0000
     36 C15       10.2515    4.8346   -1.8944 C.ar      1 RES1    0.0000
     37 H14       10.0944    4.5815   -2.7754 H         1 RES1    0.0000
     38 C16       11.4571    4.5606   -1.2990 C.ar      1 RES1    0.0000
     39 H15       12.1252    4.1365   -1.7862 H         1 RES1    0.0000
     40 C17        9.6089    2.6375    7.8854 C.ar      1 RES1    0.0000
     41 C18        8.4730    3.4245    8.1861 C.ar      1 RES1    0.0000
     42 H16        8.4843    3.9748    8.9366 H         1 RES1    0.0000
     43 C19        7.3557    3.3920    7.3958 C.ar      1 RES1    0.0000
     44 H17        6.6190    3.9136    7.6226 H         1 RES1    0.0000
     45 C20        7.3034    2.5895    6.2552 C.ar      1 RES1    0.0000
     46 C21        8.4454    1.8721    5.9189 C.ar      1 RES1    0.0000
     47 H18        8.4474    1.3698    5.1365 H         1 RES1    0.0000
     48 C22        9.5699    1.8829    6.7058 C.ar      1 RES1    0.0000
     49 H19       10.3137    1.3845    6.4523 H         1 RES1    0.0000
     50 C23        4.0181    2.7690    4.9702 C.ar      1 RES1    0.0000
     51 C24        2.8636    3.4570    5.3183 C.ar      1 RES1    0.0000
     52 H20        2.8620    4.0003    6.0734 H         1 RES1    0.0000
     53 C25        1.7209    3.3456    4.5590 C.ar      1 RES1    0.0000
     54 H21        0.9479    3.8099    4.7893 H         1 RES1    0.0000
     55 C26        1.7496    2.5337    3.4541 C.ar      1 RES1    0.0000
     56 C27        2.8852    1.8458    3.0819 C.ar      1 RES1    0.0000
     57 H22        2.8838    1.3156    2.3181 H         1 RES1    0.0000
     58 C28        4.0218    1.9495    3.8522 C.ar      1 RES1    0.0000
     59 H23        4.7872    1.4720    3.6246 H         1 RES1    0.0000
     60 C29       10.8211    3.5901    9.8136 C.3       1 RES1    0.0000
     61 H24       10.4308    4.4344    9.5376 H         1 RES1    0.0000
     62 H25       11.7639    3.7441    9.9836 H         1 RES1    0.0000
     63 C30       10.1564    3.1482   11.1114 C.3       1 RES1    0.0000
     64 H26        9.2249    2.9818   10.9523 H         1 RES1    0.0000
     65 H27       10.2494    3.8393   11.7717 H         1 RES1    0.0000
     66 H28       10.5765    2.3449   11.4283 H         1 RES1    0.0000
@<TRIPOS>BOND
     1    1    9 1
     2    2    3 2
     3    3   50 1
     4    4    7 2
     5    5   12 1
     6    6   28 2
     7    8    4 2
     8    9   10 1
     9   11    9 1
    10   12    9 1
    11   13   12 1
    12   14   12 1
    13   15    5 1
    14   16   15 1
    15   17   15 1
    16   18   15 1
    17   19   18 ar
    18   20   19 1
    19   21   19 ar
    20   22   21 1
    21   23   21 ar
    22   24   23 ar
    23   25   24 1
    24   26   18 ar
    25   27   26 1
    26   28   23 1
    27   29   28 1
    28   30   29 ar
    29   31   30 1
    30   32   30 ar
    31   33   32 1
    32   34   32 ar
    33   35   34 1
    34   36   34 ar
    35   37   36 1
    36   38   29 ar
    37   39   38 1
    38   40    1 1
    39   41   40 ar
    40   42   41 1
    41   43   41 ar
    42   44   43 1
    43   45    2 1
    44   46   45 ar
    45   47   46 1
    46   48   40 ar
    47   49   48 1
    48   50   51 ar
    49   51   52 1
    50   53   51 ar
    51   54   53 1
    52   55    4 1
    53   56   55 ar
    54   57   56 1
    55   58   50 ar
    56   59   58 1
    57   60    1 1
    58   61   60 1
    59   62   60 1
    60   63   60 1
    61   64   63 1
    62   65   63 1
    63   66   63 1
    64   24   26 ar
    65   36   38 ar
    66   43   45 ar
    67   46   48 ar
    68   53   55 ar
    69   56   58 ar
@<TRIPOS>SUBSTRUCTURE
     1 RES1 1

@<TRIPOS>CRYSIN
  18.1800    7.7390   20.6700  90.0000 115.4480  90.0000  14 1

