# MOL2 file generated by ConQuest
# Please check atom types

@<TRIPOS>MOLECULE
SUSDIV
    74    78     2
SMALL
NO_CHARGES
****
Generated from CSD

@<TRIPOS>ATOM
      1 O1         3.7640   10.2319   19.8361 O.3       1 RES1    0.0000
      2 O2         2.5905    9.4052   18.1129 O.3       1 RES1    0.0000
      3 O3        -0.2146    7.1945   19.7121 O.2       1 RES1    0.0000
      4 O4         1.1592    7.5704   21.9950 O.2       1 RES1    0.0000
      5 O5         2.1392   16.2875   16.3829 O.2       1 RES1    0.0000
      6 O6         4.3311   15.9804   16.2580 O.2       1 RES1    0.0000
      7 N1         1.0613    9.0263   20.2545 N.am      1 RES1    0.0000
      8 N2         3.1377   15.6215   16.5105 N.pl3     1 RES1    0.0000
      9 C1         1.6434    8.5076   21.4095 C.2       1 RES1    0.0000
     10 C2         2.9041    9.1437   21.8867 C.2       1 RES1    0.0000
     11 C3         3.8073    9.8305   21.1533 C.2       1 RES1    0.0000
     12 C4         2.5918   10.4897   19.0772 C.3       1 RES1    0.0000
     13 C5         1.4234    9.2126   17.3764 C.2       1 RES1    0.0000
     14 C6         0.3232    8.6675   17.9370 C.2       1 RES1    0.0000
     15 C7         0.3349    8.2191   19.3697 C.2       1 RES1    0.0000
     16 C8         1.3420   10.4101   19.9166 C.3       1 RES1    0.0000
     17 C9         3.1877    8.7992   23.3191 C.ar      1 RES1    0.0000
     18 C10        3.4734    7.4805   23.6726 C.ar      1 RES1    0.0000
     19 C11        3.5947    7.1211   25.0102 C.ar      1 RES1    0.0000
     20 C12        3.4546    8.0813   26.0054 C.ar      1 RES1    0.0000
     21 C13        3.1916    9.3973   25.6590 C.ar      1 RES1    0.0000
     22 C14        3.0439    9.7616   24.3188 C.ar      1 RES1    0.0000
     23 C15        5.1512   10.2163   21.6827 C.ar      1 RES1    0.0000
     24 C16        5.3269   11.3671   22.4447 C.ar      1 RES1    0.0000
     25 C17        6.6029   11.7331   22.8623 C.ar      1 RES1    0.0000
     26 C18        7.6949   10.9465   22.5431 C.ar      1 RES1    0.0000
     27 C19        7.5216    9.7915   21.8069 C.ar      1 RES1    0.0000
     28 C20        6.2516    9.4301   21.3652 C.ar      1 RES1    0.0000
     29 C21        1.5873    9.5620   15.9454 C.ar      1 RES1    0.0000
     30 C22        2.6754    9.0435   15.2430 C.ar      1 RES1    0.0000
     31 C23        2.8762    9.4034   13.9124 C.ar      1 RES1    0.0000
     32 C24        2.0106   10.2892   13.2959 C.ar      1 RES1    0.0000
     33 C25        0.9212   10.7972   13.9822 C.ar      1 RES1    0.0000
     34 C26        0.6986   10.4240   15.3011 C.ar      1 RES1    0.0000
     35 C27       -0.8896    8.2848   17.1599 C.ar      1 RES1    0.0000
     36 C28       -0.7953    7.5605   15.9675 C.ar      1 RES1    0.0000
     37 C29       -1.9509    7.2161   15.2668 C.ar      1 RES1    0.0000
     38 C30       -3.1989    7.5665   15.7533 C.ar      1 RES1    0.0000
     39 C31       -3.3045    8.2735   16.9452 C.ar      1 RES1    0.0000
     40 C32       -2.1533    8.6306   17.6467 C.ar      1 RES1    0.0000
     41 C33        2.7653   11.8440   18.3909 C.ar      1 RES1    0.0000
     42 C34        3.9947   12.4978   18.3770 C.ar      1 RES1    0.0000
     43 C35        4.1330   13.7375   17.7563 C.ar      1 RES1    0.0000
     44 C36        3.0203   14.2977   17.1622 C.ar      1 RES1    0.0000
     45 C37        1.7872   13.6832   17.1582 C.ar      1 RES1    0.0000
     46 C38        1.6661   12.4470   17.7767 C.ar      1 RES1    0.0000
     47 H1         0.5448   10.7711   19.4392 H         1 RES1    0.0000
     48 H2         1.4327   10.9419   20.7584 H         1 RES1    0.0000
     49 H3         3.5721    6.8041   23.0251 H         1 RES1    0.0000
     50 H4         3.7821    6.2062   25.2494 H         1 RES1    0.0000
     51 H5         3.5115    7.8388   26.9118 H         1 RES1    0.0000
     52 H6         3.0691   10.0662   26.3501 H         1 RES1    0.0000
     53 H7         2.8239   10.6825   24.0890 H         1 RES1    0.0000
     54 H8         4.5327   11.9367   22.6677 H         1 RES1    0.0000
     55 H9         6.7245   12.5530   23.3854 H         1 RES1    0.0000
     56 H10        8.6042   11.2339   22.8379 H         1 RES1    0.0000
     57 H11        8.2548    9.2336   21.5613 H         1 RES1    0.0000
     58 H12        6.1358    8.5849   20.8860 H         1 RES1    0.0000
     59 H13        3.2807    8.4227   15.6660 H         1 RES1    0.0000
     60 H14        3.6803    9.0822   13.4389 H         1 RES1    0.0000
     61 H15        2.1889   10.5851   12.4034 H         1 RES1    0.0000
     62 H16        0.3122   11.4609   13.5325 H         1 RES1    0.0000
     63 H17       -0.0509   10.8068   15.7794 H         1 RES1    0.0000
     64 H18        0.0937    7.2766   15.6319 H         1 RES1    0.0000
     65 H19       -1.8990    6.7252   14.4290 H         1 RES1    0.0000
     66 H20       -4.0073    7.3090   15.2262 H         1 RES1    0.0000
     67 H21       -4.1740    8.5200   17.2717 H         1 RES1    0.0000
     68 H22       -2.2501    9.1363   18.5030 H         1 RES1    0.0000
     69 H23        4.7917   12.0859   18.8008 H         1 RES1    0.0000
     70 H24        4.9696   14.2289   17.7256 H         1 RES1    0.0000
     71 H25        1.0086   14.1424   16.7355 H         1 RES1    0.0000
     72 H26        0.7934   12.0405   17.8022 H         1 RES1    0.0000
     73 O7         2.1266   16.0172   15.8294 Du        2 SUP2    0.0000
     74 O8         4.1432   16.2615   16.5965 Du        2 SUP2    0.0000
@<TRIPOS>BOND
     1    1   11 1
     2    2   12 1
     3    3   15 2
     4    4    9 2
     5    5    8 2
     6    6    8 2
     7    7    9 1
     8    8   44 1
     9    9   10 1
    10   10   11 2
    11   11   23 1
    12   12    1 1
    13   13    2 1
    14   14   13 2
    15   15    7 1
    16   16    7 1
    17   17   10 1
    18   18   17 ar
    19   19   18 ar
    20   20   19 ar
    21   21   20 ar
    22   22   17 ar
    23   23   24 ar
    24   24   25 ar
    25   25   26 ar
    26   26   27 ar
    27   27   28 ar
    28   28   23 ar
    29   29   13 1
    30   30   29 ar
    31   31   30 ar
    32   32   31 ar
    33   33   32 ar
    34   34   29 ar
    35   35   14 1
    36   36   35 ar
    37   37   36 ar
    38   38   37 ar
    39   39   38 ar
    40   40   35 ar
    41   41   12 1
    42   42   41 ar
    43   43   42 ar
    44   44   43 ar
    45   45   44 ar
    46   46   41 ar
    47   47   16 1
    48   48   16 1
    49   49   18 1
    50   50   19 1
    51   51   20 1
    52   52   21 1
    53   53   22 1
    54   54   24 1
    55   55   25 1
    56   56   26 1
    57   57   27 1
    58   58   28 1
    59   59   30 1
    60   60   31 1
    61   61   32 1
    62   62   33 1
    63   63   34 1
    64   64   36 1
    65   65   37 1
    66   66   38 1
    67   67   39 1
    68   68   40 1
    69   69   42 1
    70   70   43 1
    71   71   45 1
    72   72   46 1
    73   12   16 1
    74   14   15 1
    75   21   22 ar
    76   33   34 ar
    77   39   40 ar
    78   45   46 ar
@<TRIPOS>SUBSTRUCTURE
     1 RES1 1
     2 SUP2 73

@<TRIPOS>CRYSIN
   9.5212   10.8122   28.4537  90.0000  94.3940  90.0000 231 1

