# MOL2 file generated by ConQuest
# Please check atom types

@<TRIPOS>MOLECULE
SUSHAR
   142   144     5
SMALL
USER_CHARGES
****
Generated from CSD

@<TRIPOS>ATOM
      1 O1         5.9326    4.7133    0.1583 O.2       1 RES1   -1.0000
      2 N1         4.5488    4.6179    0.1583 N.4       1 RES1    1.0000
      3 C1         3.9805    4.9709   -1.1890 C.3       1 RES1    0.0000
      4 H1         4.3493    5.8267   -1.5234 H         1 RES1    0.0000
      5 H2         2.9925    5.0317   -1.1588 H         1 RES1    0.0000
      6 C2         4.4357    3.7949   -2.0519 C.3       1 RES1    0.0000
      7 H3         5.3089    3.9900   -2.4744 H         1 RES1    0.0000
      8 H4         3.7726    3.6072   -2.7634 H         1 RES1    0.0000
      9 C3         4.5540    2.5858   -1.0762 C.3       1 RES1    0.0000
     10 H5         3.9401    1.8570   -1.3418 H         1 RES1    0.0000
     11 H6         5.4798    2.2379   -1.0555 H         1 RES1    0.0000
     12 C4         4.1622    3.1636    0.2697 C.3       1 RES1    0.0000
     13 H7         3.1896    3.0661    0.4280 H         1 RES1    0.0000
     14 H8         4.6561    2.7201    1.0032 H         1 RES1    0.0000
     15 C5         3.9142    5.4145    1.2248 C.2       1 RES1    0.0000
     16 H9         2.9658    5.4715    1.2510 H         1 RES1    0.0000
     17 C6         4.6122    6.0512    2.1386 C.2       1 RES1    0.0000
     18 H10        5.5578    5.9611    2.1056 H         1 RES1    0.0000
     19 C7         4.0427    6.9052    3.2286 C.3       1 RES1    0.0000
     20 H11        4.2513    6.5021    4.1079 H         1 RES1    0.0000
     21 H12        3.0582    6.9475    3.1350 H         1 RES1    0.0000
     22 C8         4.6273    8.3241    3.1611 C.3       1 RES1    0.0000
     23 H13        5.6102    8.2689    3.2643 H         1 RES1    0.0000
     24 H14        4.4400    8.7033    2.2652 H         1 RES1    0.0000
     25 C9         4.0856    9.2683    4.2070 C.ar      1 RES1    0.0000
     26 C10        4.4995    9.2259    5.5130 C.ar      1 RES1    0.0000
     27 H15        5.1333    8.5689    5.7759 H         1 RES1    0.0000
     28 C11        4.0203   10.1130    6.4544 C.ar      1 RES1    0.0000
     29 H16        4.3250   10.0467    7.3516 H         1 RES1    0.0000
     30 C12        3.1349   11.0645    6.1309 C.ar      1 RES1    0.0000
     31 H17        2.8438   11.7049    6.7709 H         1 RES1    0.0000
     32 C13        2.6707   11.0792    4.8580 C.ar      1 RES1    0.0000
     33 H18        2.0153   11.7215    4.6075 H         1 RES1    0.0000
     34 C14        3.1334   10.1774    3.9167 C.ar      1 RES1    0.0000
     35 H19        2.7687   10.1977    3.0400 H         1 RES1    0.0000
     36 O2        10.7408    4.0106    0.4803 O.2       2 RES2   -1.0000
     37 N2         9.3685    4.1773    0.3317 N.4       2 RES2    1.0000
     38 C15        9.0698    4.6323   -1.0734 C.3       2 RES2    0.0000
     39 H20        9.6833    5.3611   -1.3473 H         2 RES2    0.0000
     40 H21        8.1359    4.9544   -1.1505 H         2 RES2    0.0000
     41 C16        9.2872    3.3919   -1.9225 C.3       2 RES2    0.0000
     42 H22       10.2120    3.3643   -2.2762 H         2 RES2    0.0000
     43 H23        8.6538    3.3698   -2.6836 H         2 RES2    0.0000
     44 C17        9.0331    2.2177   -0.9661 C.3       2 RES2    0.0000
     45 H24        8.2958    1.6472   -1.3019 H         2 RES2    0.0000
     46 H25        9.8476    1.6600   -0.8739 H         2 RES2    0.0000
     47 C18        8.6599    2.8416    0.3674 C.3       2 RES2    0.0000
     48 H26        7.6796    2.9594    0.4445 H         2 RES2    0.0000
     49 H27        8.9799    2.2876    1.1230 H         2 RES2    0.0000
     50 C19        8.7931    5.1053    1.3129 C.2       2 RES2    0.0000
     51 H28        7.8568    5.2635    1.2909 H         2 RES2    0.0000
     52 C20        9.5073    5.7200    2.2115 C.2       2 RES2    0.0000
     53 H29       10.4367    5.5249    2.2515 H         2 RES2    0.0000
     54 C21        8.9607    6.7138    3.1831 C.3       2 RES2    0.0000
     55 H30        9.1584    6.4101    4.1038 H         2 RES2    0.0000
     56 H31        7.9761    6.7561    3.0841 H         2 RES2    0.0000
     57 C22        9.5450    8.1198    2.9850 C.3       2 RES2    0.0000
     58 H32       10.5306    8.0757    3.0662 H         2 RES2    0.0000
     59 H33        9.3298    8.4327    2.0698 H         2 RES2    0.0000
     60 C23        9.0086    9.1155    3.9882 C.ar      2 RES2    0.0000
     61 C24        9.4379    9.1560    5.2832 C.ar      2 RES2    0.0000
     62 H34       10.1103    8.5450    5.5598 H         2 RES2    0.0000
     63 C25        8.9374   10.0486    6.2066 C.ar      2 RES2    0.0000
     64 H35        9.2337    9.9971    7.1080 H         2 RES2    0.0000
     65 C26        8.0424   10.9872    5.8653 C.ar      2 RES2    0.0000
     66 H36        7.7169   11.6240    6.4901 H         2 RES2    0.0000
     67 C27        7.6284   10.9706    4.5662 C.ar      2 RES2    0.0000
     68 H37        7.0058   11.6276    4.2772 H         2 RES2    0.0000
     69 C28        8.0791   10.0339    3.6552 C.ar      2 RES2    0.0000
     70 H38        7.7270   10.0394    2.7730 H         2 RES2    0.0000
     71 O3         7.2125   14.2465    7.1369 O.2       3 RES3   -1.0000
     72 N3         5.8450   14.5392    7.0929 N.4       3 RES3    1.0000
     73 C29        5.4912   14.1103    5.6851 C.3       3 RES3    0.0000
     74 H39        4.5225   13.9189    5.6011 H         3 RES3    0.0000
     75 H40        6.0048   13.3079    5.4153 H         3 RES3    0.0000
     76 C30        5.8871   15.3232    4.8621 C.3       3 RES3    0.0000
     77 H41        5.2874   15.4244    4.0804 H         3 RES3    0.0000
     78 H42        6.8188   15.2330    4.5373 H         3 RES3    0.0000
     79 C31        5.7575   16.5360    5.8020 C.3       3 RES3    0.0000
     80 H43        6.6306   16.9887    5.9163 H         3 RES3    0.0000
     81 H44        5.1020   17.1875    5.4484 H         3 RES3    0.0000
     82 C32        5.2795   15.9415    7.1163 C.3       3 RES3    0.0000
     83 H45        5.6300   16.4550    7.8870 H         3 RES3    0.0000
     84 H46        4.2910   15.9268    7.1617 H         3 RES3    0.0000
     85 C33        5.1436   13.6981    8.0879 C.2       3 RES3    0.0000
     86 H47        4.1988   13.6116    8.0356 H         3 RES3    0.0000
     87 C34        5.7913   13.0687    9.0402 C.2       3 RES3    0.0000
     88 H48        6.7326   13.1938    9.0788 H         3 RES3    0.0000
     89 C35        5.1815   12.1724   10.0696 C.3       3 RES3    0.0000
     90 H49        4.2052   12.1080    9.9155 H         3 RES3    0.0000
     91 H50        5.3260   12.5570   10.9710 H         3 RES3    0.0000
     92 C36        5.7994   10.7792   10.0063 C.3       3 RES3    0.0000
     93 H51        5.6495   10.4167    9.0967 H         3 RES3    0.0000
     94 H52        6.7781   10.8694   10.1288 H         3 RES3    0.0000
     95 C37        5.2924    9.7615   11.0082 C.ar      3 RES3    0.0000
     96 C38        5.4291    9.9934   12.3651 C.ar      3 RES3    0.0000
     97 H53        5.7944   10.8160   12.6679 H         3 RES3    0.0000
     98 C39        5.0344    9.0345   13.2844 C.ar      3 RES3    0.0000
     99 H54        5.0961    9.2186   14.2147 H         3 RES3    0.0000
    100 C40        4.5596    7.8272   12.8633 C.ar      3 RES3    0.0000
    101 H55        4.3281    7.1573   13.4963 H         3 RES3    0.0000
    102 C41        4.4185    7.5880   11.5270 C.ar      3 RES3    0.0000
    103 H56        4.0659    6.7561   11.2298 H         3 RES3    0.0000
    104 C42        4.7876    8.5523   10.5981 C.ar      3 RES3    0.0000
    105 H57        4.6903    8.3738    9.6705 H         3 RES3    0.0000
    106 O4         7.1569   14.8944    7.3626 Du        5 SUP5    0.0000
    107 O5         2.2752   14.7306    7.2966 O.2       4 RES4   -1.0000
    108 N4         0.9146   14.4582    7.1714 N.4       4 RES4    1.0000
    109 C43        0.3220   15.8256    7.3035 C.3       4 RES4    0.0000
    110 H58        0.8013   16.3520    7.9916 H         4 RES4    0.0000
    111 H59       -0.6351   15.7722    7.5484 H         4 RES4    0.0000
    112 C44        0.4959   16.4532    5.9231 C.3       4 RES4    0.0000
    113 H60        1.3048   17.0237    5.8984 H         4 RES4    0.0000
    114 H61       -0.2917   17.0053    5.6892 H         4 RES4    0.0000
    115 C45        0.6372   15.2698    4.9488 C.3       4 RES4    0.0000
    116 H62       -0.0312   15.3287    4.2222 H         4 RES4    0.0000
    117 H63        1.5432   15.2459    4.5511 H         4 RES4    0.0000
    118 C46        0.3916   14.0349    5.8144 C.3       4 RES4    0.0000
    119 H64       -0.5719   13.8140    5.8557 H         4 RES4    0.0000
    120 H65        0.8889   13.2509    5.4690 H         4 RES4    0.0000
    121 C47        0.3690   13.5619    8.2118 C.2       4 RES4    0.0000
    122 H66       -0.5707   13.4441    8.2792 H         4 RES4    0.0000
    123 C48        1.1599   12.9214    9.0485 C.2       4 RES4    0.0000
    124 H67        2.0984   13.0466    8.9769 H         4 RES4    0.0000
    125 C49        0.6395   12.0049   10.1068 C.3       4 RES4    0.0000
    126 H68       -0.3501   12.0105   10.0834 H         4 RES4    0.0000
    127 H69        0.9236   12.3380   10.9944 H         4 RES4    0.0000
    128 C50        1.1434   10.5621    9.9237 C.3       4 RES4    0.0000
    129 H70        0.8986   10.2492    9.0168 H         4 RES4    0.0000
    130 H71        2.1309   10.5565    9.9884 H         4 RES4    0.0000
    131 C51        0.5775    9.6014   10.9463 C.ar      4 RES4    0.0000
    132 C52        1.3004    9.2922   12.0816 C.ar      4 RES4    0.0000
    133 H72        2.1720    9.6492   12.2041 H         4 RES4    0.0000
    134 C53        0.7500    8.4585   13.0408 C.ar      4 RES4    0.0000
    135 H73        1.2716    8.1935   13.7895 H         4 RES4    0.0000
    136 C54       -0.5354    8.0131   12.9197 C.ar      4 RES4    0.0000
    137 H74       -0.9393    7.5272   13.6285 H         4 RES4    0.0000
    138 C55       -1.2450    8.2708   11.7692 C.ar      4 RES4    0.0000
    139 H75       -2.1068    7.8935   11.6399 H         4 RES4    0.0000
    140 C56       -0.6850    9.0897   10.8045 C.ar      4 RES4    0.0000
    141 H76       -1.1871    9.2995   10.0270 H         4 RES4    0.0000
    142 O6         2.2595   14.2024    6.9346 Du        5 SUP5    0.0000
@<TRIPOS>BOND
     1    1    2 1
     2    2    3 1
     3    3    4 1
     4    5    3 1
     5    6    3 1
     6    7    6 1
     7    8    6 1
     8    9    6 1
     9   10    9 1
    10   11    9 1
    11   12    2 1
    12   13   12 1
    13   14   12 1
    14   15    2 1
    15   16   15 1
    16   17   15 2
    17   18   17 1
    18   19   17 1
    19   20   19 1
    20   21   19 1
    21   22   19 1
    22   23   22 1
    23   24   22 1
    24   25   22 1
    25   26   25 ar
    26   27   26 1
    27   28   26 ar
    28   29   28 1
    29   30   28 ar
    30   31   30 1
    31   32   30 ar
    32   33   32 1
    33   34   25 ar
    34   35   34 1
    35   36   37 1
    36   37   38 1
    37   38   39 1
    38   40   38 1
    39   41   38 1
    40   42   41 1
    41   43   41 1
    42   44   41 1
    43   45   44 1
    44   46   44 1
    45   47   37 1
    46   48   47 1
    47   49   47 1
    48   50   37 1
    49   51   50 1
    50   52   50 2
    51   53   52 1
    52   54   52 1
    53   55   54 1
    54   56   54 1
    55   57   54 1
    56   58   57 1
    57   59   57 1
    58   60   57 1
    59   61   60 ar
    60   62   61 1
    61   63   61 ar
    62   64   63 1
    63   65   63 ar
    64   66   65 1
    65   67   65 ar
    66   68   67 1
    67   69   60 ar
    68   70   69 1
    69   71   72 1
    70   72   73 1
    71   73   74 1
    72   75   73 1
    73   76   73 1
    74   77   76 1
    75   78   76 1
    76   79   76 1
    77   80   79 1
    78   81   79 1
    79   82   72 1
    80   83   82 1
    81   84   82 1
    82   85   72 1
    83   86   85 1
    84   87   85 2
    85   88   87 1
    86   89   87 1
    87   90   89 1
    88   91   89 1
    89   92   89 1
    90   93   92 1
    91   94   92 1
    92   95   92 1
    93   96   95 ar
    94   97   96 1
    95   98   96 ar
    96   99   98 1
    97  100   98 ar
    98  101  100 1
    99  102  100 ar
   100  103  102 1
   101  104   95 ar
   102  105  104 1
   103  107  108 1
   104  108  109 1
   105  109  110 1
   106  111  109 1
   107  112  109 1
   108  113  112 1
   109  114  112 1
   110  115  112 1
   111  116  115 1
   112  117  115 1
   113  118  108 1
   114  119  118 1
   115  120  118 1
   116  121  108 1
   117  122  121 1
   118  123  121 2
   119  124  123 1
   120  125  123 1
   121  126  125 1
   122  127  125 1
   123  128  125 1
   124  129  128 1
   125  130  128 1
   126  131  128 1
   127  132  131 ar
   128  133  132 1
   129  134  132 ar
   130  135  134 1
   131  136  134 ar
   132  137  136 1
   133  138  136 ar
   134  139  138 1
   135  140  131 ar
   136  141  140 1
   137    9   12 1
   138   32   34 ar
   139   44   47 1
   140   67   69 ar
   141   79   82 1
   142  102  104 ar
   143  115  118 1
   144  138  140 ar
@<TRIPOS>SUBSTRUCTURE
     1 RES1 1
     2 RES2 36
     3 RES3 71
     4 RES4 107
     5 SUP5 106

@<TRIPOS>CRYSIN
   9.7311   18.4040   13.9570  90.0000  99.5900  90.0000   4 1

