# MOL2 file generated by ConQuest
# Please check atom types

@<TRIPOS>MOLECULE
SUTKEY
    69    72     1
SMALL
NO_CHARGES
****
Generated from CSD

@<TRIPOS>ATOM
      1 N1         6.0417    9.1218    3.5475 N.2       1 RES1    0.0000
      2 N2         6.1122   10.3171    2.8164 N.am      1 RES1    0.0000
      3 C1         5.0461   11.3340    2.8232 C.3       1 RES1    0.0000
      4 C2         4.3146   11.2494    4.1874 C.3       1 RES1    0.0000
      5 H1         3.5192   11.8213    4.1375 H         1 RES1    0.0000
      6 C3         3.8409    9.8056    4.4481 C.3       1 RES1    0.0000
      7 C4         3.1767    9.6952    5.8418 C.3       1 RES1    0.0000
      8 H2         3.7199   10.1690    6.4909 H         1 RES1    0.0000
      9 H3         2.3074   10.1233    5.8130 H         1 RES1    0.0000
     10 C5         3.0059    8.2541    6.2945 C.3       1 RES1    0.0000
     11 H4         2.5947    8.2342    7.1722 H         1 RES1    0.0000
     12 H5         2.4236    7.7843    5.6765 H         1 RES1    0.0000
     13 C6         4.3503    7.5711    6.3467 C.3       1 RES1    0.0000
     14 H6         4.2370    6.6637    6.6707 H         1 RES1    0.0000
     15 H7         4.9258    8.0414    6.9691 H         1 RES1    0.0000
     16 C7         5.0077    7.5379    4.9741 C.3       1 RES1    0.0000
     17 H8         5.9202    7.2221    5.0718 H         1 RES1    0.0000
     18 H9         4.5350    6.9042    4.4149 H         1 RES1    0.0000
     19 C8         5.0284    8.8779    4.2829 C.2       1 RES1    0.0000
     20 C9         6.9148   10.2571    1.6792 C.2       1 RES1    0.0000
     21 O1         6.8318   11.1424    0.8382 O.2       1 RES1    0.0000
     22 N3         7.7639    9.2049    1.6117 N.am      1 RES1    0.0000
     23 H10        7.7367    8.6297    2.2502 H         1 RES1    0.0000
     24 O2         4.0544   11.0394    1.8806 O.3       1 RES1    0.0000
     25 H11        4.3512   11.1576    1.1251 H         1 RES1    0.0000
     26 C10        8.6944    8.9815    0.5659 C.ar      1 RES1    0.0000
     27 C11        9.0348    7.6748    0.2607 C.ar      1 RES1    0.0000
     28 H12        8.6575    6.9732    0.7412 H         1 RES1    0.0000
     29 C12        9.9315    7.4104   -0.7556 C.ar      1 RES1    0.0000
     30 H13       10.1602    6.5316   -0.9542 H         1 RES1    0.0000
     31 C13       10.4877    8.4395   -1.4746 C.ar      1 RES1    0.0000
     32 H14       11.0803    8.2591   -2.1692 H         1 RES1    0.0000
     33 C14       10.1661    9.7257   -1.1639 C.ar      1 RES1    0.0000
     34 H15       10.5463   10.4223   -1.6477 H         1 RES1    0.0000
     35 C15        9.2814   10.0087   -0.1420 C.ar      1 RES1    0.0000
     36 H16        9.0809   10.8924    0.0688 H         1 RES1    0.0000
     37 C16        5.6158   12.7388    2.6387 C.ar      1 RES1    0.0000
     38 C17        6.8571   13.1006    3.1389 C.ar      1 RES1    0.0000
     39 H17        7.4038   12.4536    3.5228 H         1 RES1    0.0000
     40 C18        7.2933   14.4070    3.0757 C.ar      1 RES1    0.0000
     41 H18        8.1208   14.6496    3.4263 H         1 RES1    0.0000
     42 C19        6.4775   15.3438    2.4821 C.ar      1 RES1    0.0000
     43 N4         6.9437   16.7358    2.3800 N.pl3     1 RES1    0.0000
     44 O3         7.9593   17.0530    2.9559 O.2       1 RES1    0.0000
     45 O4         6.2990   17.5210    1.7176 O.2       1 RES1    0.0000
     46 C20        5.2433   15.0179    1.9684 C.ar      1 RES1    0.0000
     47 H19        4.7109   15.6648    1.5667 H         1 RES1    0.0000
     48 C21        4.8163   13.7136    2.0638 C.ar      1 RES1    0.0000
     49 H20        3.9763   13.4817    1.7353 H         1 RES1    0.0000
     50 C22        5.1975   11.7755    5.3143 C.2       1 RES1    0.0000
     51 O5         6.0012   11.1242    5.9194 O.2       1 RES1    0.0000
     52 O6         4.9663   13.0686    5.5278 O.3       1 RES1    0.0000
     53 C23        5.8541   13.7331    6.4754 C.3       1 RES1    0.0000
     54 H21        6.7802   13.5247    6.2734 H         1 RES1    0.0000
     55 H22        5.6618   13.4408    7.3797 H         1 RES1    0.0000
     56 C24        5.6113   15.2062    6.3411 C.3       1 RES1    0.0000
     57 H23        5.7372   15.4689    5.4257 H         1 RES1    0.0000
     58 H24        6.2280   15.6848    6.8992 H         1 RES1    0.0000
     59 H25        4.7124   15.4078    6.6107 H         1 RES1    0.0000
     60 C25        2.7228    9.4793    3.4341 C.2       1 RES1    0.0000
     61 O7         1.7111   10.1119    3.3502 O.2       1 RES1    0.0000
     62 O8         3.0091    8.3973    2.7153 O.3       1 RES1    0.0000
     63 C26        2.1055    8.0988    1.6111 C.3       1 RES1    0.0000
     64 H26        1.3502    7.5825    1.9317 H         1 RES1    0.0000
     65 H27        1.7713    8.9228    1.2250 H         1 RES1    0.0000
     66 C27        2.8151    7.3638    0.6413 C.3       1 RES1    0.0000
     67 H28        3.5695    7.8749    0.3406 H         1 RES1    0.0000
     68 H29        2.2373    7.1780   -0.1032 H         1 RES1    0.0000
     69 H30        3.1193    6.5383    1.0241 H         1 RES1    0.0000
@<TRIPOS>BOND
     1    1    2 1
     2    2    3 1
     3    3    4 1
     4    4    5 1
     5    6    4 1
     6    7    6 1
     7    8    7 1
     8    9    7 1
     9   10    7 1
    10   11   10 1
    11   12   10 1
    12   13   10 1
    13   14   13 1
    14   15   13 1
    15   16   13 1
    16   17   16 1
    17   18   16 1
    18   19    1 2
    19   20    2 1
    20   21   20 2
    21   22   20 1
    22   23   22 1
    23   24    3 1
    24   25   24 1
    25   26   22 1
    26   27   26 ar
    27   28   27 1
    28   29   27 ar
    29   30   29 1
    30   31   29 ar
    31   32   31 1
    32   33   31 ar
    33   34   33 1
    34   35   26 ar
    35   36   35 1
    36   37    3 1
    37   38   37 ar
    38   39   38 1
    39   40   38 ar
    40   41   40 1
    41   42   40 ar
    42   43   42 1
    43   44   43 2
    44   45   43 2
    45   46   42 ar
    46   47   46 1
    47   48   37 ar
    48   49   48 1
    49   50    4 1
    50   51   50 2
    51   52   50 1
    52   53   52 1
    53   54   53 1
    54   55   53 1
    55   56   53 1
    56   57   56 1
    57   58   56 1
    58   59   56 1
    59   60    6 1
    60   61   60 2
    61   62   60 1
    62   63   62 1
    63   64   63 1
    64   65   63 1
    65   66   63 1
    66   67   66 1
    67   68   66 1
    68   69   66 1
    69    6   19 1
    70   16   19 1
    71   33   35 ar
    72   46   48 ar
@<TRIPOS>SUBSTRUCTURE
     1 RES1 1

@<TRIPOS>CRYSIN
  10.6370   11.2190   11.9930  82.6600  68.9400  89.1100   2 1

