# MOL2 file generated by ConQuest
# Please check atom types

@<TRIPOS>MOLECULE
SUTLUP
    64    67     1
SMALL
NO_CHARGES
****
Generated from CSD

@<TRIPOS>ATOM
      1 O1         2.6489    5.6951    6.8728 O.2       1 RES1    0.0000
      2 O2         7.0252   10.3921    3.1186 O.2       1 RES1    0.0000
      3 O3        10.9785    5.7114    0.9108 O.2       1 RES1    0.0000
      4 O4        10.7458    7.7359    0.1841 O.2       1 RES1    0.0000
      5 N1         4.5544    4.6944    7.5934 N.am      1 RES1    0.0000
      6 N2         5.5414    8.7331    3.4744 N.am      1 RES1    0.0000
      7 N3        10.5512    6.8616    1.0247 N.pl3     1 RES1    0.0000
      8 C1         4.3573    5.4431    9.9318 C.ar      1 RES1    0.0000
      9 C2         5.2673    5.1459   10.9468 C.ar      1 RES1    0.0000
     10 H1         5.6218    4.2678   11.0172 H         1 RES1    0.0000
     11 C3         5.6587    6.1139   11.8494 C.ar      1 RES1    0.0000
     12 H2         6.2849    5.9012   12.5310 H         1 RES1    0.0000
     13 C4         5.1458    7.3878   11.7648 C.ar      1 RES1    0.0000
     14 H3         5.4104    8.0512   12.3909 H         1 RES1    0.0000
     15 C5         4.2372    7.7006   10.7582 C.ar      1 RES1    0.0000
     16 H4         3.8939    8.5834   10.6861 H         1 RES1    0.0000
     17 C6         3.8354    6.7302    9.8666 C.ar      1 RES1    0.0000
     18 H5         3.1939    6.9425    9.1994 H         1 RES1    0.0000
     19 C7         3.9540    4.4077    8.9209 C.3       1 RES1    0.0000
     20 H6         4.2480    3.5143    9.2299 H         1 RES1    0.0000
     21 H7         2.9669    4.3946    8.8402 H         1 RES1    0.0000
     22 C8         5.9721    4.4619    7.4780 C.ar      1 RES1    0.0000
     23 C9         6.8595    5.5272    7.5773 C.ar      1 RES1    0.0000
     24 H8         6.5390    6.4145    7.6856 H         1 RES1    0.0000
     25 C10        8.2223    5.2749    7.5154 C.ar      1 RES1    0.0000
     26 H9         8.8398    5.9954    7.5692 H         1 RES1    0.0000
     27 C11        8.6877    3.9798    7.3750 C.ar      1 RES1    0.0000
     28 H10        9.6223    3.8155    7.3275 H         1 RES1    0.0000
     29 C12        7.8006    2.9241    7.3037 C.ar      1 RES1    0.0000
     30 H11        8.1207    2.0326    7.2280 H         1 RES1    0.0000
     31 C13        6.4374    3.1804    7.3447 C.ar      1 RES1    0.0000
     32 H12        5.8208    2.4597    7.2800 H         1 RES1    0.0000
     33 C14        3.8232    5.3759    6.6805 C.2       1 RES1    0.0000
     34 C15        4.4745    5.7266    5.3607 C.ar      1 RES1    0.0000
     35 C16        4.7860    7.0571    5.0934 C.ar      1 RES1    0.0000
     36 C17        5.2326    7.3673    3.7984 C.ar      1 RES1    0.0000
     37 C18        5.3423    6.3942    2.8205 C.ar      1 RES1    0.0000
     38 H13        5.6176    6.6338    1.9431 H         1 RES1    0.0000
     39 C19        5.0523    5.0745    3.1144 C.ar      1 RES1    0.0000
     40 H14        5.1475    4.4019    2.4504 H         1 RES1    0.0000
     41 C20        4.6212    4.7429    4.3953 C.ar      1 RES1    0.0000
     42 H15        4.4254    3.8380    4.6093 H         1 RES1    0.0000
     43 C21        4.6766    8.1223    6.1418 C.3       1 RES1    0.0000
     44 H16        3.9333    8.7217    5.9221 H         1 RES1    0.0000
     45 H17        5.5111    8.6351    6.1751 H         1 RES1    0.0000
     46 H18        4.5132    7.7066    7.0145 H         1 RES1    0.0000
     47 C22        4.4431    9.6964    3.3225 C.3       1 RES1    0.0000
     48 H19        4.4985   10.3696    4.0331 H         1 RES1    0.0000
     49 H20        3.5852    9.2260    3.3847 H         1 RES1    0.0000
     50 H21        4.5124   10.1359    2.4493 H         1 RES1    0.0000
     51 C23        6.8043    9.2013    3.3041 C.2       1 RES1    0.0000
     52 C24        7.9535    8.2271    3.3262 C.ar      1 RES1    0.0000
     53 C25        8.6203    7.9646    2.1262 C.ar      1 RES1    0.0000
     54 C26        9.7785    7.1958    2.2248 C.ar      1 RES1    0.0000
     55 C27       10.2725    6.7091    3.4235 C.ar      1 RES1    0.0000
     56 H22       11.0716    6.1952    3.4412 H         1 RES1    0.0000
     57 C28        9.5897    6.9787    4.5936 C.ar      1 RES1    0.0000
     58 H23        9.9147    6.6516    5.4239 H         1 RES1    0.0000
     59 C29        8.4262    7.7328    4.5463 C.ar      1 RES1    0.0000
     60 H24        7.9474    7.9136    5.3470 H         1 RES1    0.0000
     61 C30        8.0532    8.4604    0.8067 C.3       1 RES1    0.0000
     62 H25        8.4044    9.3551    0.6157 H         1 RES1    0.0000
     63 H26        7.0762    8.4972    0.8654 H         1 RES1    0.0000
     64 H27        8.3149    7.8472    0.0881 H         1 RES1    0.0000
@<TRIPOS>BOND
     1    1   33 2
     2    2   51 2
     3    3    7 2
     4    4    7 2
     5    5   19 1
     6    6   36 1
     7    7   54 1
     8    8    9 ar
     9    9   10 1
    10   11    9 ar
    11   12   11 1
    12   13   11 ar
    13   14   13 1
    14   15   13 ar
    15   16   15 1
    16   17    8 ar
    17   18   17 1
    18   19    8 1
    19   20   19 1
    20   21   19 1
    21   22    5 1
    22   23   22 ar
    23   24   23 1
    24   25   23 ar
    25   26   25 1
    26   27   25 ar
    27   28   27 1
    28   29   27 ar
    29   30   29 1
    30   31   22 ar
    31   32   31 1
    32   33    5 1
    33   34   33 1
    34   35   34 ar
    35   36   35 ar
    36   37   36 ar
    37   38   37 1
    38   39   37 ar
    39   40   39 1
    40   41   34 ar
    41   42   41 1
    42   43   35 1
    43   44   43 1
    44   45   43 1
    45   46   43 1
    46   47    6 1
    47   48   47 1
    48   49   47 1
    49   50   47 1
    50   51    6 1
    51   52   51 1
    52   53   52 ar
    53   54   53 ar
    54   55   54 ar
    55   56   55 1
    56   57   55 ar
    57   58   57 1
    58   59   52 ar
    59   60   59 1
    60   61   53 1
    61   62   61 1
    62   63   61 1
    63   64   61 1
    64   15   17 ar
    65   29   31 ar
    66   39   41 ar
    67   57   59 ar
@<TRIPOS>SUBSTRUCTURE
     1 RES1 1

@<TRIPOS>CRYSIN
   8.8288   12.6940   12.9340 118.7940  91.3810  95.5710   2 1

