# MOL2 file generated by ConQuest
# Please check atom types

@<TRIPOS>MOLECULE
SUTMUQ
   116   120     2
SMALL
NO_CHARGES
****
Generated from CSD

@<TRIPOS>ATOM
      1 O1        24.1000    3.5720    0.4581 O.3       1 RES1    0.0000
      2 O2        22.9601    4.0302    2.3650 O.2       1 RES1    0.0000
      3 O3        18.2623    2.2385   -2.8363 O.2       1 RES1    0.0000
      4 O4        17.1547    3.4120   -1.3863 O.2       1 RES1    0.0000
      5 N1        18.1994    2.9217   -1.8332 N.pl3     1 RES1    0.0000
      6 C1        27.7519    4.5809    0.5898 C.3       1 RES1    0.0000
      7 C2        28.5401    5.4054   -0.4444 C.3       1 RES1    0.0000
      8 H1        29.4984    5.3884   -0.1979 H         1 RES1    0.0000
      9 H2        28.4507    4.9716   -1.3295 H         1 RES1    0.0000
     10 C3        28.0967    6.8463   -0.5661 C.3       1 RES1    0.0000
     11 H3        28.5840    7.2833   -1.3095 H         1 RES1    0.0000
     12 H4        28.3117    7.3324    0.2696 H         1 RES1    0.0000
     13 C4        26.5871    6.9120   -0.8283 C.3       1 RES1    0.0000
     14 H5        26.3982    6.5366   -1.7246 H         1 RES1    0.0000
     15 H6        26.2981    7.8588   -0.8283 H         1 RES1    0.0000
     16 C5        25.7682    6.1333    0.2303 C.3       1 RES1    0.0000
     17 H7        25.9572    6.5267    1.1298 H         1 RES1    0.0000
     18 C6        26.2348    4.6564    0.2328 C.3       1 RES1    0.0000
     19 H8        26.1481    4.3301   -0.7078 H         1 RES1    0.0000
     20 C7        25.4149    3.6954    1.1060 C.3       1 RES1    0.0000
     21 H9        25.3168    4.0592    2.0329 H         1 RES1    0.0000
     22 C8        25.9518    2.2528    1.1441 C.3       1 RES1    0.0000
     23 H10       25.8422    1.8892    0.2191 H         1 RES1    0.0000
     24 C9        27.4528    2.2199    1.4443 C.3       1 RES1    0.0000
     25 H11       27.6080    2.5082    2.3787 H         1 RES1    0.0000
     26 H12       27.7879    1.2941    1.3489 H         1 RES1    0.0000
     27 C10       28.2135    3.1355    0.4968 C.3       1 RES1    0.0000
     28 H13       28.0910    2.8156   -0.4319 H         1 RES1    0.0000
     29 H14       29.1785    3.0893    0.7078 H         1 RES1    0.0000
     30 C11       28.0394    5.1243    1.9886 C.3       1 RES1    0.0000
     31 H15       27.5373    4.6052    2.6503 H         1 RES1    0.0000
     32 H16       27.7678    6.0650    2.0361 H         1 RES1    0.0000
     33 H17       28.9977    5.0516    2.1765 H         1 RES1    0.0000
     34 C12       24.2771    6.3573   -0.0961 C.3       1 RES1    0.0000
     35 H18       24.0794    7.3170   -0.0743 H         1 RES1    0.0000
     36 H19       23.7249    5.8937    0.5668 H         1 RES1    0.0000
     37 H20       24.0813    6.0032   -0.9893 H         1 RES1    0.0000
     38 C13       25.1341    1.3253    2.0754 C.3       1 RES1    0.0000
     39 H21       24.1690    1.4303    1.8320 H         1 RES1    0.0000
     40 C14       25.2732    1.6711    3.5641 C.3       1 RES1    0.0000
     41 H22       24.7279    1.0541    4.0946 H         1 RES1    0.0000
     42 H23       24.9672    2.5896    3.7157 H         1 RES1    0.0000
     43 H24       26.2135    1.5903    3.8318 H         1 RES1    0.0000
     44 C15       25.5055   -0.1423    1.8532 C.3       1 RES1    0.0000
     45 H25       25.4034   -0.3649    0.9044 H         1 RES1    0.0000
     46 H26       24.9162   -0.7130    2.3881 H         1 RES1    0.0000
     47 H27       26.4346   -0.2891    2.1247 H         1 RES1    0.0000
     48 C16       22.9818    3.7501    1.1778 C.2       1 RES1    0.0000
     49 C17       21.7646    3.5621    0.3458 C.ar      1 RES1    0.0000
     50 C18       20.5244    3.8947    0.9088 C.ar      1 RES1    0.0000
     51 H28       20.4856    4.2543    1.7870 H         1 RES1    0.0000
     52 C19       19.3593    3.7031    0.1972 C.ar      1 RES1    0.0000
     53 H29       18.5190    3.9413    0.5680 H         1 RES1    0.0000
     54 C20       19.4457    3.1577   -1.0630 C.ar      1 RES1    0.0000
     55 C21       20.6530    2.8347   -1.6634 C.ar      1 RES1    0.0000
     56 H30       20.6794    2.4774   -2.5435 H         1 RES1    0.0000
     57 C22       21.8148    3.0453   -0.9506 C.ar      1 RES1    0.0000
     58 H31       22.6555    2.8381   -1.3439 H         1 RES1    0.0000
     59 O5        13.4431   10.4908    4.4816 O.3       2 RES2    0.0000
     60 O6        14.1044    9.5015    6.4041 O.2       2 RES2    0.0000
     61 O7        18.1235    6.8969    1.0056 O.2       2 RES2    0.0000
     62 O8        18.3401    5.5500    2.6871 O.2       2 RES2    0.0000
     63 N2        17.8728    6.5398    2.1484 N.pl3     2 RES2    0.0000
     64 C23       10.0489   12.0683    5.2500 C.3       2 RES2    0.0000
     65 C24        8.6883   11.9657    4.5602 C.3       2 RES2    0.0000
     66 H32        8.0416   12.5454    5.0365 H         2 RES2    0.0000
     67 H33        8.7719   12.3040    3.6333 H         2 RES2    0.0000
     68 C25        8.1437   10.5479    4.5216 C.3       2 RES2    0.0000
     69 H34        7.9776   10.2280    5.4435 H         2 RES2    0.0000
     70 H35        7.2860   10.5326    4.0284 H         2 RES2    0.0000
     71 C26        9.1412    9.6416    3.8387 C.3       2 RES2    0.0000
     72 H36        9.2038    9.9024    2.8856 H         2 RES2    0.0000
     73 H37        8.7994    8.7135    3.8724 H         2 RES2    0.0000
     74 C27       10.5583    9.6691    4.4529 C.3       2 RES2    0.0000
     75 H38       10.5082    9.3017    5.3817 H         2 RES2    0.0000
     76 C28       11.0755   11.1261    4.5278 C.3       2 RES2    0.0000
     77 H39       11.1668   11.4548    3.5878 H         2 RES2    0.0000
     78 C29       12.4443   11.3015    5.2025 C.3       2 RES2    0.0000
     79 H40       12.3916   11.0014    6.1544 H         2 RES2    0.0000
     80 C30       12.9779   12.7534    5.1426 C.3       2 RES2    0.0000
     81 H41       13.1020   12.9777    4.1764 H         2 RES2    0.0000
     82 C31       11.9342   13.7282    5.6956 C.3       2 RES2    0.0000
     83 H42       11.8760   13.6177    6.6781 H         2 RES2    0.0000
     84 H43       12.2245   14.6564    5.5109 H         2 RES2    0.0000
     85 C32       10.5558   13.5049    5.0833 C.3       2 RES2    0.0000
     86 H44       10.5927   13.7230    4.1183 H         2 RES2    0.0000
     87 H45        9.9116   14.1244    5.5071 H         2 RES2    0.0000
     88 C33        9.8985   11.7201    6.7393 C.3       2 RES2    0.0000
     89 H46        9.2580   12.3334    7.1550 H         2 RES2    0.0000
     90 H47       10.7687   11.8057    7.1843 H         2 RES2    0.0000
     91 H48        9.5744   10.7993    6.8285 H         2 RES2    0.0000
     92 C34       11.4292    8.7270    3.6003 C.3       2 RES2    0.0000
     93 H49       12.3424    8.7164    3.9554 H         2 RES2    0.0000
     94 H50       11.4423    9.0448    2.6734 H         2 RES2    0.0000
     95 H51       11.0568    7.8209    3.6296 H         2 RES2    0.0000
     96 C35       14.3558   12.9076    5.8223 C.3       2 RES2    0.0000
     97 H52       14.9399   12.1776    5.4684 H         2 RES2    0.0000
     98 C36       15.0073   14.2404    5.4229 C.3       2 RES2    0.0000
     99 H53       15.8815   14.3209    5.8592 H         2 RES2    0.0000
    100 H54       14.4319   14.9820    5.7037 H         2 RES2    0.0000
    101 H55       15.1244   14.2676    4.4504 H         2 RES2    0.0000
    102 C37       14.3230   12.7589    7.3366 C.3       2 RES2    0.0000
    103 H56       15.2299   12.8612    7.6949 H         2 RES2    0.0000
    104 H57       13.9766   11.8716    7.5707 H         2 RES2    0.0000
    105 H58       13.7401   13.4479    7.7198 H         2 RES2    0.0000
    106 C38       14.1764    9.6496    5.2063 C.2       2 RES2    0.0000
    107 C39       15.1410    8.8640    4.3574 C.ar      2 RES2    0.0000
    108 C40       15.4428    9.2252    3.0616 C.ar      2 RES2    0.0000
    109 H59       15.0276    9.9838    2.6684 H         2 RES2    0.0000
    110 C41       16.3567    8.4738    2.3338 C.ar      2 RES2    0.0000
    111 H60       16.5971    8.7234    1.4487 H         2 RES2    0.0000
    112 C42       16.9041    7.3660    2.9212 C.ar      2 RES2    0.0000
    113 C43       16.6221    6.9670    4.2082 C.ar      2 RES2    0.0000
    114 H61       17.0185    6.1899    4.5833 H         2 RES2    0.0000
    115 C44       15.7322    7.7491    4.9373 C.ar      2 RES2    0.0000
    116 H62       15.5284    7.5191    5.8361 H         2 RES2    0.0000
@<TRIPOS>BOND
     1    1   20 1
     2    2   48 2
     3    3    5 2
     4    4    5 2
     5    5   54 1
     6    6    7 1
     7    7    8 1
     8    9    7 1
     9   10    7 1
    10   11   10 1
    11   12   10 1
    12   13   10 1
    13   14   13 1
    14   15   13 1
    15   16   13 1
    16   17   16 1
    17   18    6 1
    18   19   18 1
    19   20   18 1
    20   21   20 1
    21   22   20 1
    22   23   22 1
    23   24   22 1
    24   25   24 1
    25   26   24 1
    26   27    6 1
    27   28   27 1
    28   29   27 1
    29   30    6 1
    30   31   30 1
    31   32   30 1
    32   33   30 1
    33   34   16 1
    34   35   34 1
    35   36   34 1
    36   37   34 1
    37   38   22 1
    38   39   38 1
    39   40   38 1
    40   41   40 1
    41   42   40 1
    42   43   40 1
    43   44   38 1
    44   45   44 1
    45   46   44 1
    46   47   44 1
    47   48    1 1
    48   49   48 1
    49   50   49 ar
    50   51   50 1
    51   52   50 ar
    52   53   52 1
    53   54   52 ar
    54   55   54 ar
    55   56   55 1
    56   57   49 ar
    57   58   57 1
    58   59   78 1
    59   60  106 2
    60   61   63 2
    61   62   63 2
    62   63  112 1
    63   64   65 1
    64   65   66 1
    65   67   65 1
    66   68   65 1
    67   69   68 1
    68   70   68 1
    69   71   68 1
    70   72   71 1
    71   73   71 1
    72   74   71 1
    73   75   74 1
    74   76   64 1
    75   77   76 1
    76   78   76 1
    77   79   78 1
    78   80   78 1
    79   81   80 1
    80   82   80 1
    81   83   82 1
    82   84   82 1
    83   85   64 1
    84   86   85 1
    85   87   85 1
    86   88   64 1
    87   89   88 1
    88   90   88 1
    89   91   88 1
    90   92   74 1
    91   93   92 1
    92   94   92 1
    93   95   92 1
    94   96   80 1
    95   97   96 1
    96   98   96 1
    97   99   98 1
    98  100   98 1
    99  101   98 1
   100  102   96 1
   101  103  102 1
   102  104  102 1
   103  105  102 1
   104  106   59 1
   105  107  106 1
   106  108  107 ar
   107  109  108 1
   108  110  108 ar
   109  111  110 1
   110  112  110 ar
   111  113  112 ar
   112  114  113 1
   113  115  107 ar
   114  116  115 1
   115   16   18 1
   116   24   27 1
   117   55   57 ar
   118   74   76 1
   119   82   85 1
   120  113  115 ar
@<TRIPOS>SUBSTRUCTURE
     1 RES1 1
     2 RES2 59

@<TRIPOS>CRYSIN
  23.3870   14.0360    6.2418  90.0000  90.1200  90.0000   4 1

