# MOL2 file generated by ConQuest
# Please check atom types

@<TRIPOS>MOLECULE
SUTNAX
   116   120     2
SMALL
NO_CHARGES
****
Generated from CSD

@<TRIPOS>ATOM
      1 O1         2.0948   -8.6867    4.7662 O.3       1 RES1    0.0000
      2 O2        -4.4032    8.1272    8.8099 O.3       2 RES2    0.0000
      3 O3         0.3839   -9.6235    5.8865 O.2       1 RES1    0.0000
      4 O4        -2.6837    8.7715    7.5125 O.2       2 RES2    0.0000
      5 O5         6.5523  -11.6083    9.1041 O.2       1 RES1    0.0000
      6 O6        -7.2468   11.6848    3.2336 O.2       2 RES2    0.0000
      7 O7        -8.8602   10.7843    4.3328 O.2       2 RES2    0.0000
      8 O8         4.9900  -12.9221    9.8053 O.2       1 RES1    0.0000
      9 N1        -7.6689   10.9931    4.1427 N.pl3     2 RES2    0.0000
     10 N2         5.3812  -11.9989    9.1006 N.pl3     1 RES1    0.0000
     11 C1        -3.9755    5.1047    9.2907 C.3       2 RES2    0.0000
     12 H1        -4.4883    5.0702   10.1487 H         2 RES2    0.0000
     13 C2         1.5912   -9.3079    1.7683 C.3       1 RES1    0.0000
     14 H2         2.0493   -8.5155    1.3654 H         1 RES1    0.0000
     15 C3        -3.3011    3.7457    9.0816 C.3       2 RES2    0.0000
     16 H3        -3.9966    3.0414    9.1006 H         2 RES2    0.0000
     17 H4        -2.8881    3.7336    8.1820 H         2 RES2    0.0000
     18 C4         0.8724  -10.0629    0.6441 C.3       1 RES1    0.0000
     19 H5         1.5389  -10.3484   -0.0297 H         1 RES1    0.0000
     20 H6         0.4519  -10.8769    1.0184 H         1 RES1    0.0000
     21 C5        -0.1952   -9.2221   -0.0404 C.3       1 RES1    0.0000
     22 H7        -0.6584   -9.7625   -0.7285 H         1 RES1    0.0000
     23 H8         0.2254   -8.4454   -0.4884 H         1 RES1    0.0000
     24 C6        -2.2458    3.4059   10.0988 C.3       2 RES2    0.0000
     25 H9        -1.8243    2.5400    9.8683 H         2 RES2    0.0000
     26 H10       -2.6599    3.3184   10.9948 H         2 RES2    0.0000
     27 C7        -1.2108   -8.7319    1.0077 C.3       1 RES1    0.0000
     28 H11       -1.8765   -8.1524    0.5597 H         1 RES1    0.0000
     29 H12       -1.6934   -9.5160    1.3738 H         1 RES1    0.0000
     30 C8        -1.1879    4.5037   10.1261 C.3       2 RES2    0.0000
     31 H13       -0.7192    4.5157    9.2539 H         2 RES2    0.0000
     32 H14       -0.5189    4.2853   10.8225 H         2 RES2    0.0000
     33 C9        -0.5826   -7.9558    2.1676 C.3       1 RES1    0.0000
     34 C10       -1.7536    5.9073   10.4054 C.3       2 RES2    0.0000
     35 C11       -2.2798    5.9997   11.8528 C.3       2 RES2    0.0000
     36 H15       -2.9195    5.2604   12.0085 H         2 RES2    0.0000
     37 H16       -1.5215    5.8789   12.4779 H         2 RES2    0.0000
     38 C12       -0.0289   -6.6021    1.7089 C.3       1 RES1    0.0000
     39 H17       -0.7794   -6.0461    1.3821 H         1 RES1    0.0000
     40 H18        0.5869   -6.7526    0.9471 H         1 RES1    0.0000
     41 C13       -2.9731    7.3259   12.1666 C.3       2 RES2    0.0000
     42 H19       -2.3045    8.0553   12.1404 H         2 RES2    0.0000
     43 H20       -3.3463    7.2886   13.0828 H         2 RES2    0.0000
     44 C14        0.7212   -5.8251    2.8022 C.3       1 RES1    0.0000
     45 H21        1.1336   -5.0187    2.4017 H         1 RES1    0.0000
     46 H22        0.0736   -5.5252    3.4879 H         1 RES1    0.0000
     47 C15        1.8109   -6.6650    3.4736 C.3       1 RES1    0.0000
     48 H23        2.4673   -6.9198    2.7630 H         1 RES1    0.0000
     49 C16       -4.0992    7.6403   11.1778 C.3       2 RES2    0.0000
     50 H24       -4.7577    6.8887   11.2194 H         2 RES2    0.0000
     51 C17        1.1338   -7.9479    3.9442 C.3       1 RES1    0.0000
     52 H25        0.3736   -7.6851    4.5372 H         1 RES1    0.0000
     53 C18       -3.4553    7.6151    9.7958 C.3       2 RES2    0.0000
     54 H26       -2.6809    8.2473    9.8183 H         2 RES2    0.0000
     55 C19        0.5587   -8.7869    2.8129 C.3       1 RES1    0.0000
     56 H27        0.1354   -9.5909    3.2300 H         1 RES1    0.0000
     57 C20       -2.9036    6.2341    9.4072 C.3       2 RES2    0.0000
     58 H28       -2.4859    6.3327    8.5040 H         2 RES2    0.0000
     59 C21        2.6566  -10.2121    2.3672 C.3       1 RES1    0.0000
     60 H29        3.2908  -10.4772    1.6697 H         1 RES1    0.0000
     61 H30        2.2324  -11.0121    2.7428 H         1 RES1    0.0000
     62 H31        3.1326   -9.7319    3.0767 H         1 RES1    0.0000
     63 C22       -4.9604    5.3243    8.1594 C.3       2 RES2    0.0000
     64 H32       -5.3670    6.2115    8.2473 H         2 RES2    0.0000
     65 H33       -5.6604    4.6387    8.1974 H         2 RES2    0.0000
     66 H34       -4.4902    5.2637    7.3014 H         2 RES2    0.0000
     67 C23       -0.5889    6.8900   10.2093 C.3       2 RES2    0.0000
     68 H35       -0.8816    7.7954   10.4446 H         2 RES2    0.0000
     69 H36       -0.3006    6.8735    9.2717 H         2 RES2    0.0000
     70 H37        0.1595    6.6293   10.7857 H         2 RES2    0.0000
     71 C24       -1.7233   -7.7282    3.1765 C.3       1 RES1    0.0000
     72 H38       -1.3834   -7.2262    3.9466 H         1 RES1    0.0000
     73 H39       -2.0697   -8.5936    3.4784 H         1 RES1    0.0000
     74 H40       -2.4430   -7.2204    2.7475 H         1 RES1    0.0000
     75 C25       -4.8600    8.9440   11.4939 C.3       2 RES2    0.0000
     76 H41       -5.4824    9.1233   10.7322 H         2 RES2    0.0000
     77 C26        2.5911   -5.9314    4.5681 C.3       1 RES1    0.0000
     78 H42        3.2861   -6.5699    4.8985 H         1 RES1    0.0000
     79 C27        1.7518   -5.5402    5.7791 C.3       1 RES1    0.0000
     80 H43        1.2810   -6.3296    6.1189 H         1 RES1    0.0000
     81 H44        1.0988   -4.8583    5.5176 H         1 RES1    0.0000
     82 H45        2.3361   -5.1826    6.4790 H         1 RES1    0.0000
     83 C28       -3.9416   10.1620   11.6366 C.3       2 RES2    0.0000
     84 H46       -4.4811   10.9595   11.8184 H         2 RES2    0.0000
     85 H47       -3.4386   10.2908   10.8059 H         2 RES2    0.0000
     86 H48       -3.3164   10.0145   12.3781 H         2 RES2    0.0000
     87 C29        3.3400   -4.7218    4.0179 C.3       1 RES1    0.0000
     88 H49        3.9230   -5.0054    3.2823 H         1 RES1    0.0000
     89 H50        3.8831   -4.3215    4.7297 H         1 RES1    0.0000
     90 H51        2.6965   -4.0610    3.6875 H         1 RES1    0.0000
     91 C30       -5.7155    8.7912   12.7655 C.3       2 RES2    0.0000
     92 H52       -6.1738    9.6363   12.9556 H         2 RES2    0.0000
     93 H53       -5.1375    8.5570   13.5225 H         2 RES2    0.0000
     94 H54       -6.3795    8.0833   12.6300 H         2 RES2    0.0000
     95 C31        1.5723   -9.4584    5.7173 C.2       1 RES1    0.0000
     96 C32       -3.8854    8.7027    7.7149 C.2       2 RES2    0.0000
     97 C33        2.6032  -10.1052    6.5717 C.ar      1 RES1    0.0000
     98 C34       -4.9063    9.2617    6.8070 C.ar      2 RES2    0.0000
     99 C35        3.9731   -9.9030    6.3756 C.ar      1 RES1    0.0000
    100 H55        4.2730   -9.3480    5.6650 H         1 RES1    0.0000
    101 C36       -6.2727    9.2234    7.0958 C.ar      2 RES2    0.0000
    102 H56       -6.5782    8.8148    7.8967 H         2 RES2    0.0000
    103 C37       -7.1776    9.7780    6.2176 C.ar      2 RES2    0.0000
    104 H57       -8.1093    9.7376    6.3982 H         2 RES2    0.0000
    105 C38        4.8955  -10.5101    7.2134 C.ar      1 RES1    0.0000
    106 H58        5.8283  -10.3683    7.0958 H         1 RES1    0.0000
    107 C39       -6.7136   10.3952    5.0720 C.ar      2 RES2    0.0000
    108 C40        4.4220  -11.3310    8.2295 C.ar      1 RES1    0.0000
    109 C41       -5.3542   10.4475    4.7666 C.ar      2 RES2    0.0000
    110 H59       -5.0520   10.8788    3.9763 H         2 RES2    0.0000
    111 C42        3.0783  -11.5445    8.4363 C.ar      1 RES1    0.0000
    112 H60        2.7834  -12.1129    9.1374 H         1 RES1    0.0000
    113 C43       -4.4658    9.8672    5.6258 C.ar      2 RES2    0.0000
    114 H61       -3.5390    9.8753    5.4190 H         2 RES2    0.0000
    115 C44        2.1670  -10.9229    7.6092 C.ar      1 RES1    0.0000
    116 H62        1.2360  -11.0532    7.7482 H         1 RES1    0.0000
@<TRIPOS>BOND
     1    1   51 1
     2    2   53 1
     3    3   95 2
     4    4   96 2
     5    5   10 2
     6    6    9 2
     7    7    9 2
     8    8   10 2
     9    9  107 1
    10   10  108 1
    11   11   12 1
    12   13   14 1
    13   15   11 1
    14   16   15 1
    15   17   15 1
    16   18   13 1
    17   19   18 1
    18   20   18 1
    19   21   18 1
    20   22   21 1
    21   23   21 1
    22   24   15 1
    23   25   24 1
    24   26   24 1
    25   27   21 1
    26   28   27 1
    27   29   27 1
    28   30   24 1
    29   31   30 1
    30   32   30 1
    31   33   27 1
    32   34   30 1
    33   35   34 1
    34   36   35 1
    35   37   35 1
    36   38   33 1
    37   39   38 1
    38   40   38 1
    39   41   35 1
    40   42   41 1
    41   43   41 1
    42   44   38 1
    43   45   44 1
    44   46   44 1
    45   47   44 1
    46   48   47 1
    47   49   41 1
    48   50   49 1
    49   51   47 1
    50   52   51 1
    51   53   49 1
    52   54   53 1
    53   55   13 1
    54   56   55 1
    55   57   11 1
    56   58   57 1
    57   59   13 1
    58   60   59 1
    59   61   59 1
    60   62   59 1
    61   63   11 1
    62   64   63 1
    63   65   63 1
    64   66   63 1
    65   67   34 1
    66   68   67 1
    67   69   67 1
    68   70   67 1
    69   71   33 1
    70   72   71 1
    71   73   71 1
    72   74   71 1
    73   75   49 1
    74   76   75 1
    75   77   47 1
    76   78   77 1
    77   79   77 1
    78   80   79 1
    79   81   79 1
    80   82   79 1
    81   83   75 1
    82   84   83 1
    83   85   83 1
    84   86   83 1
    85   87   77 1
    86   88   87 1
    87   89   87 1
    88   90   87 1
    89   91   75 1
    90   92   91 1
    91   93   91 1
    92   94   91 1
    93   95    1 1
    94   96    2 1
    95   97   95 1
    96   98   96 1
    97   99   97 ar
    98  100   99 1
    99  101   98 ar
   100  102  101 1
   101  103  101 ar
   102  104  103 1
   103  105   99 ar
   104  106  105 1
   105  107  103 ar
   106  108  105 ar
   107  109  107 ar
   108  110  109 1
   109  111  108 ar
   110  112  111 1
   111  113   98 ar
   112  114  113 1
   113  115   97 ar
   114  116  115 1
   115   33   55 1
   116   34   57 1
   117   51   55 1
   118   53   57 1
   119  109  113 ar
   120  111  115 ar
@<TRIPOS>SUBSTRUCTURE
     1 RES1 1
     2 RES2 2

@<TRIPOS>CRYSIN
   7.3091   12.0814   12.2690  90.3800 103.8790 103.7240   1 1

