# MOL2 file generated by ConQuest
# Please check atom types

@<TRIPOS>MOLECULE
SUTTUY
    46    49     1
SMALL
NO_CHARGES
****
Generated from CSD

@<TRIPOS>ATOM
      1 N1         0.3151   -0.3021   -2.8374 N.pl3     1 RES1    0.0000
      2 O1         4.9704    3.1344   -0.1981 O.3       1 RES1    0.0000
      3 O2         5.6293    3.2965   -2.3450 O.2       1 RES1    0.0000
      4 O3         0.1191   -0.5475   -4.0231 O.2       1 RES1    0.0000
      5 O4        -0.3967   -0.7199   -1.9307 O.2       1 RES1    0.0000
      6 C1         7.3896    4.6405    2.2370 C.3       1 RES1    0.0000
      7 C2         7.3429    5.3908    3.5577 C.3       1 RES1    0.0000
      8 C3         7.4474    6.1422    2.2624 C.3       1 RES1    0.0000
      9 C4         6.1484    3.9498    1.7217 C.3       1 RES1    0.0000
     10 C5         6.1828    3.8368    0.2089 C.3       1 RES1    0.0000
     11 C6         4.8429    2.9092   -1.5127 C.2       1 RES1    0.0000
     12 C7         3.6221    2.1053   -1.8298 C.ar      1 RES1    0.0000
     13 C8         3.4538    1.6706   -3.1439 C.ar      1 RES1    0.0000
     14 C9         2.3731    0.8776   -3.4851 C.ar      1 RES1    0.0000
     15 C10        1.4698    0.5422   -2.4858 C.ar      1 RES1    0.0000
     16 C11        1.5968    0.9740   -1.1781 C.ar      1 RES1    0.0000
     17 C12        2.6876    1.7618   -0.8515 C.ar      1 RES1    0.0000
     18 C13        6.1213    5.3999    4.4288 C.ar      1 RES1    0.0000
     19 C14        5.0466    6.2290    4.2420 C.ar      1 RES1    0.0000
     20 C15        3.9317    6.2274    5.1364 C.ar      1 RES1    0.0000
     21 C16        2.8098    7.0764    4.9595 C.ar      1 RES1    0.0000
     22 C17        1.7818    7.0786    5.8665 C.ar      1 RES1    0.0000
     23 C18        1.8213    6.2262    6.9973 C.ar      1 RES1    0.0000
     24 C19        2.8787    5.3835    7.1880 C.ar      1 RES1    0.0000
     25 C20        3.9594    5.3591    6.2626 C.ar      1 RES1    0.0000
     26 C21        5.0672    4.4891    6.4238 C.ar      1 RES1    0.0000
     27 C22        6.1025    4.5013    5.5300 C.ar      1 RES1    0.0000
     28 H1         8.2401    4.1482    2.0558 H         1 RES1    0.0000
     29 H2         8.2192    5.3359    4.0748 H         1 RES1    0.0000
     30 H3         8.3336    6.6021    2.0362 H         1 RES1    0.0000
     31 H4         6.6332    6.6109    1.9482 H         1 RES1    0.0000
     32 H5         5.4348    4.5752    1.7612 H         1 RES1    0.0000
     33 H6         6.0558    2.9954    2.1694 H         1 RES1    0.0000
     34 H7         6.2068    4.7158   -0.2090 H         1 RES1    0.0000
     35 H8         6.9771    3.3238   -0.0758 H         1 RES1    0.0000
     36 H9         4.0896    1.9125   -3.8108 H         1 RES1    0.0000
     37 H10        2.2283    0.5589   -4.3938 H         1 RES1    0.0000
     38 H11        0.9756    0.6986   -0.5500 H         1 RES1    0.0000
     39 H12        2.8030    2.0610    0.0721 H         1 RES1    0.0000
     40 H13        5.0077    6.8117    3.5163 H         1 RES1    0.0000
     41 H14        2.7900    7.6501    4.1518 H         1 RES1    0.0000
     42 H15        1.0102    7.6501    5.7383 H         1 RES1    0.0000
     43 H16        1.1102    6.2266    7.6180 H         1 RES1    0.0000
     44 H17        2.9011    4.7595    7.9382 H         1 RES1    0.0000
     45 H18        5.0973    3.9037    7.1768 H         1 RES1    0.0000
     46 H19        6.8380    3.8775    5.6600 H         1 RES1    0.0000
@<TRIPOS>BOND
     1    1    4 2
     2    2   10 1
     3    3   11 2
     4    5    1 2
     5    6    7 1
     6    7    8 1
     7    8    6 1
     8    9    6 1
     9   10    9 1
    10   11    2 1
    11   12   11 1
    12   13   12 ar
    13   14   13 ar
    14   15    1 1
    15   16   15 ar
    16   17   12 ar
    17   18    7 1
    18   19   18 ar
    19   20   19 ar
    20   21   20 ar
    21   22   21 ar
    22   23   22 ar
    23   24   23 ar
    24   25   20 ar
    25   26   25 ar
    26   27   18 ar
    27   28    6 1
    28   29    7 1
    29   30    8 1
    30   31    8 1
    31   32    9 1
    32   33    9 1
    33   34   10 1
    34   35   10 1
    35   36   13 1
    36   37   14 1
    37   38   16 1
    38   39   17 1
    39   40   19 1
    40   41   21 1
    41   42   22 1
    42   43   23 1
    43   44   24 1
    44   45   26 1
    45   46   27 1
    46   14   15 ar
    47   16   17 ar
    48   24   25 ar
    49   26   27 ar
@<TRIPOS>SUBSTRUCTURE
     1 RES1 1

@<TRIPOS>CRYSIN
  16.4673    8.7330   12.2472  90.0000  93.6709  90.0000  14 1

