# MOL2 file generated by ConQuest
# Please check atom types

@<TRIPOS>MOLECULE
SUTWEJ
   118   122     1
SMALL
NO_CHARGES
****
Generated from CSD

@<TRIPOS>ATOM
      1 O1        -2.3432    8.9286    6.3318 O.3       1 RES1    0.0000
      2 O2        -3.8862    7.7314    7.4136 O.2       1 RES1    0.0000
      3 N1        -4.3478    8.5489    5.3332 N.am      1 RES1    0.0000
      4 O3         2.3978   11.1593    5.6913 O.3       1 RES1    0.0000
      5 O4         3.8657    8.9812    4.2393 O.3       1 RES1    0.0000
      6 O5         1.3983    6.3671    4.0570 O.3       1 RES1    0.0000
      7 O6         4.0801   10.4564    6.9994 O.2       1 RES1    0.0000
      8 N2         3.8944   15.7373    4.1018 N.pl3     1 RES1    0.0000
      9 O7         2.6764   15.7561    3.9420 O.2       1 RES1    0.0000
     10 O8         4.6181   16.6111    3.6400 O.2       1 RES1    0.0000
     11 N3         7.5894   14.0478    6.7750 N.pl3     1 RES1    0.0000
     12 O9         8.0810   15.1641    6.7488 O.2       1 RES1    0.0000
     13 O10        8.1247   13.0743    7.2603 O.2       1 RES1    0.0000
     14 O11        5.2408    7.5529    5.3342 O.2       1 RES1    0.0000
     15 N4         6.7265   12.7849    2.6619 N.pl3     1 RES1    0.0000
     16 O12        5.7187   12.8958    2.0392 O.2       1 RES1    0.0000
     17 O13        7.5567   13.6775    2.8461 O.2       1 RES1    0.0000
     18 N5         9.8234    9.7630    5.0228 N.pl3     1 RES1    0.0000
     19 O14        9.9381    8.7914    5.7185 O.2       1 RES1    0.0000
     20 O15       10.7356   10.4433    4.5862 O.2       1 RES1    0.0000
     21 C1        -1.4474    8.6579    7.3369 C.2       1 RES1    0.0000
     22 H1        -1.6468    8.0190    7.9821 H         1 RES1    0.0000
     23 C2        -3.6213    8.3873    6.4328 C.2       1 RES1    0.0000
     24 C3        -0.2840    9.3194    7.3837 C.2       1 RES1    0.0000
     25 H2         0.2977    9.0394    8.0541 H         1 RES1    0.0000
     26 C4         0.2239   10.4207    6.5431 C.3       1 RES1    0.0000
     27 H3        -0.3933   10.5410    5.7914 H         1 RES1    0.0000
     28 C5         0.2758   11.6968    7.3089 C.3       1 RES1    0.0000
     29 H4         0.6036   12.3977    6.7404 H         1 RES1    0.0000
     30 H5         0.8603   11.5934    8.0625 H         1 RES1    0.0000
     31 H6        -0.6063   11.9204    7.6165 H         1 RES1    0.0000
     32 C6         1.5949    9.9847    5.9756 C.3       1 RES1    0.0000
     33 H7         2.0537    9.4811    6.6806 H         1 RES1    0.0000
     34 C7         1.5266    9.1014    4.7750 C.3       1 RES1    0.0000
     35 H8         0.7619    8.5095    4.9321 H         1 RES1    0.0000
     36 C8         1.1880    9.8682    3.5006 C.3       1 RES1    0.0000
     37 H9         1.1552    9.2593    2.7592 H         1 RES1    0.0000
     38 H10        1.8598   10.5354    3.3398 H         1 RES1    0.0000
     39 H11        0.3332   10.2948    3.6007 H         1 RES1    0.0000
     40 C9         2.7092    8.1956    4.6273 C.3       1 RES1    0.0000
     41 H12        2.8921    7.7803    5.4959 H         1 RES1    0.0000
     42 C10        2.5262    7.0850    3.5848 C.3       1 RES1    0.0000
     43 H13        2.3569    7.4589    2.7050 H         1 RES1    0.0000
     44 H14        3.3100    6.5155    3.5418 H         1 RES1    0.0000
     45 C11        1.1252    5.0422    3.5221 C.3       1 RES1    0.0000
     46 C12       -0.2949    4.7509    3.8943 C.ar      1 RES1    0.0000
     47 C13       -0.8521    5.3241    5.0060 C.ar      1 RES1    0.0000
     48 H15       -0.3305    5.9029    5.5146 H         1 RES1    0.0000
     49 C14       -2.1575    5.0816    5.4099 C.ar      1 RES1    0.0000
     50 H16       -2.4961    5.4763    6.1813 H         1 RES1    0.0000
     51 C15       -2.9304    4.2585    4.6563 C.ar      1 RES1    0.0000
     52 H17       -3.8125    4.1044    4.9078 H         1 RES1    0.0000
     53 C16       -2.4415    3.6534    3.5390 C.ar      1 RES1    0.0000
     54 H18       -2.9713    3.0764    3.0369 H         1 RES1    0.0000
     55 C17       -1.0951    3.9202    3.1566 C.ar      1 RES1    0.0000
     56 H19       -0.7538    3.5237    2.3880 H         1 RES1    0.0000
     57 C18        2.0182    3.9935    4.1449 C.ar      1 RES1    0.0000
     58 C19        2.9194    4.2961    5.1332 C.ar      1 RES1    0.0000
     59 H20        3.0096    5.1831    5.4015 H         1 RES1    0.0000
     60 C20        3.7087    3.3245    5.7512 C.ar      1 RES1    0.0000
     61 H21        4.3041    3.5613    6.4234 H         1 RES1    0.0000
     62 C21        3.5940    2.0315    5.3641 C.ar      1 RES1    0.0000
     63 H22        4.1020    1.3719    5.7774 H         1 RES1    0.0000
     64 C22        2.7283    1.7064    4.3608 C.ar      1 RES1    0.0000
     65 H23        2.6627    0.8213    4.0841 H         1 RES1    0.0000
     66 C23        1.9636    2.6573    3.7587 C.ar      1 RES1    0.0000
     67 H24        1.3873    2.4074    3.0724 H         1 RES1    0.0000
     68 C24        1.2754    5.1324    2.0131 C.ar      1 RES1    0.0000
     69 C25        0.3823    5.8221    1.2183 C.ar      1 RES1    0.0000
     70 H25       -0.3359    6.2468    1.6316 H         1 RES1    0.0000
     71 C26        0.4943    5.9217   -0.1618 C.ar      1 RES1    0.0000
     72 H26       -0.1557    6.3746   -0.6489 H         1 RES1    0.0000
     73 C27        1.5703    5.3428   -0.8106 C.ar      1 RES1    0.0000
     74 H27        1.6468    5.3861   -1.7372 H         1 RES1    0.0000
     75 C28        2.5262    4.7039   -0.0589 C.ar      1 RES1    0.0000
     76 H28        3.2827    4.3412   -0.4600 H         1 RES1    0.0000
     77 C29        2.3377    4.6099    1.3053 C.ar      1 RES1    0.0000
     78 H29        2.9877    4.1551    1.7924 H         1 RES1    0.0000
     79 C30        3.5721   11.2908    6.3243 C.2       1 RES1    0.0000
     80 C31        4.2631   12.5838    5.9401 C.ar      1 RES1    0.0000
     81 C32        3.7142   13.5498    5.1706 C.ar      1 RES1    0.0000
     82 H30        2.8566   13.4577    4.8209 H         1 RES1    0.0000
     83 C33        4.4816   14.6886    4.9218 C.ar      1 RES1    0.0000
     84 C34        5.7378   14.8916    5.4389 C.ar      1 RES1    0.0000
     85 H31        6.2212   15.6677    5.2631 H         1 RES1    0.0000
     86 C35        6.2349   13.9049    6.2168 C.ar      1 RES1    0.0000
     87 C36        5.5412   12.7172    6.5198 C.ar      1 RES1    0.0000
     88 H32        5.9044   12.0595    7.0686 H         1 RES1    0.0000
     89 C37        5.0687    8.5640    4.6872 C.2       1 RES1    0.0000
     90 C38        6.1311    9.4923    4.3440 C.ar      1 RES1    0.0000
     91 C39        5.9235   10.6594    3.6559 C.ar      1 RES1    0.0000
     92 H33        5.0660   10.8661    3.3613 H         1 RES1    0.0000
     93 C40        6.9750   11.5502    3.3847 C.ar      1 RES1    0.0000
     94 C41        8.2667   11.2796    3.8466 C.ar      1 RES1    0.0000
     95 H34        8.9631   11.8791    3.7157 H         1 RES1    0.0000
     96 C42        8.4579   10.1031    4.4945 C.ar      1 RES1    0.0000
     97 C43        7.4229    9.2142    4.7713 C.ar      1 RES1    0.0000
     98 H35        7.5976    8.4324    5.2435 H         1 RES1    0.0000
     99 C44       -3.8152    9.2086    4.1056 C.3       1 RES1    0.0000
    100 H36       -4.5280    9.1278    3.4361 H         1 RES1    0.0000
    101 C45       -2.6491    8.4813    3.5334 C.3       1 RES1    0.0000
    102 H37       -2.8676    7.5529    3.4286 H         1 RES1    0.0000
    103 H38       -1.8953    8.5677    4.1243 H         1 RES1    0.0000
    104 H39       -2.4279    8.8571    2.6769 H         1 RES1    0.0000
    105 C46       -3.5995   10.6594    4.2786 C.3       1 RES1    0.0000
    106 H40       -4.3942   11.0597    4.6367 H         1 RES1    0.0000
    107 H41       -3.3946   11.0559    3.4286 H         1 RES1    0.0000
    108 H42       -2.8675   10.8022    4.8835 H         1 RES1    0.0000
    109 C47       -5.7187    8.0152    5.3753 C.3       1 RES1    0.0000
    110 H43       -5.8170    7.6093    6.2617 H         1 RES1    0.0000
    111 C48       -6.7592    9.1428    5.3136 C.3       1 RES1    0.0000
    112 H44       -6.5544    9.8043    5.9793 H         1 RES1    0.0000
    113 H45       -7.6331    8.7820    5.4800 H         1 RES1    0.0000
    114 H46       -6.7401    9.5487    4.4441 H         1 RES1    0.0000
    115 C49       -5.9290    6.8952    4.3917 C.3       1 RES1    0.0000
    116 H47       -5.2517    6.2261    4.5198 H         1 RES1    0.0000
    117 H48       -5.8717    7.2391    3.4978 H         1 RES1    0.0000
    118 H49       -6.7947    6.5043    4.5310 H         1 RES1    0.0000
@<TRIPOS>BOND
     1    1   21 1
     2    2   23 2
     3    3   23 1
     4    4   32 1
     5    5   40 1
     6    6   42 1
     7    7   79 2
     8    8    9 2
     9   10    8 2
    10   11   12 2
    11   13   11 2
    12   14   89 2
    13   15   16 2
    14   17   15 2
    15   18   19 2
    16   20   18 2
    17   21   22 1
    18   23    1 1
    19   24   21 2
    20   25   24 1
    21   26   24 1
    22   27   26 1
    23   28   26 1
    24   29   28 1
    25   30   28 1
    26   31   28 1
    27   32   26 1
    28   33   32 1
    29   34   32 1
    30   35   34 1
    31   36   34 1
    32   37   36 1
    33   38   36 1
    34   39   36 1
    35   40   34 1
    36   41   40 1
    37   42   40 1
    38   43   42 1
    39   44   42 1
    40   45    6 1
    41   46   45 1
    42   47   46 ar
    43   48   47 1
    44   49   47 ar
    45   50   49 1
    46   51   49 ar
    47   52   51 1
    48   53   51 ar
    49   54   53 1
    50   55   46 ar
    51   56   55 1
    52   57   45 1
    53   58   57 ar
    54   59   58 1
    55   60   58 ar
    56   61   60 1
    57   62   60 ar
    58   63   62 1
    59   64   62 ar
    60   65   64 1
    61   66   57 ar
    62   67   66 1
    63   68   45 1
    64   69   68 ar
    65   70   69 1
    66   71   69 ar
    67   72   71 1
    68   73   71 ar
    69   74   73 1
    70   75   73 ar
    71   76   75 1
    72   77   68 ar
    73   78   77 1
    74   79    4 1
    75   80   79 1
    76   81   80 ar
    77   82   81 1
    78   83    8 1
    79   84   83 ar
    80   85   84 1
    81   86   11 1
    82   87   80 ar
    83   88   87 1
    84   89    5 1
    85   90   89 1
    86   91   90 ar
    87   92   91 1
    88   93   15 1
    89   94   93 ar
    90   95   94 1
    91   96   18 1
    92   97   90 ar
    93   98   97 1
    94   99    3 1
    95  100   99 1
    96  101   99 1
    97  102  101 1
    98  103  101 1
    99  104  101 1
   100  105   99 1
   101  106  105 1
   102  107  105 1
   103  108  105 1
   104  109    3 1
   105  110  109 1
   106  111  109 1
   107  112  111 1
   108  113  111 1
   109  114  111 1
   110  115  109 1
   111  116  115 1
   112  117  115 1
   113  118  115 1
   114   53   55 ar
   115   64   66 ar
   116   75   77 ar
   117   81   83 ar
   118   84   86 ar
   119   86   87 ar
   120   91   93 ar
   121   94   96 ar
   122   96   97 ar
@<TRIPOS>SUBSTRUCTURE
     1 RES1 1

@<TRIPOS>CRYSIN
  27.3100   18.7930    9.3500  90.0000  90.0000  90.0000  19 1

