# MOL2 file generated by ConQuest
# Please check atom types

@<TRIPOS>MOLECULE
SUTXUC
    99   103     1
SMALL
NO_CHARGES
****
Generated from CSD

@<TRIPOS>ATOM
      1 O1         5.2348    7.2765    2.9251 O.3       1 RES1    0.0000
      2 O2         5.2628    3.7064    3.7060 O.3       1 RES1    0.0000
      3 N1         3.5787    8.2482    5.4383 N.2       1 RES1    0.0000
      4 N2         3.3599    6.9103    5.1816 N.pl3     1 RES1    0.0000
      5 N3         5.2318    7.2878    1.4518 N.3       1 RES1    0.0000
      6 N4         5.9309    2.5095    3.2263 N.3       1 RES1    0.0000
      7 C1         6.3675   10.0069    6.9351 C.ar      1 RES1    0.0000
      8 H1         6.7555    9.3028    7.4025 H         1 RES1    0.0000
      9 C2         6.8227   11.2905    7.1398 C.ar      1 RES1    0.0000
     10 H2         7.5160   11.4368    7.7412 H         1 RES1    0.0000
     11 C3         6.2789   12.3428    6.4828 C.ar      1 RES1    0.0000
     12 H3         6.5977   13.2054    6.6232 H         1 RES1    0.0000
     13 C4         5.2529   12.1104    5.6103 C.ar      1 RES1    0.0000
     14 H4         4.8595   12.8268    5.1667 H         1 RES1    0.0000
     15 C5         4.7920   10.8365    5.3776 C.ar      1 RES1    0.0000
     16 H5         4.1052   10.7046    4.7660 H         1 RES1    0.0000
     17 C6         5.3309    9.7510    6.0354 C.ar      1 RES1    0.0000
     18 C7         4.8175    8.4074    5.7629 C.2       1 RES1    0.0000
     19 C8         5.5740    7.0785    5.8398 C.3       1 RES1    0.0000
     20 C9         4.6275    6.1964    4.9759 C.3       1 RES1    0.0000
     21 H6         4.5570    5.3146    5.3974 H         1 RES1    0.0000
     22 C10        5.5083    6.5624    7.2875 C.3       1 RES1    0.0000
     23 H7         5.9818    7.1659    7.8639 H         1 RES1    0.0000
     24 H8         5.9115    5.6921    7.3360 H         1 RES1    0.0000
     25 H9         4.5914    6.5049    7.5652 H         1 RES1    0.0000
     26 C11        7.0325    7.1463    5.3875 C.3       1 RES1    0.0000
     27 H10        7.0763    7.5205    4.5042 H         1 RES1    0.0000
     28 H11        7.4057    6.2619    5.3796 H         1 RES1    0.0000
     29 H12        7.5304    7.6988    5.9948 H         1 RES1    0.0000
     30 C12        2.1067    6.4829    4.7578 C.ar      1 RES1    0.0000
     31 C13        1.0724    7.3892    4.5270 C.ar      1 RES1    0.0000
     32 H13        1.2081    8.2969    4.6772 H         1 RES1    0.0000
     33 C14       -0.1458    6.9442    4.0775 C.ar      1 RES1    0.0000
     34 H14       -0.8298    7.5565    3.9290 H         1 RES1    0.0000
     35 C15       -0.3731    5.6097    3.8432 C.ar      1 RES1    0.0000
     36 H15       -1.1991    5.3202    3.5297 H         1 RES1    0.0000
     37 C16        0.6390    4.7079    4.0797 C.ar      1 RES1    0.0000
     38 H16        0.4934    3.8033    3.9231 H         1 RES1    0.0000
     39 C17        1.8662    5.1290    4.5472 C.ar      1 RES1    0.0000
     40 H17        2.5356    4.5068    4.7216 H         1 RES1    0.0000
     41 C18        4.8942    5.9973    3.4725 C.3       1 RES1    0.0000
     42 H18        4.0417    5.7352    3.0669 H         1 RES1    0.0000
     43 C19        3.9535    7.9294    0.9919 C.3       1 RES1    0.0000
     44 C20        4.0652    8.0789   -0.5341 C.3       1 RES1    0.0000
     45 H19        4.0735    7.1945   -0.9331 H         1 RES1    0.0000
     46 H20        3.2767    8.5406   -0.8591 H         1 RES1    0.0000
     47 C21        5.2866    8.8272   -0.9959 C.3       1 RES1    0.0000
     48 H21        5.2724    9.7359   -0.6551 H         1 RES1    0.0000
     49 H22        5.3109    8.8623   -1.9652 H         1 RES1    0.0000
     50 C22        6.4992    8.0925   -0.4695 C.3       1 RES1    0.0000
     51 H23        7.2985    8.5629   -0.7512 H         1 RES1    0.0000
     52 H24        6.5234    7.2057   -0.8621 H         1 RES1    0.0000
     53 C23        6.5122    7.9585    1.0653 C.3       1 RES1    0.0000
     54 C24        2.8143    6.9548    1.2574 C.3       1 RES1    0.0000
     55 H25        3.0804    6.0723    0.9893 H         1 RES1    0.0000
     56 H26        2.0406    7.2222    0.7556 H         1 RES1    0.0000
     57 H27        2.6044    6.9558    2.1944 H         1 RES1    0.0000
     58 C25        3.5980    9.2595    1.6716 C.3       1 RES1    0.0000
     59 H28        3.6219    9.1479    2.6247 H         1 RES1    0.0000
     60 H29        2.7175    9.5312    1.4018 H         1 RES1    0.0000
     61 H30        4.2333    9.9310    1.4122 H         1 RES1    0.0000
     62 C26        6.7769    9.3092    1.7411 C.3       1 RES1    0.0000
     63 H31        6.2431    9.9870    1.3220 H         1 RES1    0.0000
     64 H32        7.7056    9.5329    1.6532 H         1 RES1    0.0000
     65 H33        6.5482    9.2515    2.6721 H         1 RES1    0.0000
     66 C27        7.6499    7.0174    1.4404 C.3       1 RES1    0.0000
     67 H34        7.7077    6.9515    2.3970 H         1 RES1    0.0000
     68 H35        8.4764    7.3592    1.0928 H         1 RES1    0.0000
     69 H36        7.4818    6.1477    1.0691 H         1 RES1    0.0000
     70 C28        5.8875    4.8811    3.1682 C.3       1 RES1    0.0000
     71 H37        6.0281    4.7926    2.2122 H         1 RES1    0.0000
     72 H38        6.7408    5.0487    3.5978 H         1 RES1    0.0000
     73 C29        6.5160    1.8348    4.4232 C.3       1 RES1    0.0000
     74 C30        7.1164    0.5132    3.9339 C.3       1 RES1    0.0000
     75 H39        7.8822    0.7077    3.3700 H         1 RES1    0.0000
     76 H40        7.4357    0.0116    4.7009 H         1 RES1    0.0000
     77 C31        6.1401   -0.3436    3.1569 C.3       1 RES1    0.0000
     78 H41        6.5881   -1.1403    2.8318 H         1 RES1    0.0000
     79 H42        5.4109   -0.6191    3.7353 H         1 RES1    0.0000
     80 C32        5.5989    0.4528    1.9932 C.3       1 RES1    0.0000
     81 H43        4.9573   -0.0921    1.5113 H         1 RES1    0.0000
     82 H44        6.3286    0.6574    1.3871 H         1 RES1    0.0000
     83 C33        4.9229    1.7622    2.4149 C.3       1 RES1    0.0000
     84 C34        7.6489    2.7234    4.9283 C.3       1 RES1    0.0000
     85 H45        8.2324    2.9421    4.1981 H         1 RES1    0.0000
     86 H46        8.1435    2.2557    5.6059 H         1 RES1    0.0000
     87 H47        7.2815    3.5293    5.2983 H         1 RES1    0.0000
     88 C35        5.5295    1.6058    5.5901 C.3       1 RES1    0.0000
     89 H48        5.0041    2.3977    5.7257 H         1 RES1    0.0000
     90 H49        6.0209    1.4066    6.3896 H         1 RES1    0.0000
     91 H50        4.9503    0.8693    5.3796 H         1 RES1    0.0000
     92 C36        4.6673    2.5970    1.1644 C.3       1 RES1    0.0000
     93 H51        4.1980    3.3991    1.4048 H         1 RES1    0.0000
     94 H52        4.1392    2.0905    0.5442 H         1 RES1    0.0000
     95 H53        5.5056    2.8278    0.7571 H         1 RES1    0.0000
     96 C37        3.5800    1.4913    3.0891 C.3       1 RES1    0.0000
     97 H54        3.6919    0.8213    3.7678 H         1 RES1    0.0000
     98 H55        2.9495    1.1814    2.4340 H         1 RES1    0.0000
     99 H56        3.2537    2.3006    3.4898 H         1 RES1    0.0000
@<TRIPOS>BOND
     1    1    5 1
     2    2    6 1
     3    3    4 1
     4    4   20 1
     5    5   43 1
     6    6   73 1
     7    7    8 1
     8    9    7 ar
     9   10    9 1
    10   11    9 ar
    11   12   11 1
    12   13   11 ar
    13   14   13 1
    14   15   13 ar
    15   16   15 1
    16   17    7 ar
    17   18    3 2
    18   19   18 1
    19   20   19 1
    20   21   20 1
    21   22   19 1
    22   23   22 1
    23   24   22 1
    24   25   22 1
    25   26   19 1
    26   27   26 1
    27   28   26 1
    28   29   26 1
    29   30    4 1
    30   31   30 ar
    31   32   31 1
    32   33   31 ar
    33   34   33 1
    34   35   33 ar
    35   36   35 1
    36   37   35 ar
    37   38   37 1
    38   39   30 ar
    39   40   39 1
    40   41    1 1
    41   42   41 1
    42   43   44 1
    43   44   45 1
    44   46   44 1
    45   47   44 1
    46   48   47 1
    47   49   47 1
    48   50   47 1
    49   51   50 1
    50   52   50 1
    51   53    5 1
    52   54   43 1
    53   55   54 1
    54   56   54 1
    55   57   54 1
    56   58   43 1
    57   59   58 1
    58   60   58 1
    59   61   58 1
    60   62   53 1
    61   63   62 1
    62   64   62 1
    63   65   62 1
    64   66   53 1
    65   67   66 1
    66   68   66 1
    67   69   66 1
    68   70    2 1
    69   71   70 1
    70   72   70 1
    71   73   74 1
    72   74   75 1
    73   76   74 1
    74   77   74 1
    75   78   77 1
    76   79   77 1
    77   80   77 1
    78   81   80 1
    79   82   80 1
    80   83    6 1
    81   84   73 1
    82   85   84 1
    83   86   84 1
    84   87   84 1
    85   88   73 1
    86   89   88 1
    87   90   88 1
    88   91   88 1
    89   92   83 1
    90   93   92 1
    91   94   92 1
    92   95   92 1
    93   96   83 1
    94   97   96 1
    95   98   96 1
    96   99   96 1
    97   15   17 ar
    98   17   18 1
    99   20   41 1
   100   37   39 ar
   101   41   70 1
   102   50   53 1
   103   80   83 1
@<TRIPOS>SUBSTRUCTURE
     1 RES1 1

@<TRIPOS>CRYSIN
  10.7365   12.0629   15.6430  71.0620  84.5770  67.3780   2 1

