# MOL2 file generated by ConQuest
# Please check atom types

@<TRIPOS>MOLECULE
SUTYAJ
   110   107     2
SMALL
NO_CHARGES
****
Generated from CSD

@<TRIPOS>ATOM
      1 O1         7.8265   18.5984    1.6522 O.3       1 RES1    0.0000
      2 O2         7.8243   19.3045   -1.9318 O.3       1 RES1    0.0000
      3 N1         9.7156   20.8333    1.2729 N.pl3     1 RES1    0.0000
      4 N2         9.4641   21.1375    2.6017 N.2       1 RES1    0.0000
      5 N3         7.1818   18.7605   -3.1212 N.3       1 RES1    0.0000
      6 N4         7.8296   17.1304    1.6790 N.3       1 RES1    0.0000
      7 C1         6.5706   22.5952    4.2301 C.ar      1 RES1    0.0000
      8 H1         6.1959   23.0377    3.5037 H         1 RES1    0.0000
      9 C2         6.0394   22.7853    5.5052 C.ar      1 RES1    0.0000
     10 H2         5.3093   23.3493    5.6215 H         1 RES1    0.0000
     11 C3         6.5823   22.1499    6.5805 C.ar      1 RES1    0.0000
     12 H3         6.2224   22.2774    7.4288 H         1 RES1    0.0000
     13 C4         7.6555   21.3260    6.4105 C.ar      1 RES1    0.0000
     14 H4         8.0314   20.9000    7.1468 H         1 RES1    0.0000
     15 C5         8.1896   21.1203    5.1464 C.ar      1 RES1    0.0000
     16 H5         8.9183   20.5510    5.0432 H         1 RES1    0.0000
     17 C6         7.6537   21.7485    4.0370 C.ar      1 RES1    0.0000
     18 C7         8.2174   21.4746    2.7114 C.2       1 RES1    0.0000
     19 C8         7.5134   21.5204    1.3661 C.3       1 RES1    0.0000
     20 C9         8.4574   20.6193    0.5355 C.3       1 RES1    0.0000
     21 H6         8.5543   21.0153   -0.3555 H         1 RES1    0.0000
     22 C10        6.0529   21.1010    1.3837 C.3       1 RES1    0.0000
     23 H7         5.7177   21.0714    0.4850 H         1 RES1    0.0000
     24 H8         5.5440   21.7351    1.8940 H         1 RES1    0.0000
     25 H9         5.9742   20.2300    1.7831 H         1 RES1    0.0000
     26 C11        7.8290   23.0439    0.9525 C.3       1 RES1    0.0000
     27 H10        7.2973   23.6391    1.5055 H         1 RES1    0.0000
     28 H11        8.7636   23.2309    1.1302 H         1 RES1    0.0000
     29 C12        7.5298   23.3465   -0.5399 C.2       1 RES1    0.0000
     30 H12        7.1144   22.5578   -0.9206 H         1 RES1    0.0000
     31 C13        8.4927   23.6849   -1.3091 C.2       1 RES1    0.0000
     32 C14       10.9761   20.4155    0.8724 C.ar      1 RES1    0.0000
     33 C15       12.0209   20.3033    1.7853 C.ar      1 RES1    0.0000
     34 H13       11.8943   20.5417    2.6752 H         1 RES1    0.0000
     35 C16       13.4629   19.4825    0.0483 C.ar      1 RES1    0.0000
     36 H14       14.2903   19.1550   -0.2195 H         1 RES1    0.0000
     37 C17       13.2427   19.8355    1.3596 C.ar      1 RES1    0.0000
     38 H15       13.9360   19.7564    1.9741 H         1 RES1    0.0000
     39 C18       12.4453   19.6227   -0.8526 C.ar      1 RES1    0.0000
     40 H16       12.5880   19.3949   -1.7425 H         1 RES1    0.0000
     41 C19       11.2141   20.0967   -0.4653 C.ar      1 RES1    0.0000
     42 H17       10.5397   20.2051   -1.0962 H         1 RES1    0.0000
     43 C20        8.1801   19.1260    0.3654 C.3       1 RES1    0.0000
     44 H18        9.0306   18.7094    0.1141 H         1 RES1    0.0000
     45 C21        7.1959   18.8094   -0.7440 C.3       1 RES1    0.0000
     46 H19        7.0417   17.8524   -0.8065 H         1 RES1    0.0000
     47 H20        6.3475   19.2547   -0.5904 H         1 RES1    0.0000
     48 C22        6.6062   19.9100   -3.8669 C.3       1 RES1    0.0000
     49 C23        6.0197   19.3528   -5.1595 C.3       1 RES1    0.0000
     50 H21        5.2673   18.7810   -4.9434 H         1 RES1    0.0000
     51 H22        5.6869   20.0867   -5.6972 H         1 RES1    0.0000
     52 C24        7.0231   18.5607   -5.9726 C.3       1 RES1    0.0000
     53 H23        6.5954   18.1952   -6.7616 H         1 RES1    0.0000
     54 H24        7.7485   19.1394   -6.2590 H         1 RES1    0.0000
     55 C25        7.5636   17.4417   -5.1102 C.3       1 RES1    0.0000
     56 H25        8.2257   16.9456   -5.6182 H         1 RES1    0.0000
     57 H26        6.8395   16.8334   -4.8973 H         1 RES1    0.0000
     58 C26        9.5544   18.6019   -4.0710 C.3       1 RES1    0.0000
     59 H27        9.4637   19.2329   -4.7886 H         1 RES1    0.0000
     60 H28       10.2042   17.9366   -4.3091 H         1 RES1    0.0000
     61 H29        9.8400   19.0584   -3.2777 H         1 RES1    0.0000
     62 C27        8.1994   17.9232   -3.8120 C.3       1 RES1    0.0000
     63 C28        8.4639   16.7085   -2.9166 C.3       1 RES1    0.0000
     64 H30        8.9267   16.9892   -2.1244 H         1 RES1    0.0000
     65 H31        9.0035   16.0731   -3.3929 H         1 RES1    0.0000
     66 H32        7.6290   16.3006   -2.6741 H         1 RES1    0.0000
     67 C29        5.4571   20.4510   -3.0154 C.3       1 RES1    0.0000
     68 H33        4.8866   19.7252   -2.7509 H         1 RES1    0.0000
     69 H34        4.9523   21.0870   -3.5267 H         1 RES1    0.0000
     70 H35        5.8132   20.8782   -2.2330 H         1 RES1    0.0000
     71 C30        7.5782   21.0717   -4.1577 C.3       1 RES1    0.0000
     72 H36        8.0799   21.2740   -3.3654 H         1 RES1    0.0000
     73 H37        7.0802   21.8473   -4.4287 H         1 RES1    0.0000
     74 H38        8.1798   20.8159   -4.8611 H         1 RES1    0.0000
     75 C31        6.5420   16.7462    2.3460 C.3       1 RES1    0.0000
     76 C32        5.4141   17.1167    1.3881 C.3       1 RES1    0.0000
     77 H39        5.3904   18.0706    1.2751 H         1 RES1    0.0000
     78 H40        4.5762   16.8147    1.7480 H         1 RES1    0.0000
     79 H41        5.5657   16.6963    0.5377 H         1 RES1    0.0000
     80 C33        6.2712   17.4514    3.6848 C.3       1 RES1    0.0000
     81 H42        6.8465   17.0859    4.3607 H         1 RES1    0.0000
     82 H43        5.3551   17.3164    3.9382 H         1 RES1    0.0000
     83 H44        6.4423   18.3915    3.5926 H         1 RES1    0.0000
     84 C34        6.5564   15.2227    2.5106 C.3       1 RES1    0.0000
     85 H45        5.7518   14.9513    2.9814 H         1 RES1    0.0000
     86 H46        6.5350   14.8142    1.6317 H         1 RES1    0.0000
     87 C35        7.7521   14.7042    3.2579 C.3       1 RES1    0.0000
     88 H47        7.7253   13.7360    3.3029 H         1 RES1    0.0000
     89 H48        7.7606   15.0541    4.1621 H         1 RES1    0.0000
     90 C36        8.9874   15.1579    2.5095 C.3       1 RES1    0.0000
     91 H49        8.9881   14.7456    1.6317 H         1 RES1    0.0000
     92 H50        9.7723   14.8391    2.9836 H         1 RES1    0.0000
     93 C37        9.0966   16.6708    2.3406 C.3       1 RES1    0.0000
     94 C38       10.2543   16.9251    1.3661 C.3       1 RES1    0.0000
     95 H51       10.0050   16.6247    0.4883 H         1 RES1    0.0000
     96 H52       11.0307   16.4439    1.6591 H         1 RES1    0.0000
     97 H53       10.4499   17.8649    1.3398 H         1 RES1    0.0000
     98 C39        9.4478   17.3576    3.6540 C.3       1 RES1    0.0000
     99 H54        9.4348   18.3105    3.5311 H         1 RES1    0.0000
    100 H55       10.3227   17.0827    3.9360 H         1 RES1    0.0000
    101 H56        8.8054   17.1139    4.3245 H         1 RES1    0.0000
    102 H57        8.1805   23.8385   -2.1836 H         1 RES1    0.0000
    103 H58        9.4144   23.7451   -1.1412 H         1 RES1    0.0000
    104 C40        7.1626   22.8133    0.6342 Du        2 SUP2    0.0000
    105 H59        6.6454   22.6232   -0.1646 Du        2 SUP2    0.0000
    106 H60        6.6446   23.3992    1.2081 Du        2 SUP2    0.0000
    107 C41        8.4009   23.4210    0.2930 Du        2 SUP2    0.0000
    108 H61        9.1293   22.8414    0.5673 Du        2 SUP2    0.0000
    109 H62        8.4911   24.2623    0.7659 Du        2 SUP2    0.0000
    110 H63        6.8694   24.0567   -0.5684 Du        2 SUP2    0.0000
@<TRIPOS>BOND
     1    1    6 1
     2    2    5 1
     3    3    4 1
     4    4   18 2
     5    5   48 1
     6    6   75 1
     7    7    8 1
     8    9    7 ar
     9   10    9 1
    10   11    9 ar
    11   12   11 1
    12   13   11 ar
    13   14   13 1
    14   15   13 ar
    15   16   15 1
    16   17    7 ar
    17   18   17 1
    18   19   18 1
    19   20    3 1
    20   21   20 1
    21   22   19 1
    22   23   22 1
    23   24   22 1
    24   25   22 1
    25   26   19 1
    26   27   26 1
    27   28   26 1
    28   29   26 1
    29   30   29 1
    30   31   29 2
    31   32    3 1
    32   33   32 ar
    33   34   33 1
    34   35   36 1
    35   37   33 ar
    36   38   37 1
    37   39   35 ar
    38   40   39 1
    39   41   32 ar
    40   42   41 1
    41   43    1 1
    42   44   43 1
    43   45    2 1
    44   46   45 1
    45   47   45 1
    46   48   49 1
    47   49   50 1
    48   51   49 1
    49   52   49 1
    50   53   52 1
    51   54   52 1
    52   55   52 1
    53   56   55 1
    54   57   55 1
    55   58   59 1
    56   60   58 1
    57   61   58 1
    58   62    5 1
    59   63   62 1
    60   64   63 1
    61   65   63 1
    62   66   63 1
    63   67   48 1
    64   68   67 1
    65   69   67 1
    66   70   67 1
    67   71   48 1
    68   72   71 1
    69   73   71 1
    70   74   71 1
    71   75   76 1
    72   76   77 1
    73   78   76 1
    74   79   76 1
    75   80   75 1
    76   81   80 1
    77   82   80 1
    78   83   80 1
    79   84   75 1
    80   85   84 1
    81   86   84 1
    82   87   84 1
    83   88   87 1
    84   89   87 1
    85   90   87 1
    86   91   90 1
    87   92   90 1
    88   93    6 1
    89   94   93 1
    90   95   94 1
    91   96   94 1
    92   97   94 1
    93   98   93 1
    94   99   98 1
    95  100   98 1
    96  101   98 1
    97  102   31 1
    98  103   31 1
    99   15   17 ar
   100   19   20 1
   101   20   43 1
   102   35   37 ar
   103   39   41 ar
   104   43   45 1
   105   55   62 1
   106   58   62 1
   107   90   93 1
@<TRIPOS>SUBSTRUCTURE
     1 RES1 1
     2 SUP2 104

@<TRIPOS>CRYSIN
  10.7783   31.1615   11.9415  90.0000 113.2340  90.0000  14 2

