# MOL2 file generated by ConQuest
# Please check atom types

@<TRIPOS>MOLECULE
SUTYEN
   103   108     1
SMALL
NO_CHARGES
****
Generated from CSD

@<TRIPOS>ATOM
      1 O1         1.4593   11.2884    4.9567 O.3       1 RES1    0.0000
      2 O2        -1.5501    8.2624    3.5506 O.3       1 RES1    0.0000
      3 N1        -1.9181    6.8509    3.5408 N.3       1 RES1    0.0000
      4 N2         2.6205   10.8049    5.6778 N.3       1 RES1    0.0000
      5 N3        -0.9195   13.2354    2.5459 N.3       1 RES1    0.0000
      6 N4        -1.4330   13.4785    1.3001 N.2       1 RES1    0.0000
      7 C1        -0.7554   10.0590    2.1590 C.3       1 RES1    0.0000
      8 H1        -1.6758   10.3557    1.9983 H         1 RES1    0.0000
      9 C2         0.3291   11.9315    1.0093 C.3       1 RES1    0.0000
     10 C3        -0.1555   10.9472    3.2708 C.3       1 RES1    0.0000
     11 H2        -0.8385   11.1206    3.9518 H         1 RES1    0.0000
     12 C4        -0.8109   12.7583    0.4290 C.2       1 RES1    0.0000
     13 C5        -1.1785   14.1354    3.5798 C.ar      1 RES1    0.0000
     14 C6         0.1814   12.2689    2.5326 C.3       1 RES1    0.0000
     15 H3         1.0037   12.6682    2.8853 H         1 RES1    0.0000
     16 C7        -1.2022   12.8553   -0.9920 C.ar      1 RES1    0.0000
     17 C8         1.0804   10.3637    3.9334 C.3       1 RES1    0.0000
     18 H4         0.8820    9.4960    4.3168 H         1 RES1    0.0000
     19 H5         1.7961   10.2609    3.2862 H         1 RES1    0.0000
     20 C9         0.0799   10.4130    0.9171 C.3       1 RES1    0.0000
     21 H6        -0.4031   10.1927    0.1047 H         1 RES1    0.0000
     22 H7         0.9206    9.9288    0.9199 H         1 RES1    0.0000
     23 C10       -1.2244    6.1900    4.6782 C.3       1 RES1    0.0000
     24 C11       -0.7814    8.5579    2.3820 C.3       1 RES1    0.0000
     25 H8        -1.1734    8.1174    1.6109 H         1 RES1    0.0000
     26 H9         0.1237    8.2271    2.4919 H         1 RES1    0.0000
     27 C12        2.1854   10.5452    7.0850 C.3       1 RES1    0.0000
     28 C13        3.7212   11.7895    5.4537 C.3       1 RES1    0.0000
     29 C14       -0.5536   13.9801    4.8122 C.ar      1 RES1    0.0000
     30 H10        0.0594   13.2938    4.9420 H         1 RES1    0.0000
     31 C15       -2.0899   15.1787    3.4015 C.ar      1 RES1    0.0000
     32 H11       -2.4996   15.3068    2.5757 H         1 RES1    0.0000
     33 C16       -0.5456   12.1482   -2.0003 C.ar      1 RES1    0.0000
     34 H12        0.1256   11.5446   -1.7755 H         1 RES1    0.0000
     35 C17       -3.4106    6.7942    3.5004 C.3       1 RES1    0.0000
     36 C18        1.6994   12.3531    0.4565 C.3       1 RES1    0.0000
     37 H13        1.7676   12.0901   -0.4652 H         1 RES1    0.0000
     38 H14        2.3940   11.9241    0.9633 H         1 RES1    0.0000
     39 H15        1.7936   13.3056    0.5265 H         1 RES1    0.0000
     40 C19       -0.8498   14.8585    5.8517 C.ar      1 RES1    0.0000
     41 H16       -0.4243   14.7583    6.6726 H         1 RES1    0.0000
     42 C20       -0.8822   12.3341   -3.3356 C.ar      1 RES1    0.0000
     43 H17       -0.4336   11.8559   -3.9967 H         1 RES1    0.0000
     44 C21       -2.3819   16.0243    4.4616 C.ar      1 RES1    0.0000
     45 H18       -3.0045   16.7061    4.3452 H         1 RES1    0.0000
     46 C22       -2.2349   13.7091   -1.3676 C.ar      1 RES1    0.0000
     47 H19       -2.7218   14.1565   -0.7135 H         1 RES1    0.0000
     48 C23        4.9197   11.3044    6.2773 C.3       1 RES1    0.0000
     49 H20        5.2447   10.4714    5.9008 H         1 RES1    0.0000
     50 H21        5.6326   11.9567    6.2104 H         1 RES1    0.0000
     51 C24       -1.7665   15.8739    5.6787 C.ar      1 RES1    0.0000
     52 H22       -1.9660   16.4512    6.3794 H         1 RES1    0.0000
     53 C25        3.4375   10.1055    7.8454 C.3       1 RES1    0.0000
     54 H23        3.2092    9.9881    8.7816 H         1 RES1    0.0000
     55 H24        3.7266    9.2469    7.5013 H         1 RES1    0.0000
     56 C26        1.2084    9.3643    7.0391 C.3       1 RES1    0.0000
     57 H25        0.3944    9.6383    6.6113 H         1 RES1    0.0000
     58 H26        1.0174    9.0720    7.9335 H         1 RES1    0.0000
     59 H27        1.6033    8.6421    6.5440 H         1 RES1    0.0000
     60 C27        3.3948   13.2540    5.7650 C.3       1 RES1    0.0000
     61 H28        2.5539   13.4865    5.3653 H         1 RES1    0.0000
     62 H29        4.0853   13.8185    5.4087 H         1 RES1    0.0000
     63 H30        3.3411   13.3738    6.7160 H         1 RES1    0.0000
     64 C28       -3.7903    5.3083    3.5354 C.3       1 RES1    0.0000
     65 H31       -4.7572    5.2297    3.5734 H         1 RES1    0.0000
     66 H32       -3.4913    4.8858    2.7148 H         1 RES1    0.0000
     67 C29       -3.1925    4.5745    4.7115 C.3       1 RES1    0.0000
     68 H33       -3.4332    3.6347    4.6713 H         1 RES1    0.0000
     69 H34       -3.5391    4.9422    5.5403 H         1 RES1    0.0000
     70 C30       -1.8658   13.2125   -3.6829 C.ar      1 RES1    0.0000
     71 H35       -2.0764   13.3471   -4.5785 H         1 RES1    0.0000
     72 C31        4.5875   11.0851    7.7430 C.3       1 RES1    0.0000
     73 H36        5.3629   10.7323    8.2073 H         1 RES1    0.0000
     74 H37        4.3417   11.9270    8.1549 H         1 RES1    0.0000
     75 C32       -1.6812    4.7213    4.6756 C.3       1 RES1    0.0000
     76 H38       -1.3403    4.2840    3.8785 H         1 RES1    0.0000
     77 H39       -1.3013    4.2721    5.4461 H         1 RES1    0.0000
     78 C33        0.2720    6.2200    4.3797 C.3       1 RES1    0.0000
     79 H40        0.4263    5.9087    3.4851 H         1 RES1    0.0000
     80 H41        0.7338    5.6507    5.0003 H         1 RES1    0.0000
     81 H42        0.5980    7.1183    4.4649 H         1 RES1    0.0000
     82 C34        1.4712   11.7103    7.7826 C.3       1 RES1    0.0000
     83 H43        2.1089   12.3955    7.9934 H         1 RES1    0.0000
     84 H44        1.0605   11.3963    8.5917 H         1 RES1    0.0000
     85 H45        0.7975   12.0693    7.1991 H         1 RES1    0.0000
     86 C35        4.0982   11.6979    3.9672 C.3       1 RES1    0.0000
     87 H46        4.2288   10.7767    3.7259 H         1 RES1    0.0000
     88 H47        4.9089   12.1879    3.8127 H         1 RES1    0.0000
     89 H48        3.3925   12.0723    3.4343 H         1 RES1    0.0000
     90 C36       -4.1418    7.5698    4.5986 C.3       1 RES1    0.0000
     91 H49       -4.0682    7.0946    5.4296 H         1 RES1    0.0000
     92 H50       -5.0678    7.6608    4.3631 H         1 RES1    0.0000
     93 H51       -3.7476    8.4405    4.6922 H         1 RES1    0.0000
     94 C37       -3.8452    7.3614    2.1434 C.3       1 RES1    0.0000
     95 H52       -3.6192    8.2923    2.0986 H         1 RES1    0.0000
     96 H53       -4.7938    7.2576    2.0417 H         1 RES1    0.0000
     97 H54       -3.3935    6.8900    1.4404 H         1 RES1    0.0000
     98 C38       -1.4355    6.8322    6.0578 C.3       1 RES1    0.0000
     99 H55       -1.3727    7.7883    5.9801 H         1 RES1    0.0000
    100 H56       -0.7620    6.5164    6.6636 H         1 RES1    0.0000
    101 H57       -2.3037    6.5965    6.3914 H         1 RES1    0.0000
    102 C39       -2.5481   13.9021   -2.7051 C.ar      1 RES1    0.0000
    103 H58       -3.2205   14.4974   -2.9422 H         1 RES1    0.0000
@<TRIPOS>BOND
     1    1    4 1
     2    2    3 1
     3    3   23 1
     4    4   27 1
     5    5    6 1
     6    6   12 2
     7    7    8 1
     8    9   12 1
     9   10    7 1
    10   11   10 1
    11   12   16 1
    12   13    5 1
    13   14    5 1
    14   15   14 1
    15   16   33 ar
    16   17    1 1
    17   18   17 1
    18   19   17 1
    19   20    7 1
    20   21   20 1
    21   22   20 1
    22   23   75 1
    23   24    2 1
    24   25   24 1
    25   26   24 1
    26   27   53 1
    27   28    4 1
    28   29   13 ar
    29   30   29 1
    30   31   13 ar
    31   32   31 1
    32   33   34 1
    33   35    3 1
    34   36    9 1
    35   37   36 1
    36   38   36 1
    37   39   36 1
    38   40   29 ar
    39   41   40 1
    40   42   33 ar
    41   43   42 1
    42   44   31 ar
    43   45   44 1
    44   46   16 ar
    45   47   46 1
    46   48   28 1
    47   49   48 1
    48   50   48 1
    49   51   40 ar
    50   52   51 1
    51   53   54 1
    52   55   53 1
    53   56   27 1
    54   57   56 1
    55   58   56 1
    56   59   56 1
    57   60   28 1
    58   61   60 1
    59   62   60 1
    60   63   60 1
    61   64   35 1
    62   65   64 1
    63   66   64 1
    64   67   64 1
    65   68   67 1
    66   69   67 1
    67   70   42 ar
    68   71   70 1
    69   72   48 1
    70   73   72 1
    71   74   72 1
    72   75   67 1
    73   76   75 1
    74   77   75 1
    75   78   23 1
    76   79   78 1
    77   80   78 1
    78   81   78 1
    79   82   27 1
    80   83   82 1
    81   84   82 1
    82   85   82 1
    83   86   28 1
    84   87   86 1
    85   88   86 1
    86   89   86 1
    87   90   35 1
    88   91   90 1
    89   92   90 1
    90   93   90 1
    91   94   35 1
    92   95   94 1
    93   96   94 1
    94   97   94 1
    95   98   23 1
    96   99   98 1
    97  100   98 1
    98  101   98 1
    99  102   46 ar
   100  103  102 1
   101    7   24 1
   102    9   14 1
   103    9   20 1
   104   10   14 1
   105   10   17 1
   106   44   51 ar
   107   53   72 1
   108   70  102 ar
@<TRIPOS>SUBSTRUCTURE
     1 RES1 1

@<TRIPOS>CRYSIN
   8.1683   29.6471   15.3480  90.0000 102.9500  90.0000 231 1

