# MOL2 file generated by ConQuest
# Please check atom types

@<TRIPOS>MOLECULE
SUTZAK
   187   192     4
SMALL
NO_CHARGES
****
Generated from CSD

@<TRIPOS>ATOM
      1 O1         7.8480   14.8379   39.7383 O.2       1 RES1    0.0000
      2 O2         4.7592   13.5353   40.7623 O.3       1 RES1    0.0000
      3 O3         6.3720   11.9856   41.0735 O.2       1 RES1    0.0000
      4 O4         0.9374    9.2375   37.1541 O.2       1 RES1    0.0000
      5 O5         2.5307    7.7472   37.1981 O.2       1 RES1    0.0000
      6 N1         2.0486    8.8439   37.5286 N.pl3     1 RES1    0.0000
      7 C1         5.0219   16.7357   40.1906 C.2       1 RES1    0.0000
      8 C2         5.7094   15.6118   40.2445 C.2       1 RES1    0.0000
      9 C3         6.7757   15.1889   39.2473 C.2       1 RES1    0.0000
     10 C4         6.6504   15.1889   37.8019 C.2       1 RES1    0.0000
     11 H1         7.4717   15.0907   37.3335 H         1 RES1    0.0000
     12 C5         5.5799   15.3035   37.0211 C.2       1 RES1    0.0000
     13 C6         4.2103   15.5627   37.5492 C.3       1 RES1    0.0000
     14 H2         4.0638   15.0171   38.3624 H         1 RES1    0.0000
     15 H3         3.5410   15.2899   36.8726 H         1 RES1    0.0000
     16 C7         4.0079   17.0466   37.8904 C.3       1 RES1    0.0000
     17 H4         3.0833   17.1694   38.2225 H         1 RES1    0.0000
     18 H5         4.1003   17.5759   37.0578 H         1 RES1    0.0000
     19 C8         4.9866   17.6113   38.9428 C.3       1 RES1    0.0000
     20 H6         5.9033   17.6195   38.5435 H         1 RES1    0.0000
     21 C9         4.5696   19.0489   39.1987 C.2       1 RES1    0.0000
     22 C10        3.5562   19.2672   40.0754 C.2       1 RES1    0.0000
     23 H7         3.1617   20.1264   40.1528 H         1 RES1    0.0000
     24 C11        3.0632   18.1078   40.9298 C.3       1 RES1    0.0000
     25 H8         2.4468   17.5459   40.3997 H         1 RES1    0.0000
     26 H9         2.5617   18.4597   41.7085 H         1 RES1    0.0000
     27 C12        4.2328   17.2567   41.4225 C.3       1 RES1    0.0000
     28 C13        3.7252   16.0673   42.2625 C.3       1 RES1    0.0000
     29 H10        3.0632   15.5709   41.7003 H         1 RES1    0.0000
     30 C14        4.8632   15.1044   42.5814 C.3       1 RES1    0.0000
     31 H11        5.5118   15.5599   43.1737 H         1 RES1    0.0000
     32 H12        4.4972   14.3269   43.0749 H         1 RES1    0.0000
     33 C15        5.5830   14.6134   41.3591 C.3       1 RES1    0.0000
     34 H13        6.4839   14.2587   41.6097 H         1 RES1    0.0000
     35 C16        5.6833   15.2080   35.5284 C.3       1 RES1    0.0000
     36 H14        6.6243   15.1071   35.2715 H         1 RES1    0.0000
     37 H15        5.3185   16.0210   35.1234 H         1 RES1    0.0000
     38 H16        5.1757   14.4306   35.2139 H         1 RES1    0.0000
     39 C17        5.2285   20.0910   38.4448 C.3       1 RES1    0.0000
     40 H17        4.8377   20.9585   38.6793 H         1 RES1    0.0000
     41 H18        5.1106   19.9273   37.4858 H         1 RES1    0.0000
     42 H19        6.1848   20.0964   38.6588 H         1 RES1    0.0000
     43 C18        5.1994   18.1242   42.2435 C.3       1 RES1    0.0000
     44 H20        4.6936   18.6397   42.9062 H         1 RES1    0.0000
     45 H21        5.6741   18.7379   41.6468 H         1 RES1    0.0000
     46 H22        5.8468   17.5486   42.7004 H         1 RES1    0.0000
     47 C19        3.0140   16.4711   43.5527 C.3       1 RES1    0.0000
     48 H23        2.6954   15.6663   44.0133 H         1 RES1    0.0000
     49 H24        2.2523   17.0494   43.3383 H         1 RES1    0.0000
     50 H25        3.6389   16.9539   44.1327 H         1 RES1    0.0000
     51 C20        5.2906   12.3001   40.6467 C.2       1 RES1    0.0000
     52 C21        4.3854   11.3863   39.8881 C.ar      1 RES1    0.0000
     53 C22        4.8298   10.0905   39.6194 C.ar      1 RES1    0.0000
     54 H26        5.6711    9.7986   39.9511 H         1 RES1    0.0000
     55 C23        4.0389    9.2230   38.8646 C.ar      1 RES1    0.0000
     56 H27        4.3167    8.3337   38.6793 H         1 RES1    0.0000
     57 C24        2.8413    9.7113   38.4032 C.ar      1 RES1    0.0000
     58 C25        2.3611   10.9716   38.6802 C.ar      1 RES1    0.0000
     59 H28        1.5149   11.2553   38.3542 H         1 RES1    0.0000
     60 C26        3.1489   11.8173   39.4486 C.ar      1 RES1    0.0000
     61 H29        2.8389   12.6875   39.6712 H         1 RES1    0.0000
     62 O6         9.1301    3.2151   34.9304 O.2       2 RES2    0.0000
     63 O7         6.2249    1.9379   34.3311 O.3       2 RES2    0.0000
     64 O8         7.3064    0.1773   33.4075 O.2       2 RES2    0.0000
     65 O9         2.3197    2.8288   28.8782 O.2       2 RES2    0.0000
     66 O10        3.4772    1.3967   27.7406 O.2       2 RES2    0.0000
     67 N2         3.2200    2.0132   28.7852 N.pl3     2 RES2    0.0000
     68 C27        6.3939    3.6936   37.1141 C.2       2 RES2    0.0000
     69 C28        7.1015    3.1862   36.0947 C.2       2 RES2    0.0000
     70 C29        8.1586    3.8791   35.2847 C.2       2 RES2    0.0000
     71 C30        8.1586    5.2894   34.8731 C.2       2 RES2    0.0000
     72 H30        9.0152    5.6740   34.7242 H         2 RES2    0.0000
     73 C31        7.1143    6.1105   34.6768 C.2       2 RES2    0.0000
     74 C32        5.7270    5.7722   35.0493 C.3       2 RES2    0.0000
     75 H31        5.5459    4.8284   34.8147 H         2 RES2    0.0000
     76 H32        5.1009    6.3396   34.5348 H         2 RES2    0.0000
     77 C33        5.4851    5.9823   36.5441 C.3       2 RES2    0.0000
     78 H33        4.5495    5.7340   36.7491 H         2 RES2    0.0000
     79 H34        5.5902    6.9452   36.7491 H         2 RES2    0.0000
     80 C34        6.4237    5.1776   37.4673 C.3       2 RES2    0.0000
     81 H35        7.3568    5.5131   37.3376 H         2 RES2    0.0000
     82 C35        6.0036    5.4531   38.9148 C.2       2 RES2    0.0000
     83 C36        4.8365    4.8284   39.3914 C.2       2 RES2    0.0000
     84 H36        4.3805    5.1312   40.1692 H         2 RES2    0.0000
     85 C37        4.3477    3.6227   38.5723 C.3       2 RES2    0.0000
     86 H37        3.7854    3.9445   37.8233 H         2 RES2    0.0000
     87 H38        3.7866    3.0443   39.1485 H         2 RES2    0.0000
     88 C38        5.5216    2.7879   38.0023 C.3       2 RES2    0.0000
     89 C39        4.9720    1.6176   37.1607 C.3       2 RES2    0.0000
     90 H39        4.4018    2.0023   36.4363 H         2 RES2    0.0000
     91 C40        6.1045    0.8675   36.5128 C.3       2 RES2    0.0000
     92 H40        5.7361    0.1200   35.9753 H         2 RES2    0.0000
     93 H41        6.6833    0.4774   37.2183 H         2 RES2    0.0000
     94 C41        6.9465    1.7677   35.6086 C.3       2 RES2    0.0000
     95 H42        7.8431    1.3558   35.4485 H         2 RES2    0.0000
     96 C42        7.3331    7.4963   34.1299 C.3       2 RES2    0.0000
     97 H43        8.2887    7.6354   33.9628 H         2 RES2    0.0000
     98 H44        7.0146    8.1591   34.7777 H         2 RES2    0.0000
     99 H45        6.8377    7.5999   33.2919 H         2 RES2    0.0000
    100 C43        6.7538    6.3260   39.6844 C.3       2 RES2    0.0000
    101 H46        6.4431    6.2933   40.6137 H         2 RES2    0.0000
    102 H47        6.6510    7.2371   39.3379 H         2 RES2    0.0000
    103 H48        7.6978    6.0668   39.6465 H         2 RES2    0.0000
    104 C44        6.3750    2.3105   39.1864 C.3       2 RES2    0.0000
    105 H49        6.7580    3.0880   39.6465 H         2 RES2    0.0000
    106 H50        7.0978    1.7349   38.8563 H         2 RES2    0.0000
    107 H51        5.8140    1.8059   39.8112 H         2 RES2    0.0000
    108 C45        4.1082    0.6356   37.9714 C.3       2 RES2    0.0000
    109 H52        3.7070   -0.0246   37.3664 H         2 RES2    0.0000
    110 H53        3.3994    1.1294   38.4324 H         2 RES2    0.0000
    111 H54        4.6687    0.1746   38.6300 H         2 RES2    0.0000
    112 C46        6.4985    1.0693   33.3450 C.2       2 RES2    0.0000
    113 C47        5.6328    1.3449   32.1498 C.ar      2 RES2    0.0000
    114 C48        5.9811    0.7283   30.9488 C.ar      2 RES2    0.0000
    115 H55        6.7447    0.1664   30.8883 H         2 RES2    0.0000
    116 C49        5.1708    0.9657   29.8322 C.ar      2 RES2    0.0000
    117 H56        5.3805    0.5619   28.9992 H         2 RES2    0.0000
    118 C50        4.0748    1.7786   29.9430 C.ar      2 RES2    0.0000
    119 C51        3.7368    2.3596   31.1460 C.ar      2 RES2    0.0000
    120 H57        2.9605    2.9052   31.2135 H         2 RES2    0.0000
    121 C52        4.5282    2.1523   32.2506 C.ar      2 RES2    0.0000
    122 H58        4.3106    2.5615   33.0779 H         2 RES2    0.0000
    123 O11        1.5033   21.5425   30.2356 O.2       3 RES3    0.0000
    124 O12        3.4656   23.8020   30.9838 O.3       3 RES3    0.0000
    125 O13        2.3720   25.5760   30.0919 O.2       3 RES3    0.0000
    126 O14        8.1082   23.8364   26.0758 O.2       3 RES3    0.0000
    127 O15        7.1136   25.5168   25.0572 O.2       3 RES3    0.0000
    128 N3         7.2103   24.7475   25.9495 N.pl3     3 RES3    0.0000
    129 C53        2.5629   21.6486   33.5207 C.2       3 RES3    0.0000
    130 C54        2.5106   22.1287   32.2778 C.2       3 RES3    0.0000
    131 C55        2.4231   21.2558   31.0398 C.2       3 RES3    0.0000
    132 C56        3.3203   20.1428   30.6891 C.2       3 RES3    0.0000
    133 H59        3.0389   19.6081   29.9582 H         3 RES3    0.0000
    134 C57        4.4693   19.7827   31.2534 C.2       3 RES3    0.0000
    135 C58        5.0164   20.3883   32.5116 C.3       3 RES3    0.0000
    136 H60        4.9094   21.3704   32.4688 H         3 RES3    0.0000
    137 H61        5.9854   20.1919   32.5675 H         3 RES3    0.0000
    138 C59        4.3331   19.8700   33.7780 C.3       3 RES3    0.0000
    139 H62        4.7611   20.2874   34.5678 H         3 RES3    0.0000
    140 H63        4.4687   18.8934   33.8393 H         3 RES3    0.0000
    141 C60        2.8006   20.1755   33.8080 C.3       3 RES3    0.0000
    142 H64        2.3483   19.6327   33.1026 H         3 RES3    0.0000
    143 C61        2.2839   19.7473   35.1666 C.2       3 RES3    0.0000
    144 C62        2.4182   20.5575   36.2124 C.2       3 RES3    0.0000
    145 H65        2.1793   20.2628   37.0825 H         3 RES3    0.0000
    146 C63        2.9562   21.9623   36.0004 C.3       3 RES3    0.0000
    147 H66        3.9441   21.9269   35.9506 H         3 RES3    0.0000
    148 H67        2.7118   22.5243   36.7779 H         3 RES3    0.0000
    149 C64        2.4073   22.6034   34.7200 C.3       3 RES3    0.0000
    150 C65        3.1520   23.9073   34.3743 C.3       3 RES3    0.0000
    151 H68        4.0979   23.6673   34.1562 H         3 RES3    0.0000
    152 C66        2.5453   24.5593   33.1413 C.3       3 RES3    0.0000
    153 H69        3.1264   25.3095   32.8597 H         3 RES3    0.0000
    154 H70        1.6626   24.9357   33.3824 H         3 RES3    0.0000
    155 C67        2.3666   23.5991   31.9535 C.3       3 RES3    0.0000
    156 H71        1.4857   23.7655   31.5098 H         3 RES3    0.0000
    157 C68        5.2814   18.6861   30.6463 C.3       3 RES3    0.0000
    158 H72        4.8255   18.3451   29.8471 H         3 RES3    0.0000
    159 H73        5.3890   17.9605   31.2958 H         3 RES3    0.0000
    160 H74        6.1629   19.0326   30.3944 H         3 RES3    0.0000
    161 C69        1.6796   18.3724   35.2522 C.3       3 RES3    0.0000
    162 H75        1.3179   18.2306   36.1523 H         3 RES3    0.0000
    163 H76        2.3690   17.6986   35.0658 H         3 RES3    0.0000
    164 H77        0.9587   18.2906   34.5925 H         3 RES3    0.0000
    165 C70        0.8924   22.8271   34.9188 C.3       3 RES3    0.0000
    166 H78        0.7495   23.4899   35.6255 H         3 RES3    0.0000
    167 H79        0.4687   21.9787   35.1728 H         3 RES3    0.0000
    168 H80        0.4979   23.1490   34.0821 H         3 RES3    0.0000
    169 C71        3.1824   24.9412   35.5160 C.3       3 RES3    0.0000
    170 H81        3.5805   24.5375   36.3128 H         3 RES3    0.0000
    171 H82        2.2687   25.2331   35.7202 H         3 RES3    0.0000
    172 H83        3.7173   25.7159   35.2427 H         3 RES3    0.0000
    173 C72        3.3021   24.7802   30.0722 C.2       3 RES3    0.0000
    174 C73        4.3471   24.7748   29.0239 C.ar      3 RES3    0.0000
    175 C74        4.1398   25.5004   27.8588 C.ar      3 RES3    0.0000
    176 H84        3.3477   26.0160   27.7604 H         3 RES3    0.0000
    177 C75        5.0754   25.4813   26.8405 C.ar      3 RES3    0.0000
    178 H85        4.9374   25.9505   26.0277 H         3 RES3    0.0000
    179 C76        6.2140   24.7502   27.0690 C.ar      3 RES3    0.0000
    180 C77        6.4462   23.9919   28.2032 C.ar      3 RES3    0.0000
    181 H86        7.2310   23.4627   28.2872 H         3 RES3    0.0000
    182 C78        5.5058   24.0273   29.2067 C.ar      3 RES3    0.0000
    183 H87        5.6462   23.5445   30.0158 H         3 RES3    0.0000
    184 H88        4.1106    5.4994   39.4202 Du        4 SUP4    0.0000
    185 H89        5.0000    4.5283   40.3215 Du        4 SUP4    0.0000
    186 H90        6.4863    6.5251   40.5726 Du        4 SUP4    0.0000
    187 H91        7.5355    6.7270   39.3214 Du        4 SUP4    0.0000
@<TRIPOS>BOND
     1    1    9 2
     2    2   33 1
     3    3   51 2
     4    4    6 2
     5    5    6 2
     6    6   57 1
     7    7    8 2
     8    8    9 1
     9    9   10 1
    10   10   11 1
    11   12   10 2
    12   13   12 1
    13   14   13 1
    14   15   13 1
    15   16   13 1
    16   17   16 1
    17   18   16 1
    18   19    7 1
    19   20   19 1
    20   21   19 1
    21   22   21 2
    22   23   22 1
    23   24   22 1
    24   25   24 1
    25   26   24 1
    26   27    7 1
    27   28   27 1
    28   29   28 1
    29   30   28 1
    30   31   30 1
    31   32   30 1
    32   33    8 1
    33   34   33 1
    34   35   12 1
    35   36   35 1
    36   37   35 1
    37   38   35 1
    38   39   21 1
    39   40   39 1
    40   41   39 1
    41   42   39 1
    42   43   27 1
    43   44   43 1
    44   45   43 1
    45   46   43 1
    46   47   28 1
    47   48   47 1
    48   49   47 1
    49   50   47 1
    50   51    2 1
    51   52   51 1
    52   53   52 ar
    53   54   53 1
    54   55   53 ar
    55   56   55 1
    56   57   55 ar
    57   58   57 ar
    58   59   58 1
    59   60   52 ar
    60   61   60 1
    61   62   70 2
    62   63   94 1
    63   64  112 2
    64   65   67 2
    65   66   67 2
    66   67  118 1
    67   68   69 2
    68   69   70 1
    69   70   71 1
    70   71   72 1
    71   73   71 2
    72   74   73 1
    73   75   74 1
    74   76   74 1
    75   77   74 1
    76   78   77 1
    77   79   77 1
    78   80   68 1
    79   81   80 1
    80   82   80 1
    81   83   82 2
    82   84   83 1
    83   85   83 1
    84   86   85 1
    85   87   85 1
    86   88   68 1
    87   89   88 1
    88   90   89 1
    89   91   89 1
    90   92   91 1
    91   93   91 1
    92   94   69 1
    93   95   94 1
    94   96   73 1
    95   97   96 1
    96   98   96 1
    97   99   96 1
    98  100   82 1
    99  101  100 1
   100  102  100 1
   101  103  100 1
   102  104   88 1
   103  105  104 1
   104  106  104 1
   105  107  104 1
   106  108   89 1
   107  109  108 1
   108  110  108 1
   109  111  108 1
   110  112   63 1
   111  113  112 1
   112  114  113 ar
   113  115  114 1
   114  116  114 ar
   115  117  116 1
   116  118  116 ar
   117  119  118 ar
   118  120  119 1
   119  121  113 ar
   120  122  121 1
   121  123  131 2
   122  124  155 1
   123  125  173 2
   124  126  128 2
   125  127  128 2
   126  128  179 1
   127  129  130 2
   128  130  131 1
   129  131  132 1
   130  132  133 1
   131  134  132 2
   132  135  134 1
   133  136  135 1
   134  137  135 1
   135  138  135 1
   136  139  138 1
   137  140  138 1
   138  141  129 1
   139  142  141 1
   140  143  141 1
   141  144  143 2
   142  145  144 1
   143  146  144 1
   144  147  146 1
   145  148  146 1
   146  149  129 1
   147  150  149 1
   148  151  150 1
   149  152  150 1
   150  153  152 1
   151  154  152 1
   152  155  130 1
   153  156  155 1
   154  157  134 1
   155  158  157 1
   156  159  157 1
   157  160  157 1
   158  161  143 1
   159  162  161 1
   160  163  161 1
   161  164  161 1
   162  165  149 1
   163  166  165 1
   164  167  165 1
   165  168  165 1
   166  169  150 1
   167  170  169 1
   168  171  169 1
   169  172  169 1
   170  173  124 1
   171  174  173 1
   172  175  174 ar
   173  176  175 1
   174  177  175 ar
   175  178  177 1
   176  179  177 ar
   177  180  179 ar
   178  181  180 1
   179  182  174 ar
   180  183  182 1
   181   16   19 1
   182   24   27 1
   183   30   33 1
   184   58   60 ar
   185   77   80 1
   186   85   88 1
   187   91   94 1
   188  119  121 ar
   189  138  141 1
   190  146  149 1
   191  152  155 1
   192  180  182 ar
@<TRIPOS>SUBSTRUCTURE
     1 RES1 1
     2 RES2 62
     3 RES3 123
     4 SUP4 184

@<TRIPOS>CRYSIN
   6.0790   27.2790   41.1570  90.0000  90.0000  90.0000  19 1

