# MOL2 file generated by ConQuest
# Please check atom types

@<TRIPOS>MOLECULE
SUVGUN
    36    37     1
SMALL
NO_CHARGES
****
Generated from CSD

@<TRIPOS>ATOM
      1 C1        -0.5086    9.4499    5.9916 C.ar      1 RES1    0.0000
      2 C2        -1.1177    8.2820    6.4134 C.ar      1 RES1    0.0000
      3 H1        -0.8308    7.4634    6.0788 H         1 RES1    0.0000
      4 C3        -2.1527    8.3272    7.3329 C.ar      1 RES1    0.0000
      5 H2        -2.5601    7.5397    7.6139 H         1 RES1    0.0000
      6 C4        -2.5791    9.5437    7.8321 C.ar      1 RES1    0.0000
      7 H3        -3.2649    9.5728    8.4595 H         1 RES1    0.0000
      8 C5        -1.9994   10.6978    7.4079 C.ar      1 RES1    0.0000
      9 H4        -2.2889   11.5145    7.7460 H         1 RES1    0.0000
     10 C6        -0.9874   10.6588    6.4837 C.ar      1 RES1    0.0000
     11 H5        -0.6152   11.4552    6.1800 H         1 RES1    0.0000
     12 C7         0.6029    9.4705    5.0162 C.2       1 RES1    0.0000
     13 H6         0.5286   10.0871    4.3241 H         1 RES1    0.0000
     14 C8         1.6980    8.7119    5.0090 C.2       1 RES1    0.0000
     15 C9         2.7262    8.9089    3.9440 C.ar      1 RES1    0.0000
     16 C10        2.4150    8.8789    2.5740 C.ar      1 RES1    0.0000
     17 C11        3.4149    9.1587    1.6422 C.ar      1 RES1    0.0000
     18 H7         3.2089    9.1469    0.7358 H         1 RES1    0.0000
     19 C12        4.7027    9.4519    2.0384 C.ar      1 RES1    0.0000
     20 H8         5.3542    9.6451    1.4048 H         1 RES1    0.0000
     21 C13        5.0167    9.4564    3.3744 C.ar      1 RES1    0.0000
     22 H9         5.8860    9.6411    3.6466 H         1 RES1    0.0000
     23 C14        4.0439    9.1872    4.3107 C.ar      1 RES1    0.0000
     24 H10        4.2711    9.1911    5.2126 H         1 RES1    0.0000
     25 C15        2.0212    7.6954    6.0745 C.3       1 RES1    0.0000
     26 H11        1.4788    7.8601    6.8489 H         1 RES1    0.0000
     27 H12        2.9481    7.7657    6.3120 H         1 RES1    0.0000
     28 H13        1.8420    6.8135    5.7409 H         1 RES1    0.0000
     29 C16        1.0779    8.4689    2.0579 C.2       1 RES1    0.0000
     30 C17        0.4139    7.2225    2.5504 C.3       1 RES1    0.0000
     31 H14       -0.4535    7.4393    2.9005 H         1 RES1    0.0000
     32 H15        0.9484    6.8265    3.2418 H         1 RES1    0.0000
     33 H16        0.3191    6.6015    1.8250 H         1 RES1    0.0000
     34 N1         0.6133    9.1828    1.1053 N.2       1 RES1    0.0000
     35 O1        -0.5813    8.6499    0.5707 O.3       1 RES1    0.0000
     36 H17       -0.8568    9.1409   -0.0257 H         1 RES1    0.0000
@<TRIPOS>BOND
     1    1    2 ar
     2    2    3 1
     3    4    2 ar
     4    5    4 1
     5    6    4 ar
     6    7    6 1
     7    8    6 ar
     8    9    8 1
     9   10    1 ar
    10   11   10 1
    11   12    1 1
    12   13   12 1
    13   14   12 2
    14   15   14 1
    15   16   15 ar
    16   17   16 ar
    17   18   17 1
    18   19   17 ar
    19   20   19 1
    20   21   19 ar
    21   22   21 1
    22   23   15 ar
    23   24   23 1
    24   25   14 1
    25   26   25 1
    26   27   25 1
    27   28   25 1
    28   29   16 1
    29   30   29 1
    30   31   30 1
    31   32   30 1
    32   33   30 1
    33   34   29 2
    34   35   34 1
    35   36   35 1
    36    8   10 ar
    37   21   23 ar
@<TRIPOS>SUBSTRUCTURE
     1 RES1 1

@<TRIPOS>CRYSIN
   8.2926   10.0449   17.1800  90.0000  93.2550  90.0000 231 1

