# MOL2 file generated by ConQuest
# Please check atom types

@<TRIPOS>MOLECULE
SUVJOK
    88    88     2
SMALL
NO_CHARGES
****
Generated from CSD

@<TRIPOS>ATOM
      1 O1         0.2725    4.1436    6.2139 O.2       1 RES1    0.0000
      2 O2         2.3548    0.8838   10.9547 O.2       1 RES1    0.0000
      3 O3        -2.7571    0.7209    8.0872 O.3       1 RES1    0.0000
      4 N1         1.0816    3.4303    6.9294 N.pl3     1 RES1    0.0000
      5 N2         1.2876    0.2630   10.5764 N.pl3     1 RES1    0.0000
      6 C1         0.4862    2.4226    7.7483 C.ar      1 RES1    0.0000
      7 C2         1.1716    1.8064    8.7620 C.ar      1 RES1    0.0000
      8 C3         0.5357    0.8321    9.5412 C.ar      1 RES1    0.0000
      9 C4        -0.7946    0.4975    9.2821 C.ar      1 RES1    0.0000
     10 C5        -1.4586    1.1264    8.2366 C.ar      1 RES1    0.0000
     11 C6        -0.8531    2.0890    7.4559 C.ar      1 RES1    0.0000
     12 C7         2.5436    3.7521    6.8392 C.3       1 RES1    0.0000
     13 C8         2.7237    4.6842    5.6400 C.3       1 RES1    0.0000
     14 C9         2.9882    4.4635    8.1056 C.3       1 RES1    0.0000
     15 C10        3.3562    2.4805    6.5575 C.3       1 RES1    0.0000
     16 C11        0.9555   -1.0214   11.3396 C.3       1 RES1    0.0000
     17 C12        2.2094   -1.4286   12.0800 C.3       1 RES1    0.0000
     18 C13       -0.1756   -0.7261   12.3222 C.3       1 RES1    0.0000
     19 C14        0.5988   -2.1233   10.3455 C.3       1 RES1    0.0000
     20 C15       -3.5104    1.2579    6.9992 C.3       1 RES1    0.0000
     21 H1         2.0709    2.0115    9.0190 H         1 RES1    0.0000
     22 H2        -1.2718   -0.0196    9.8233 H         1 RES1    0.0000
     23 H3        -1.3506    2.5119    6.6149 H         1 RES1    0.0000
     24 H4         2.1610    5.4358    5.8710 H         1 RES1    0.0000
     25 H5         3.7479    4.8569    5.5780 H         1 RES1    0.0000
     26 H6         2.5211    4.2486    4.7020 H         1 RES1    0.0000
     27 H7         3.0951    3.8757    8.7605 H         1 RES1    0.0000
     28 H8         3.9167    4.7196    7.9132 H         1 RES1    0.0000
     29 H9         2.2285    5.1905    8.3526 H         1 RES1    0.0000
     30 H10        3.0951    2.0115    5.7618 H         1 RES1    0.0000
     31 H11        4.3107    2.7670    6.4282 H         1 RES1    0.0000
     32 H12        3.3540    1.9624    7.3933 H         1 RES1    0.0000
     33 H13        2.4874   -0.7555   12.7904 H         1 RES1    0.0000
     34 H14        2.0709   -2.1979   12.4572 H         1 RES1    0.0000
     35 H15        3.0051   -1.5601   11.4978 H         1 RES1    0.0000
     36 H16       -1.2043   -0.4121   11.7362 H         1 RES1    0.0000
     37 H17       -0.3714   -1.4227   12.9282 H         1 RES1    0.0000
     38 H18        0.0788   -0.0294   12.8880 H         1 RES1    0.0000
     39 H19        1.4069   -2.2666    9.7170 H         1 RES1    0.0000
     40 H20        0.4502   -2.8455   10.9693 H         1 RES1    0.0000
     41 H21       -0.1801   -2.0115    9.9899 H         1 RES1    0.0000
     42 H22       -3.6804    2.1979    7.2411 H         1 RES1    0.0000
     43 H23       -3.0276    1.1088    6.1209 H         1 RES1    0.0000
     44 H24       -4.4457    0.8438    7.0659 H         1 RES1    0.0000
     45 O4         8.8169    0.8154    3.8078 O.2       2 RES2    0.0000
     46 O5        11.1117    3.9683   -0.9269 O.2       2 RES2    0.0000
     47 O6         6.0451    4.4505    2.0158 O.3       2 RES2    0.0000
     48 N3         9.6680    1.4267    3.0570 N.pl3     2 RES2    0.0000
     49 N4        10.0473    4.6224   -0.5756 N.pl3     2 RES2    0.0000
     50 C16        9.1458    2.4864    2.2582 C.ar      2 RES2    0.0000
     51 C17        9.8470    3.0378    1.2064 C.ar      2 RES2    0.0000
     52 C18        9.2696    4.0779    0.4645 C.ar      2 RES2    0.0000
     53 C19        7.9911    4.5194    0.7548 C.ar      2 RES2    0.0000
     54 C20        7.3011    3.9434    1.8139 C.ar      2 RES2    0.0000
     55 C21        7.8650    2.9426    2.5894 C.ar      2 RES2    0.0000
     56 C22       11.0862    0.9449    3.0880 C.3       2 RES2    0.0000
     57 C23       11.2100   -0.0029    4.2760 C.3       2 RES2    0.0000
     58 C24       12.0496    2.1194    3.2899 C.3       2 RES2    0.0000
     59 C25       11.3698    0.1639    1.8070 C.3       2 RES2    0.0000
     60 C26        9.7727    5.9137   -1.3339 C.3       2 RES2    0.0000
     61 C27       11.0243    6.2659   -2.1238 C.3       2 RES2    0.0000
     62 C28        8.6292    5.6870   -2.2961 C.3       2 RES2    0.0000
     63 C29        9.5003    7.0529   -0.3303 C.3       2 RES2    0.0000
     64 C30        5.2775    3.9758    3.1176 C.3       2 RES2    0.0000
     65 H25       10.6033    2.7680    1.0340 H         2 RES2    0.0000
     66 H26        7.5183    5.1709    0.2470 H         2 RES2    0.0000
     67 H27        7.4170    2.5609    3.1452 H         2 RES2    0.0000
     68 H28       10.4897   -0.7653    4.1907 H         2 RES2    0.0000
     69 H29       12.2342   -0.2845    4.3659 H         2 RES2    0.0000
     70 H30       11.0186    0.4219    5.2161 H         2 RES2    0.0000
     71 H31       11.8178    2.5315    4.1648 H         2 RES2    0.0000
     72 H32       13.0333    1.7367    3.4065 H         2 RES2    0.0000
     73 H33       12.0766    2.7179    2.4960 H         2 RES2    0.0000
     74 H34       11.3450    0.6868    0.9651 H         2 RES2    0.0000
     75 H35       12.3355   -0.1962    1.8814 H         2 RES2    0.0000
     76 H36       10.6022   -0.5887    1.5654 H         2 RES2    0.0000
     77 H37       11.1087    5.6223   -2.9901 H         2 RES2    0.0000
     78 H38       10.7823    7.0941   -2.6885 H         2 RES2    0.0000
     79 H39       11.7052    6.3484   -1.5482 H         2 RES2    0.0000
     80 H40        7.8222    5.5634   -1.9043 H         2 RES2    0.0000
     81 H41        8.5876    6.4857   -2.8436 H         2 RES2    0.0000
     82 H42        8.8239    4.9158   -2.9843 H         2 RES2    0.0000
     83 H43       10.2195    7.1235    0.3475 H         2 RES2    0.0000
     84 H44        9.4317    7.8398   -0.8186 H         2 RES2    0.0000
     85 H45        8.5988    6.9273    0.2786 H         2 RES2    0.0000
     86 H46        5.8076    4.1799    3.8776 H         2 RES2    0.0000
     87 H47        4.4232    4.5528    2.9642 H         2 RES2    0.0000
     88 H48        5.1660    3.0712    3.0762 H         2 RES2    0.0000
@<TRIPOS>BOND
     1    1    4 2
     2    2    5 2
     3    3   10 1
     4    4    6 1
     5    5    8 1
     6    6    7 ar
     7    7    8 ar
     8    8    9 ar
     9    9   10 ar
    10   10   11 ar
    11   11    6 ar
    12   12    4 1
    13   13   12 1
    14   14   12 1
    15   15   12 1
    16   16    5 1
    17   17   16 1
    18   18   16 1
    19   19   16 1
    20   20    3 1
    21   21    7 1
    22   22    9 1
    23   23   11 1
    24   24   13 1
    25   25   13 1
    26   26   13 1
    27   27   14 1
    28   28   14 1
    29   29   14 1
    30   30   15 1
    31   31   15 1
    32   32   15 1
    33   33   17 1
    34   34   17 1
    35   35   17 1
    36   36   18 1
    37   37   18 1
    38   38   18 1
    39   39   19 1
    40   40   19 1
    41   41   19 1
    42   42   20 1
    43   43   20 1
    44   44   20 1
    45   45   48 2
    46   46   49 2
    47   47   54 1
    48   48   50 1
    49   49   52 1
    50   50   51 ar
    51   51   52 ar
    52   52   53 ar
    53   53   54 ar
    54   54   55 ar
    55   55   50 ar
    56   56   48 1
    57   57   56 1
    58   58   56 1
    59   59   56 1
    60   60   49 1
    61   61   60 1
    62   62   60 1
    63   63   60 1
    64   64   47 1
    65   65   51 1
    66   66   53 1
    67   67   55 1
    68   68   57 1
    69   69   57 1
    70   70   57 1
    71   71   58 1
    72   72   58 1
    73   73   58 1
    74   74   59 1
    75   75   59 1
    76   76   59 1
    77   77   61 1
    78   78   61 1
    79   79   61 1
    80   80   62 1
    81   81   62 1
    82   82   62 1
    83   83   63 1
    84   84   63 1
    85   85   63 1
    86   86   64 1
    87   87   64 1
    88   88   64 1
@<TRIPOS>SUBSTRUCTURE
     1 RES1 1
     2 RES2 45

@<TRIPOS>CRYSIN
  11.2550    9.8120   28.7230  90.0000  90.0000  90.0000  29 1

