# MOL2 file generated by ConQuest
# Please check atom types

@<TRIPOS>MOLECULE
SUVLAW
    30    31     1
SMALL
NO_CHARGES
****
Generated from CSD

@<TRIPOS>ATOM
      1 O1         0.1692   -1.7898    1.7777 O.2       1 RES1    0.0000
      2 O2         0.8191   -0.0983    2.9182 O.2       1 RES1    0.0000
      3 O3         7.0598    8.0921    4.7386 O.2       1 RES1    0.0000
      4 O4         7.7219    7.6729    2.7365 O.2       1 RES1    0.0000
      5 N1         0.8284   -0.7755    1.9097 N.pl3     1 RES1    0.0000
      6 N2         4.2728    2.1263    0.0731 N.3       1 RES1    0.0000
      7 N3         4.2696    2.8612    1.1769 N.2       1 RES1    0.0000
      8 N4         5.1657    3.7488    1.1952 N.2       1 RES1    0.0000
      9 N5         7.0061    7.4464    3.7077 N.pl3     1 RES1    0.0000
     10 C1         1.6722   -0.3434    0.7765 C.ar      1 RES1    0.0000
     11 C2         1.5851   -1.0399   -0.4109 C.ar      1 RES1    0.0000
     12 C3         2.3927   -0.6270   -1.4494 C.ar      1 RES1    0.0000
     13 C4         3.2632    0.4283   -1.2900 C.ar      1 RES1    0.0000
     14 C5         3.3429    1.0992   -0.0763 C.ar      1 RES1    0.0000
     15 C6         2.5140    0.7189    0.9785 C.ar      1 RES1    0.0000
     16 C7         6.0406    6.3494    3.6117 C.ar      1 RES1    0.0000
     17 C8         5.1839    6.1309    4.6713 C.ar      1 RES1    0.0000
     18 C9         4.2867    5.0820    4.5770 C.ar      1 RES1    0.0000
     19 C10        4.2563    4.2776    3.4603 C.ar      1 RES1    0.0000
     20 C11        5.1223    4.5222    2.3928 C.ar      1 RES1    0.0000
     21 C12        6.0207    5.5765    2.4651 C.ar      1 RES1    0.0000
     22 H1         4.8289    2.3121   -0.5394 H         1 RES1    0.0000
     23 H2         1.0298   -1.7417   -0.4985 H         1 RES1    0.0000
     24 H3         2.3622   -1.1002   -2.2765 H         1 RES1    0.0000
     25 H4         3.8041    0.7253   -1.9919 H         1 RES1    0.0000
     26 H5         2.5654    1.1318    1.7743 H         1 RES1    0.0000
     27 H6         5.2358    6.7088    5.4197 H         1 RES1    0.0000
     28 H7         3.6457    4.8998    5.2840 H         1 RES1    0.0000
     29 H8         3.6595    3.5432    3.4464 H         1 RES1    0.0000
     30 H9         6.5784    5.7528    1.7427 H         1 RES1    0.0000
@<TRIPOS>BOND
     1    1    5 2
     2    2    5 2
     3    3    9 2
     4    4    9 2
     5    5   10 1
     6    6    7 1
     7    7    8 2
     8    8   20 1
     9    9   16 1
    10   10   11 ar
    11   11   12 ar
    12   12   13 ar
    13   13   14 ar
    14   14    6 1
    15   15   10 ar
    16   16   17 ar
    17   17   18 ar
    18   18   19 ar
    19   19   20 ar
    20   20   21 ar
    21   21   16 ar
    22   22    6 1
    23   23   11 1
    24   24   12 1
    25   25   13 1
    26   26   15 1
    27   27   17 1
    28   28   18 1
    29   29   19 1
    30   30   21 1
    31   14   15 ar
@<TRIPOS>SUBSTRUCTURE
     1 RES1 1

@<TRIPOS>CRYSIN
  12.6760    5.3410   19.4930  90.0000 107.4200  90.0000 231 1

