# MOL2 file generated by ConQuest
# Please check atom types

@<TRIPOS>MOLECULE
SUVLIE
    28    29     1
SMALL
NO_CHARGES
****
Generated from CSD

@<TRIPOS>ATOM
      1 O1         0.9874    0.2025    7.5923 O.2       1 RES1    0.0000
      2 O2         1.6141    1.0560    5.7125 O.2       1 RES1    0.0000
      3 N1         1.0763    1.1443    6.8210 N.pl3     1 RES1    0.0000
      4 C1        -0.6470    1.4770    9.2209 C.1       1 RES1    0.0000
      5 C2        -1.0417    0.6712   10.0226 C.1       1 RES1    0.0000
      6 C3        -1.4846   -0.2604   10.9264 C.1       1 RES1    0.0000
      7 C4        -1.8649   -1.0737   11.7269 C.1       1 RES1    0.0000
      8 C5         0.5212    2.4429    7.2179 C.ar      1 RES1    0.0000
      9 C6        -0.2749    2.5559    8.3636 C.ar      1 RES1    0.0000
     10 C7        -0.7668    3.8417    8.6649 C.ar      1 RES1    0.0000
     11 C8        -0.4760    4.9281    7.8640 C.ar      1 RES1    0.0000
     12 C9         0.3284    4.7799    6.7423 C.ar      1 RES1    0.0000
     13 C10        0.8270    3.5327    6.4141 C.ar      1 RES1    0.0000
     14 C11       -2.3108   -2.0177   12.7042 C.ar      1 RES1    0.0000
     15 C12       -1.9930   -3.3840   12.5804 C.ar      1 RES1    0.0000
     16 C13       -2.4328   -4.2763   13.5459 C.ar      1 RES1    0.0000
     17 C14       -3.1695   -3.8379   14.6290 C.ar      1 RES1    0.0000
     18 C15       -3.4858   -2.4834   14.7575 C.ar      1 RES1    0.0000
     19 C16       -3.0603   -1.5807   13.7968 C.ar      1 RES1    0.0000
     20 H1        -1.3445    3.9648    9.4272 H         1 RES1    0.0000
     21 H2        -0.8225    5.8516    8.1089 H         1 RES1    0.0000
     22 H3         0.5129    5.5542    6.1718 H         1 RES1    0.0000
     23 H4         1.3859    3.4098    5.6431 H         1 RES1    0.0000
     24 H5        -1.4107   -3.6674   11.8243 H         1 RES1    0.0000
     25 H6        -2.2242   -5.2249   13.4343 H         1 RES1    0.0000
     26 H7        -3.4610   -4.4561   15.3216 H         1 RES1    0.0000
     27 H8        -4.0484   -2.1763   15.5255 H         1 RES1    0.0000
     28 H9        -3.2629   -0.6387   13.8421 H         1 RES1    0.0000
@<TRIPOS>BOND
     1    1    3 2
     2    2    3 2
     3    3    8 1
     4    4    5 3
     5    5    6 1
     6    6    7 3
     7    7   14 1
     8    8    9 ar
     9    9    4 1
    10   10    9 ar
    11   11   10 ar
    12   12   11 ar
    13   13    8 ar
    14   14   15 ar
    15   15   16 ar
    16   16   17 ar
    17   17   18 ar
    18   18   19 ar
    19   19   14 ar
    20   20   10 1
    21   21   11 1
    22   22   12 1
    23   23   13 1
    24   24   15 1
    25   25   16 1
    26   26   17 1
    27   27   18 1
    28   28   19 1
    29   12   13 ar
@<TRIPOS>SUBSTRUCTURE
     1 RES1 1

@<TRIPOS>CRYSIN
   7.5320   13.2780   23.7103  90.0000  90.0000  90.0000  61 1

