# MOL2 file generated by ConQuest
# Please check atom types

@<TRIPOS>MOLECULE
SUWFIZ
    72    76     2
SMALL
NO_CHARGES
****
Generated from CSD

@<TRIPOS>ATOM
      1 N1        -0.3053    5.7689    3.5252 N.3       1 RES1    0.0000
      2 N2         1.3135    3.8381    8.6175 N.pl3     1 RES1    0.0000
      3 O1         1.6824    2.6696    8.7398 O.2       1 RES1    0.0000
      4 O2         0.4452    1.7468    4.8922 O.3       1 RES1    0.0000
      5 O3         1.3129    4.6444    9.5523 O.2       1 RES1    0.0000
      6 N3         0.1622    2.8627    4.1497 N.2       1 RES1    0.0000
      7 N4         0.7885    2.0598    6.2056 N.2       1 RES1    0.0000
      8 N5        -0.1211   10.4825    6.1435 N.pl3     2 RES2    0.0000
      9 N6         1.3615   12.3890   11.2956 N.3       2 RES2    0.0000
     10 O4        -0.1070   11.2906    5.2171 O.2       2 RES2    0.0000
     11 O5         0.7370    8.3653    9.8678 O.3       2 RES2    0.0000
     12 N7         0.4098    8.6870    8.5542 N.2       2 RES2    0.0000
     13 O6        -0.4879    9.3133    6.0164 O.2       2 RES2    0.0000
     14 N8         0.9795    9.4807   10.6317 N.2       2 RES2    0.0000
     15 C1         0.0823    5.2917    4.7270 C.2       1 RES1    0.0000
     16 C2         0.2583    6.0978    5.8480 C.2       1 RES1    0.0000
     17 H1         0.1142    7.0140    5.7636 H         1 RES1    0.0000
     18 C3         0.6410    5.5952    7.0899 C.2       1 RES1    0.0000
     19 H2         0.7341    6.1947    7.7945 H         1 RES1    0.0000
     20 C4         0.8874    4.2786    7.3315 C.2       1 RES1    0.0000
     21 C5         0.7050    3.3727    6.2549 C.2       1 RES1    0.0000
     22 C6         0.3141    3.8723    4.9675 C.2       1 RES1    0.0000
     23 C7        -0.2081    4.9930    2.2838 C.3       1 RES1    0.0000
     24 H3        -0.6787    5.4680    1.5812 H         1 RES1    0.0000
     25 H4        -0.6525    4.1401    2.4130 H         1 RES1    0.0000
     26 C8         1.2334    4.7359    1.8267 C.3       1 RES1    0.0000
     27 H5         1.2279    4.5885    0.8685 H         1 RES1    0.0000
     28 H6         1.5435    3.9168    2.2455 H         1 RES1    0.0000
     29 C9         2.2521    5.8599    2.1426 C.3       1 RES1    0.0000
     30 H7         2.1880    6.0623    3.0890 H         1 RES1    0.0000
     31 H8         3.1418    5.5063    1.9854 H         1 RES1    0.0000
     32 C10        2.1319    7.1443    1.3902 C.3       1 RES1    0.0000
     33 H9         2.2209    6.9404    0.4467 H         1 RES1    0.0000
     34 H10        2.8890    7.6987    1.6341 H         1 RES1    0.0000
     35 C11        0.8820    7.9761    1.5621 C.3       1 RES1    0.0000
     36 H11        0.1771    7.5742    1.0316 H         1 RES1    0.0000
     37 H12        1.0544    8.8567    1.1933 H         1 RES1    0.0000
     38 C12        0.3619    8.1530    2.9773 C.3       1 RES1    0.0000
     39 H13        1.1067    8.0675    3.5916 H         1 RES1    0.0000
     40 H14        0.0107    9.0525    3.0655 H         1 RES1    0.0000
     41 C13       -0.7166    7.1728    3.3903 C.3       1 RES1    0.0000
     42 H15       -1.0808    7.4650    4.2397 H         1 RES1    0.0000
     43 H16       -1.4323    7.2184    2.7378 H         1 RES1    0.0000
     44 C14        0.2853   10.9145    7.4405 C.2       2 RES2    0.0000
     45 C15        0.5141   12.2377    7.6989 C.2       2 RES2    0.0000
     46 H17        0.4345   12.8411    6.9966 H         2 RES2    0.0000
     47 C16        0.8594   12.7322    8.9531 C.2       2 RES2    0.0000
     48 H18        0.9912   13.6471    9.0481 H         2 RES2    0.0000
     49 C17        1.0168   11.9198   10.0735 C.2       2 RES2    0.0000
     50 C18        0.8194   10.4984    9.8150 C.2       2 RES2    0.0000
     51 C19        0.4613   10.0034    8.5151 C.2       2 RES2    0.0000
     52 C20        1.7494   13.7976   11.4479 C.3       2 RES2    0.0000
     53 H19        2.1452   14.0961   10.6131 H         2 RES2    0.0000
     54 H20        2.4361   13.8520   12.1297 H         2 RES2    0.0000
     55 C21        0.6365   14.7621   11.8152 C.3       2 RES2    0.0000
     56 H21       -0.0838   14.6601   11.1731 H         2 RES2    0.0000
     57 H22        0.9739   15.6674   11.7344 H         2 RES2    0.0000
     58 C22        0.0608   14.5821   13.2231 C.3       2 RES2    0.0000
     59 H23        0.7474   14.1840   13.7815 H         2 RES2    0.0000
     60 H24       -0.1315   15.4609   13.5846 H         2 RES2    0.0000
     61 C23       -1.1977   13.7338   13.3421 C.3       2 RES2    0.0000
     62 H25       -1.3233   13.5199   14.2797 H         2 RES2    0.0000
     63 H26       -1.9503   14.2824   13.0702 H         2 RES2    0.0000
     64 C24       -1.2669   12.4391   12.5618 C.3       2 RES2    0.0000
     65 H27       -1.1596   12.6506   11.6213 H         2 RES2    0.0000
     66 H28       -2.1570   12.0704   12.6735 H         2 RES2    0.0000
     67 C25       -0.2652   11.3584   12.9145 C.3       2 RES2    0.0000
     68 H29       -0.5461   10.5343   12.4854 H         2 RES2    0.0000
     69 H30       -0.3033   11.2133   13.8726 H         2 RES2    0.0000
     70 C26        1.1913   11.6205   12.5309 C.3       2 RES2    0.0000
     71 H31        1.6225   12.0982   13.2569 H         2 RES2    0.0000
     72 H32        1.6446   10.7680   12.4325 H         2 RES2    0.0000
@<TRIPOS>BOND
     1    1   15 1
     2    2    3 2
     3    4    6 1
     4    5    2 2
     5    6   22 2
     6    7    4 1
     7    8   10 2
     8    9   49 1
     9   11   12 1
    10   12   51 2
    11   13    8 2
    12   14   11 1
    13   15   16 2
    14   16   17 1
    15   18   16 1
    16   19   18 1
    17   20    2 1
    18   21    7 2
    19   22   15 1
    20   23    1 1
    21   24   23 1
    22   25   23 1
    23   26   23 1
    24   27   26 1
    25   28   26 1
    26   29   26 1
    27   30   29 1
    28   31   29 1
    29   32   29 1
    30   33   32 1
    31   34   32 1
    32   35   32 1
    33   36   35 1
    34   37   35 1
    35   38   35 1
    36   39   38 1
    37   40   38 1
    38   41    1 1
    39   42   41 1
    40   43   41 1
    41   44    8 1
    42   45   44 2
    43   46   45 1
    44   47   45 1
    45   48   47 1
    46   49   47 2
    47   50   14 2
    48   51   44 1
    49   52    9 1
    50   53   52 1
    51   54   52 1
    52   55   52 1
    53   56   55 1
    54   57   55 1
    55   58   55 1
    56   59   58 1
    57   60   58 1
    58   61   58 1
    59   62   61 1
    60   63   61 1
    61   64   61 1
    62   65   64 1
    63   66   64 1
    64   67   64 1
    65   68   67 1
    66   69   67 1
    67   70    9 1
    68   71   70 1
    69   72   70 1
    70   18   20 2
    71   20   21 1
    72   21   22 1
    73   38   41 1
    74   49   50 1
    75   50   51 1
    76   67   70 1
@<TRIPOS>SUBSTRUCTURE
     1 RES1 1
     2 RES2 8

@<TRIPOS>CRYSIN
   6.6850   13.2357   14.8763  93.6770  98.1140  90.3590   2 1

