# MOL2 file generated by ConQuest
# Please check atom types

@<TRIPOS>MOLECULE
SUWXIR
    38    38     1
SMALL
NO_CHARGES
****
Generated from CSD

@<TRIPOS>ATOM
      1 O1         7.7004    1.1668    2.2772 O.2       1 RES1    0.0000
      2 O2         7.7563    4.6519    5.3334 O.2       1 RES1    0.0000
      3 O3         7.7223    5.1280    1.8851 O.3       1 RES1    0.0000
      4 H1         9.8098    1.0663    2.2146 H         1 RES1    0.0000
      5 O4        10.4472    1.6419    2.0759 O.3       1 RES1    0.0000
      6 H2         7.8492    4.8265    1.1234 H         1 RES1    0.0000
      7 N1         7.3967    1.9533    3.2557 N.pl3     1 RES1    0.0000
      8 N2         7.4052    3.5899    4.6924 N.3       1 RES1    0.0000
      9 C1         8.0811    3.0389    3.6514 C.2       1 RES1    0.0000
     10 C2         6.2526    1.6060    4.1834 C.3       1 RES1    0.0000
     11 C3         6.0208    3.0011    4.8374 C.3       1 RES1    0.0000
     12 C4         6.8037    0.5695    5.1451 C.3       1 RES1    0.0000
     13 H3         7.0595   -0.2312    4.6423 H         1 RES1    0.0000
     14 H4         6.1118    0.3397    5.7997 H         1 RES1    0.0000
     15 H5         7.5883    0.9247    5.6121 H         1 RES1    0.0000
     16 C5         5.0783    1.0620    3.4068 C.3       1 RES1    0.0000
     17 H6         4.8826    1.6419    2.6419 H         1 RES1    0.0000
     18 H7         4.2937    1.0191    3.9939 H         1 RES1    0.0000
     19 H8         5.2929    0.1604    3.0860 H         1 RES1    0.0000
     20 C6         5.6002    2.9549    6.2896 C.3       1 RES1    0.0000
     21 H9         6.2286    2.3967    6.7950 H         1 RES1    0.0000
     22 H10        4.7006    2.5713    6.3546 H         1 RES1    0.0000
     23 H11        5.5985    3.8640    6.6587 H         1 RES1    0.0000
     24 C7         5.0989    3.9207    4.0248 C.3       1 RES1    0.0000
     25 H12        5.0852    4.8124    4.4342 H         1 RES1    0.0000
     26 H13        4.1924    3.5479    4.0186 H         1 RES1    0.0000
     27 H14        5.4302    3.9867    3.1052 H         1 RES1    0.0000
     28 C8         9.3265    3.6329    3.0631 C.3       1 RES1    0.0000
     29 C9        10.4484    3.7371    4.1245 C.3       1 RES1    0.0000
     30 H15       10.6854    2.8497    4.4069 H         1 RES1    0.0000
     31 H16       11.2176    4.1660    3.7443 H         1 RES1    0.0000
     32 H17       10.1411    4.2415    4.8813 H         1 RES1    0.0000
     33 C10        8.9428    5.0936    2.6054 C.3       1 RES1    0.0000
     34 H18        8.8570    5.6569    3.3764 H         1 RES1    0.0000
     35 H19        9.6467    5.4493    2.0567 H         1 RES1    0.0000
     36 C11        9.8407    2.9129    1.8201 C.3       1 RES1    0.0000
     37 H20        9.1025    2.7883    1.2200 H         1 RES1    0.0000
     38 H21       10.4845    3.4677    1.3755 H         1 RES1    0.0000
@<TRIPOS>BOND
     1    1    7 1
     2    2    8 1
     3    3    6 1
     4    4    5 1
     5    5   36 1
     6    7    9 2
     7    8    9 1
     8    9   28 1
     9   10    7 1
    10   11    8 1
    11   12   10 1
    12   13   12 1
    13   14   12 1
    14   15   12 1
    15   16   10 1
    16   17   16 1
    17   18   16 1
    18   19   16 1
    19   20   11 1
    20   21   20 1
    21   22   20 1
    22   23   20 1
    23   24   11 1
    24   25   24 1
    25   26   24 1
    26   27   24 1
    27   28   29 1
    28   29   30 1
    29   31   29 1
    30   32   29 1
    31   33    3 1
    32   34   33 1
    33   35   33 1
    34   36   28 1
    35   37   36 1
    36   38   36 1
    37   10   11 1
    38   28   33 1
@<TRIPOS>SUBSTRUCTURE
     1 RES1 1

@<TRIPOS>CRYSIN
  17.1680   47.1800    6.1930  90.0000  90.0000  90.0000  43 1

