# MOL2 file generated by ConQuest
# Please check atom types

@<TRIPOS>MOLECULE
SUWYEO
    47    52     1
SMALL
NO_CHARGES
****
Generated from CSD

@<TRIPOS>ATOM
      1 C1         4.1052   -0.1447   14.3271 C.3       1 RES1    0.0000
      2 C2         4.3987    1.2884   14.8179 C.3       1 RES1    0.0000
      3 N1         3.5597    2.1275   13.9267 N.3       1 RES1    0.0000
      4 C3         2.4182    1.3288   13.6117 C.ar      1 RES1    0.0000
      5 C4         1.1965    1.7685   13.1161 C.ar      1 RES1    0.0000
      6 C5         0.2498    0.8056   12.8133 C.ar      1 RES1    0.0000
      7 C6         0.5281   -0.5420   12.9647 C.ar      1 RES1    0.0000
      8 C7         1.7555   -0.9566   13.4457 C.ar      1 RES1    0.0000
      9 C8         2.6989   -0.0125   13.7900 C.ar      1 RES1    0.0000
     10 C9         5.8683    1.6822   14.7373 C.ar      1 RES1    0.0000
     11 C10        6.2687    2.9018   14.2514 C.ar      1 RES1    0.0000
     12 C11        7.6158    3.2607   14.2221 C.ar      1 RES1    0.0000
     13 C12        8.5722    2.3612   14.6665 C.ar      1 RES1    0.0000
     14 C13        8.1908    1.1486   15.1450 C.ar      1 RES1    0.0000
     15 C14        6.8348    0.7889   15.1817 C.ar      1 RES1    0.0000
     16 O1         3.2146    3.3150   14.6811 O.3       1 RES1    0.0000
     17 C15        3.0281    2.8983   16.0411 C.3       1 RES1    0.0000
     18 C16        1.5781    2.5115   16.3341 C.2       1 RES1    0.0000
     19 O2         0.5958    3.1821   16.1510 O.2       1 RES1    0.0000
     20 N2         1.5791    1.2272   16.8541 N.am      1 RES1    0.0000
     21 C17        2.8533    0.6484   16.8566 C.2       1 RES1    0.0000
     22 O3         3.1067   -0.4446   17.3058 O.2       1 RES1    0.0000
     23 C18        3.8386    1.6307   16.2559 C.3       1 RES1    0.0000
     24 C19        0.4235    0.5656   17.3864 C.ar      1 RES1    0.0000
     25 C20        0.0724   -0.6874   16.9298 C.ar      1 RES1    0.0000
     26 C21       -1.0310   -1.3211   17.4694 C.ar      1 RES1    0.0000
     27 C22       -1.7630   -0.7117   18.4631 C.ar      1 RES1    0.0000
     28 C23       -1.4030    0.5378   18.9270 C.ar      1 RES1    0.0000
     29 C24       -0.3088    1.1938   18.3825 C.ar      1 RES1    0.0000
     30 H1         3.2956    3.6740   16.5270 H         1 RES1    0.0000
     31 H2         4.1931   -0.7945   15.0352 H         1 RES1    0.0000
     32 H3         4.7371   -0.4341   13.5580 H         1 RES1    0.0000
     33 H4         0.0168    2.0843   18.6487 H         1 RES1    0.0000
     34 H5         4.5919    1.7483   16.8956 H         1 RES1    0.0000
     35 H6         1.9034   -1.9570   13.6068 H         1 RES1    0.0000
     36 H7        -1.2469   -2.2353   17.1276 H         1 RES1    0.0000
     37 H8         5.6511    3.5648   13.9340 H         1 RES1    0.0000
     38 H9         0.9773    2.7689   13.0477 H         1 RES1    0.0000
     39 H10        9.5173    2.7139   14.6006 H         1 RES1    0.0000
     40 H11        6.5888   -0.1851   15.4722 H         1 RES1    0.0000
     41 H12       -1.9004    0.9969   19.6253 H         1 RES1    0.0000
     42 H13       -2.5525   -1.1632   18.9221 H         1 RES1    0.0000
     43 H14       -0.1441   -1.1896   12.7816 H         1 RES1    0.0000
     44 H15        0.6504   -1.0804   16.2901 H         1 RES1    0.0000
     45 H16       -0.6821    1.1173   12.5228 H         1 RES1    0.0000
     46 H17        8.8721    0.5315   15.4673 H         1 RES1    0.0000
     47 H18        7.9239    4.2382   13.9609 H         1 RES1    0.0000
@<TRIPOS>BOND
     1    1    2 1
     2    2    3 1
     3    3    4 1
     4    4    5 ar
     5    5    6 ar
     6    6    7 ar
     7    7    8 ar
     8    8    9 ar
     9    9    1 1
    10   10    2 1
    11   11   10 ar
    12   12   11 ar
    13   13   12 ar
    14   14   13 ar
    15   15   10 ar
    16   16    3 1
    17   17   16 1
    18   18   17 1
    19   19   18 2
    20   20   18 1
    21   21   20 1
    22   22   21 2
    23   23    2 1
    24   24   20 1
    25   25   24 ar
    26   26   25 ar
    27   27   26 ar
    28   28   27 ar
    29   29   24 ar
    30   30   17 1
    31   31    1 1
    32   32    1 1
    33   33   29 1
    34   34   23 1
    35   35    8 1
    36   36   26 1
    37   37   11 1
    38   38    5 1
    39   39   13 1
    40   40   15 1
    41   41   28 1
    42   42   27 1
    43   43    7 1
    44   44   25 1
    45   45    6 1
    46   46   14 1
    47   47   12 1
    48    4    9 ar
    49   14   15 ar
    50   17   23 1
    51   21   23 1
    52   28   29 ar
@<TRIPOS>SUBSTRUCTURE
     1 RES1 1

@<TRIPOS>CRYSIN
  11.1130    6.9570   24.7200  90.0000  99.0000  90.0000  14 1

