# MOL2 file generated by ConQuest
# Please check atom types

@<TRIPOS>MOLECULE
SUXZOC
    65    68     1
SMALL
NO_CHARGES
****
Generated from CSD

@<TRIPOS>ATOM
      1 N1         4.3037    3.2220    6.6194 N.3       1 RES1    0.0000
      2 O1         0.2638    0.9936   -1.8099 O.2       1 RES1    0.0000
      3 O2        -1.6167    1.2559   -0.7388 O.3       1 RES1    0.0000
      4 O3         0.0227    0.5940    4.8394 O.2       1 RES1    0.0000
      5 O4         1.9220    1.1264    3.9250 O.3       1 RES1    0.0000
      6 O5         5.1070    3.8561    7.3819 O.2       1 RES1    0.0000
      7 C1        -3.0483    3.0229   -1.1549 C.3       1 RES1    0.0000
      8 H1        -3.8277    2.5058   -0.9399 H         1 RES1    0.0000
      9 H2        -3.2850    3.7150   -1.7758 H         1 RES1    0.0000
     10 H3        -2.6970    3.4195   -0.3528 H         1 RES1    0.0000
     11 C2        -2.0939    2.2043   -1.7203 C.3       1 RES1    0.0000
     12 H4        -1.3529    2.7410   -2.0416 H         1 RES1    0.0000
     13 H5        -2.4754    1.7293   -2.4741 H         1 RES1    0.0000
     14 C3        -0.4306    0.7237   -0.8896 C.2       1 RES1    0.0000
     15 C4        -0.0850   -0.2207    0.2370 C.3       1 RES1    0.0000
     16 C5         1.1861   -1.0192   -0.0877 C.3       1 RES1    0.0000
     17 H6         1.0476   -1.5439   -0.8915 H         1 RES1    0.0000
     18 H7         1.9246   -0.4101   -0.2464 H         1 RES1    0.0000
     19 C6         1.5179   -1.9365    1.0723 C.3       1 RES1    0.0000
     20 H8         2.3237   -2.4485    0.8529 H         1 RES1    0.0000
     21 C7         1.7817   -1.1116    2.3366 C.3       1 RES1    0.0000
     22 H9         2.5226   -0.5051    2.1842 H         1 RES1    0.0000
     23 H10        2.0159   -1.7007    3.0709 H         1 RES1    0.0000
     24 C8         0.5206   -0.3142    2.6913 C.3       1 RES1    0.0000
     25 C9         0.1700    0.6068    1.5118 C.3       1 RES1    0.0000
     26 H11        0.8996    1.2273    1.3554 H         1 RES1    0.0000
     27 H12       -0.6226    1.1232    1.7275 H         1 RES1    0.0000
     28 C10       -1.2421   -1.1903    0.5062 C.3       1 RES1    0.0000
     29 H13       -2.0461   -0.6905    0.7176 H         1 RES1    0.0000
     30 H14       -1.4146   -1.7218   -0.2851 H         1 RES1    0.0000
     31 C11       -0.8826   -2.1069    1.6748 C.3       1 RES1    0.0000
     32 H15       -1.6236   -2.7274    1.8362 H         1 RES1    0.0000
     33 C12        0.3727   -2.9034    1.3359 C.3       1 RES1    0.0000
     34 H16        0.2147   -3.4496    0.5509 H         1 RES1    0.0000
     35 H17        0.6000   -3.4903    2.0730 H         1 RES1    0.0000
     36 C13       -0.6409   -1.2717    2.9334 C.3       1 RES1    0.0000
     37 H18       -1.4404   -0.7689    3.1530 H         1 RES1    0.0000
     38 H19       -0.4350   -1.8560    3.6797 H         1 RES1    0.0000
     39 C14        0.7548    0.5331    3.9182 C.2       1 RES1    0.0000
     40 C15        2.3010    1.9754    5.0397 C.3       1 RES1    0.0000
     41 H20        1.5147    2.3957    5.4459 H         1 RES1    0.0000
     42 C16        3.0660    1.1673    6.0494 C.3       1 RES1    0.0000
     43 H21        3.7906    0.7056    5.5981 H         1 RES1    0.0000
     44 H22        2.4761    0.4945    6.4244 H         1 RES1    0.0000
     45 C17        3.6489    2.0110    7.1922 C.3       1 RES1    0.0000
     46 C18        3.7566    3.9871    5.4708 C.3       1 RES1    0.0000
     47 C19        3.2070    2.9949    4.4406 C.3       1 RES1    0.0000
     48 H23        2.7228    3.4843    3.7570 H         1 RES1    0.0000
     49 H24        3.9499    2.5435    4.0107 H         1 RES1    0.0000
     50 C20        2.5743    2.4364    8.1860 C.3       1 RES1    0.0000
     51 H25        2.9545    3.0380    8.8308 H         1 RES1    0.0000
     52 H26        2.2312    1.6615    8.6376 H         1 RES1    0.0000
     53 H27        1.8616    2.8767    7.7170 H         1 RES1    0.0000
     54 C21        4.7204    1.2167    7.9055 C.3       1 RES1    0.0000
     55 H28        5.4583    1.0690    7.3087 H         1 RES1    0.0000
     56 H29        4.3603    0.3724    8.1857 H         1 RES1    0.0000
     57 H30        5.0233    1.7067    8.6738 H         1 RES1    0.0000
     58 C22        2.6819    4.9588    5.9637 C.3       1 RES1    0.0000
     59 H31        1.9158    4.4643    6.2649 H         1 RES1    0.0000
     60 H32        2.4244    5.5423    5.2454 H         1 RES1    0.0000
     61 H33        3.0307    5.4805    6.6902 H         1 RES1    0.0000
     62 C23        4.9049    4.7734    4.8549 C.3       1 RES1    0.0000
     63 H34        5.2524    5.3915    5.5015 H         1 RES1    0.0000
     64 H35        4.5876    5.2573    4.0880 H         1 RES1    0.0000
     65 H36        5.5999    4.1688    4.5858 H         1 RES1    0.0000
@<TRIPOS>BOND
     1    1    6 1
     2    2   14 2
     3    3   11 1
     4    4   39 2
     5    5   39 1
     6    7    8 1
     7    9    7 1
     8   10    7 1
     9   11    7 1
    10   12   11 1
    11   13   11 1
    12   14    3 1
    13   15   14 1
    14   16   15 1
    15   17   16 1
    16   18   16 1
    17   19   16 1
    18   20   19 1
    19   21   19 1
    20   22   21 1
    21   23   21 1
    22   24   21 1
    23   25   15 1
    24   26   25 1
    25   27   25 1
    26   28   15 1
    27   29   28 1
    28   30   28 1
    29   31   28 1
    30   32   31 1
    31   33   19 1
    32   34   33 1
    33   35   33 1
    34   36   24 1
    35   37   36 1
    36   38   36 1
    37   39   24 1
    38   40    5 1
    39   41   40 1
    40   42   40 1
    41   43   42 1
    42   44   42 1
    43   45    1 1
    44   46    1 1
    45   47   40 1
    46   48   47 1
    47   49   47 1
    48   50   45 1
    49   51   50 1
    50   52   50 1
    51   53   50 1
    52   54   45 1
    53   55   54 1
    54   56   54 1
    55   57   54 1
    56   58   46 1
    57   59   58 1
    58   60   58 1
    59   61   58 1
    60   62   46 1
    61   63   62 1
    62   64   62 1
    63   65   62 1
    64   24   25 1
    65   31   33 1
    66   31   36 1
    67   42   45 1
    68   46   47 1
@<TRIPOS>SUBSTRUCTURE
     1 RES1 1

@<TRIPOS>CRYSIN
   6.2956   15.0770   24.1610  90.0000  90.0000  90.0000  19 1

