# MOL2 file generated by ConQuest
# Please check atom types

@<TRIPOS>MOLECULE
SUYMEE
    71    75     2
SMALL
NO_CHARGES
****
Generated from CSD

@<TRIPOS>ATOM
      1 N1         1.9718    1.1921    4.5930 N.3       1 RES1    0.0000
      2 H1         1.2099    1.2834    4.9928 Du        2 SUP2    0.0000
      3 O1         2.8102    2.2624    5.0830 O.3       1 RES1    0.0000
      4 C1         1.5460    1.4699    3.2133 C.3       1 RES1    0.0000
      5 C2         0.7470    0.2021    2.8471 C.ar      1 RES1    0.0000
      6 C3        -0.0796   -0.4092    3.7835 C.ar      1 RES1    0.0000
      7 H2        -0.1496   -0.0432    4.6571 H         1 RES1    0.0000
      8 C4        -0.8027   -1.5509    3.4560 C.ar      1 RES1    0.0000
      9 H3        -1.3612   -1.9592    4.1075 H         1 RES1    0.0000
     10 C5        -0.7157   -2.0916    2.1930 C.ar      1 RES1    0.0000
     11 H4        -1.2075   -2.8737    1.9720 H         1 RES1    0.0000
     12 C6         0.0882   -1.4926    1.2541 C.ar      1 RES1    0.0000
     13 H5         0.1482   -1.8597    0.3803 H         1 RES1    0.0000
     14 C7         0.8168   -0.3488    1.5774 C.ar      1 RES1    0.0000
     15 H6         1.3675    0.0582    0.9192 H         1 RES1    0.0000
     16 C8         2.7892    1.5763    2.3293 C.ar      1 RES1    0.0000
     17 C9         2.8234    2.3871    1.2016 C.ar      1 RES1    0.0000
     18 H7         2.0737    2.9327    0.9937 H         1 RES1    0.0000
     19 C10        3.9398    2.4109    0.3738 C.ar      1 RES1    0.0000
     20 H8         3.9500    2.9751   -0.3909 H         1 RES1    0.0000
     21 C11        5.0297    1.6200    0.6580 C.ar      1 RES1    0.0000
     22 H9         5.7951    1.6419    0.0958 H         1 RES1    0.0000
     23 C12        5.0049    0.7950    1.7639 C.ar      1 RES1    0.0000
     24 H10        5.7513    0.2395    1.9565 H         1 RES1    0.0000
     25 C13        3.8948    0.7718    2.5971 C.ar      1 RES1    0.0000
     26 H11        3.8888    0.2022    3.3576 H         1 RES1    0.0000
     27 C14        0.6657    2.7329    3.1342 C.ar      1 RES1    0.0000
     28 C15       -0.6840    2.6730    2.8207 C.ar      1 RES1    0.0000
     29 H12       -1.0869    1.8290    2.6551 H         1 RES1    0.0000
     30 C16       -1.4592    3.8257    2.7447 C.ar      1 RES1    0.0000
     31 H13       -2.3815    3.7616    2.5293 H         1 RES1    0.0000
     32 C17       -0.8922    5.0645    2.9806 C.ar      1 RES1    0.0000
     33 H14       -1.4195    5.8526    2.9299 H         1 RES1    0.0000
     34 C18        0.4475    5.1389    3.2906 C.ar      1 RES1    0.0000
     35 H15        0.8423    5.9864    3.4582 H         1 RES1    0.0000
     36 C19        1.2260    3.9977    3.3612 C.ar      1 RES1    0.0000
     37 H16        2.1510    4.0718    3.5656 H         1 RES1    0.0000
     38 C1A        3.2360    1.9845    6.4627 C.3       1 RES1    0.0000
     39 C2A        4.0350    3.2524    6.8289 C.ar      1 RES1    0.0000
     40 C3A        4.8616    3.8637    5.8925 C.ar      1 RES1    0.0000
     41 H2A        4.9316    3.4977    5.0189 H         1 RES1    0.0000
     42 C4A        5.5847    5.0053    6.2200 C.ar      1 RES1    0.0000
     43 H3A        6.1432    5.4136    5.5685 H         1 RES1    0.0000
     44 C5A        5.4977    5.5460    7.4830 C.ar      1 RES1    0.0000
     45 H4A        5.9895    6.3282    7.7040 H         1 RES1    0.0000
     46 C6A        4.6938    4.9470    8.4219 C.ar      1 RES1    0.0000
     47 H5A        4.6338    5.3141    9.2957 H         1 RES1    0.0000
     48 C7A        3.9652    3.8033    8.0986 C.ar      1 RES1    0.0000
     49 H6A        3.4145    3.3963    8.7568 H         1 RES1    0.0000
     50 C8A        1.9928    1.8781    7.3467 C.ar      1 RES1    0.0000
     51 C9A        1.9585    1.0673    8.4744 C.ar      1 RES1    0.0000
     52 H7A        2.7083    0.5217    8.6823 H         1 RES1    0.0000
     53 C10A       0.8422    1.0435    9.3022 C.ar      1 RES1    0.0000
     54 H8A        0.8320    0.4793   10.0669 H         1 RES1    0.0000
     55 C11A      -0.2477    1.8344    9.0180 C.ar      1 RES1    0.0000
     56 H9A       -1.0131    1.8126    9.5802 H         1 RES1    0.0000
     57 C12A      -0.2229    2.6594    7.9121 C.ar      1 RES1    0.0000
     58 H10A      -0.9693    3.2149    7.7195 H         1 RES1    0.0000
     59 C13A       0.8872    2.6826    7.0789 C.ar      1 RES1    0.0000
     60 H11A       0.8932    3.2523    6.3184 H         1 RES1    0.0000
     61 C14A       4.1163    0.7215    6.5417 C.ar      1 RES1    0.0000
     62 C15A       5.4660    0.7814    6.8552 C.ar      1 RES1    0.0000
     63 H12A       5.8689    1.6254    7.0209 H         1 RES1    0.0000
     64 C16A       6.2412   -0.3713    6.9313 C.ar      1 RES1    0.0000
     65 H13A       7.1635   -0.3071    7.1467 H         1 RES1    0.0000
     66 C17A       5.6742   -1.6101    6.6954 C.ar      1 RES1    0.0000
     67 H14A       6.2015   -2.3982    6.7461 H         1 RES1    0.0000
     68 C18A       4.3345   -1.6845    6.3854 C.ar      1 RES1    0.0000
     69 H15A       3.9397   -2.5320    6.2178 H         1 RES1    0.0000
     70 C19A       3.5560   -0.5432    6.3147 C.ar      1 RES1    0.0000
     71 H16A       2.6310   -0.6174    6.1104 H         1 RES1    0.0000
@<TRIPOS>BOND
     1    1    3 1
     2    3   38 1
     3    4    1 1
     4    5    4 1
     5    6    5 ar
     6    7    6 1
     7    8    6 ar
     8    9    8 1
     9   10    8 ar
    10   11   10 1
    11   12   10 ar
    12   13   12 1
    13   14    5 ar
    14   15   14 1
    15   16    4 1
    16   17   16 ar
    17   18   17 1
    18   19   17 ar
    19   20   19 1
    20   21   19 ar
    21   22   21 1
    22   23   21 ar
    23   24   23 1
    24   25   16 ar
    25   26   25 1
    26   27    4 1
    27   28   27 ar
    28   29   28 1
    29   30   28 ar
    30   31   30 1
    31   32   30 ar
    32   33   32 1
    33   34   32 ar
    34   35   34 1
    35   36   27 ar
    36   37   36 1
    37   38   39 1
    38   39   40 ar
    39   40   41 1
    40   42   40 ar
    41   43   42 1
    42   44   42 ar
    43   45   44 1
    44   46   44 ar
    45   47   46 1
    46   48   39 ar
    47   49   48 1
    48   50   38 1
    49   51   50 ar
    50   52   51 1
    51   53   51 ar
    52   54   53 1
    53   55   53 ar
    54   56   55 1
    55   57   55 ar
    56   58   57 1
    57   59   50 ar
    58   60   59 1
    59   61   38 1
    60   62   61 ar
    61   63   62 1
    62   64   62 ar
    63   65   64 1
    64   66   64 ar
    65   67   66 1
    66   68   66 ar
    67   69   68 1
    68   70   61 ar
    69   71   70 1
    70   12   14 ar
    71   23   25 ar
    72   34   36 ar
    73   46   48 ar
    74   57   59 ar
    75   68   70 ar
@<TRIPOS>SUBSTRUCTURE
     1 RES1 1
     2 SUP2 2

@<TRIPOS>CRYSIN
   8.6770    9.0420   10.7690 113.2900  90.2400 115.2000   2 1

