# MOL2 file generated by ConQuest
# Please check atom types

@<TRIPOS>MOLECULE
SUYREK
    30    30     1
SMALL
NO_CHARGES
****
Generated from CSD

@<TRIPOS>ATOM
      1 C1        -1.5587    0.5721    9.0960 C.2       1 RES1    0.0000
      2 H1        -0.8949    0.5906    8.4446 H         1 RES1    0.0000
      3 C2        -1.1843    0.5932   10.4585 C.2       1 RES1    0.0000
      4 C3        -1.2923    0.5453   12.7767 C.3       1 RES1    0.0000
      5 H2        -1.4773   -0.2658   13.2749 H         1 RES1    0.0000
      6 H3        -1.5289    1.3138   13.3190 H         1 RES1    0.0000
      7 C4         0.1586    0.6043   12.3407 C.3       1 RES1    0.0000
      8 H4         0.5943    1.3982   12.6889 H         1 RES1    0.0000
      9 H5         0.6443   -0.1799   12.6420 H         1 RES1    0.0000
     10 C5         1.2751    0.5925   10.0513 C.3       1 RES1    0.0000
     11 H6         1.0363    0.2651    9.1700 H         1 RES1    0.0000
     12 H7         1.8991   -0.0391   10.4430 H         1 RES1    0.0000
     13 C6         1.9578    1.9322    9.9086 C.3       1 RES1    0.0000
     14 H8         1.9143    2.3920   10.7730 H         1 RES1    0.0000
     15 C7         1.6997    4.0141    8.8709 C.3       1 RES1    0.0000
     16 H9         1.7600    4.4021    9.7475 H         1 RES1    0.0000
     17 H10        1.0920    4.5285    8.3351 H         1 RES1    0.0000
     18 H11        2.5677    4.0148    8.4602 H         1 RES1    0.0000
     19 C8         3.5560    1.1441    8.3078 C.3       1 RES1    0.0000
     20 H12        3.2287    0.2431    8.3536 H         1 RES1    0.0000
     21 H13        4.5006    1.1332    8.1345 H         1 RES1    0.0000
     22 H14        3.1072    1.6132    7.5997 H         1 RES1    0.0000
     23 N1        -2.8471    0.5259    8.7144 N.pl3     1 RES1    0.0000
     24 N2        -2.0024    0.5576   11.5042 N.3       1 RES1    0.0000
     25 H15       -2.8593    0.5439   11.4372 H         1 RES1    0.0000
     26 N3         0.0827    0.6450   10.8721 N.3       1 RES1    0.0000
     27 O1        -3.1208    0.5009    7.4788 O.2       1 RES1    0.0000
     28 O2        -3.7872    0.5089    9.5604 O.2       1 RES1    0.0000
     29 O3         1.2273    2.6837    8.9750 O.3       1 RES1    0.0000
     30 O4         3.3072    1.8037    9.5479 O.3       1 RES1    0.0000
@<TRIPOS>BOND
     1    1    2 1
     2    3    1 2
     3    4    5 1
     4    6    4 1
     5    7    4 1
     6    8    7 1
     7    9    7 1
     8   10   11 1
     9   12   10 1
    10   13   10 1
    11   14   13 1
    12   15   16 1
    13   17   15 1
    14   18   15 1
    15   19   20 1
    16   21   19 1
    17   22   19 1
    18   23    1 1
    19   24    3 1
    20   25   24 1
    21   26    3 1
    22   27   23 2
    23   28   23 2
    24   29   13 1
    25   30   13 1
    26    4   24 1
    27    7   26 1
    28   10   26 1
    29   15   29 1
    30   19   30 1
@<TRIPOS>SUBSTRUCTURE
     1 RES1 1

@<TRIPOS>CRYSIN
  10.4440    6.8676   14.4410  90.0000  99.9530  90.0000  14 1

