# MOL2 file generated by ConQuest
# Please check atom types

@<TRIPOS>MOLECULE
SUYWEQ
    21    32     1
SMALL
NO_CHARGES
****
Generated from CSD

@<TRIPOS>ATOM
      1 O1         4.0724    5.1921    1.7269 O.2       1 RES1    0.0000
      2 N1         5.1646    4.6208    1.7269 N.2       1 RES1    0.0000
      3 N2         5.1646    3.2992    1.5957 N.2       1 RES1    0.0000
      4 C1         3.9311    2.5198    1.7269 C.3       1 RES1    0.0000
      5 H1         3.3900    2.7584    0.9636 H         1 RES1    0.0000
      6 C2         4.4777    1.1311    1.4098 C.3       1 RES1    0.0000
      7 H2         3.9365    0.4703    1.7269 H         1 RES1    0.0000
      8 H3         4.5552    1.0268    0.4835 H         1 RES1    0.0000
      9 O1C        6.2568    5.1921    1.7269 O.2       1 RES1    0.0000
     10 N2C        5.1646    3.2992    1.8581 N.2       1 RES1    0.0000
     11 C1C        6.3981    2.5198    1.7269 C.3       1 RES1    0.0000
     12 H1C        6.9392    2.7584    2.4902 H         1 RES1    0.0000
     13 C2C        5.8515    1.1311    2.0440 C.3       1 RES1    0.0000
     14 H2C        6.3927    0.4703    1.7269 H         1 RES1    0.0000
     15 H3C        5.7740    1.0268    2.9703 H         1 RES1    0.0000
     16 H1I        3.3900    2.7584    2.4902 H         1 RES1    0.0000
     17 C2I        4.4777    1.1311    2.0440 C.3       1 RES1    0.0000
     18 H3I        4.5552    1.0268    2.9703 H         1 RES1    0.0000
     19 H1J        6.9392    2.7584    0.9636 H         1 RES1    0.0000
     20 C2J        5.8515    1.1311    1.4098 C.3       1 RES1    0.0000
     21 H3J        5.7740    1.0268    0.4835 H         1 RES1    0.0000
@<TRIPOS>BOND
     1    1    2 1
     2    2    3 1
     3    3    4 1
     4    4    5 1
     5    6    4 1
     6    7    6 1
     7    8    6 1
     8    9    2 1
     9   10    2 1
    10   11    3 1
    11   12   11 1
    12   13    6 1
    13   14   13 1
    14   15   13 1
    15   16    4 1
    16   17    4 1
    17   18   15 1
    18   19   11 1
    19   20    6 1
    20   21    8 1
    21    4   10 1
    22    6   17 1
    23    7   17 1
    24   10   11 1
    25   11   13 1
    26   11   20 1
    27   13   17 1
    28   13   20 1
    29   14   20 1
    30   17   18 1
    31   17   20 1
    32   20   21 1
@<TRIPOS>SUBSTRUCTURE
     1 RES1 1

@<TRIPOS>CRYSIN
  10.3292    7.8385    6.9076  90.0000  90.0000  90.0000  63 1

