# MOL2 file generated by ConQuest
# Please check atom types

@<TRIPOS>MOLECULE
SUZCEX
    54    54     2
SMALL
NO_CHARGES
****
Generated from CSD

@<TRIPOS>ATOM
      1 C1         3.9562   -0.4498    2.9738 C.1       1 RES1    0.0000
      2 C2         4.3690   -0.5388    1.6317 C.2       1 RES1    0.0000
      3 C3         5.5126   -0.0583    1.0591 C.2       1 RES1    0.0000
      4 H1         5.6092   -0.2504    0.1550 H         1 RES1    0.0000
      5 C4         6.5805    0.6910    1.6304 C.ar      1 RES1    0.0000
      6 C5         7.6641    1.0381    0.8013 C.ar      1 RES1    0.0000
      7 H2         7.6402    0.8045   -0.0975 H         1 RES1    0.0000
      8 C6         8.7501    1.7116    1.2876 C.ar      1 RES1    0.0000
      9 H3         9.4510    1.9213    0.7126 H         1 RES1    0.0000
     10 C7         8.8303    2.0939    2.6418 C.ar      1 RES1    0.0000
     11 C8         7.7241    1.7803    3.4596 C.ar      1 RES1    0.0000
     12 H4         7.7244    2.0471    4.3505 H         1 RES1    0.0000
     13 C9         6.6561    1.0957    2.9701 C.ar      1 RES1    0.0000
     14 H5         5.9539    0.8896    3.5429 H         1 RES1    0.0000
     15 C10       11.0672    3.0401    2.3250 C.3       1 RES1    0.0000
     16 H6        11.7225    3.4967    2.8578 H         1 RES1    0.0000
     17 H7        11.4415    2.2241    1.9852 H         1 RES1    0.0000
     18 H8        10.8035    3.6006    1.5927 H         1 RES1    0.0000
     19 C11        9.9755    3.1076    4.5425 C.3       1 RES1    0.0000
     20 H9        10.8078    3.5526    4.7155 H         1 RES1    0.0000
     21 H10        9.2483    3.6972    4.7530 H         1 RES1    0.0000
     22 H11        9.9151    2.3187    5.0856 H         1 RES1    0.0000
     23 N1         3.4584   -1.2786    0.8001 N.pl3     1 RES1    0.0000
     24 N2         3.6430   -0.3799    4.0707 N.1       1 RES1    0.0000
     25 N3         9.9060    2.7362    3.1438 N.3       1 RES1    0.0000
     26 O1         3.7351   -1.4847   -0.3638 O.2       1 RES1    0.0000
     27 O2         2.4238   -1.6960    1.3299 O.2       1 RES1    0.0000
     28 C12        5.6102   -0.5033    9.2463 C.1       2 RES2    0.0000
     29 C13        5.4889   -0.0048    7.9321 C.2       2 RES2    0.0000
     30 C14        4.4507    0.6850    7.3736 C.2       2 RES2    0.0000
     31 H12        4.5683    0.9059    6.4782 H         2 RES2    0.0000
     32 C15        3.2215    1.1200    7.9379 C.ar      2 RES2    0.0000
     33 C16        2.3018    1.7795    7.0988 C.ar      2 RES2    0.0000
     34 H13        2.5272    1.9221    6.2082 H         2 RES2    0.0000
     35 C17        1.0879    2.2169    7.5513 C.ar      2 RES2    0.0000
     36 H14        0.4997    2.6323    6.9633 H         2 RES2    0.0000
     37 C18        0.7246    2.0447    8.8927 C.ar      2 RES2    0.0000
     38 C19        1.6431    1.3833    9.7428 C.ar      2 RES2    0.0000
     39 H15        1.4217    1.2479   10.6362 H         2 RES2    0.0000
     40 C20        2.8432    0.9423    9.2763 C.ar      2 RES2    0.0000
     41 H16        3.4257    0.5121    9.8586 H         2 RES2    0.0000
     42 C21       -0.8057    2.3435   10.7819 C.3       2 RES2    0.0000
     43 H17       -1.6796    2.7086   10.9387 H         2 RES2    0.0000
     44 H18       -0.8003    1.4136   11.0212 H         2 RES2    0.0000
     45 H19       -0.1620    2.8149   11.3162 H         2 RES2    0.0000
     46 C22       -1.4492    3.0933    8.5094 C.3       2 RES2    0.0000
     47 H20       -2.2200    3.3397    9.0260 H         2 RES2    0.0000
     48 H21       -1.0745    3.8770    8.1009 H         2 RES2    0.0000
     49 H22       -1.7063    2.4681    7.8284 H         2 RES2    0.0000
     50 N4         6.6226   -0.3251    7.1095 N.pl3     2 RES2    0.0000
     51 N5         5.7043   -0.9215   10.3036 N.1       2 RES2    0.0000
     52 N6        -0.4651    2.4845    9.3763 N.3       2 RES2    0.0000
     53 O3         6.6794    0.0827    5.9652 O.2       2 RES2    0.0000
     54 O4         7.5148   -1.0086    7.6108 O.2       2 RES2    0.0000
@<TRIPOS>BOND
     1    1    2 1
     2    2    3 2
     3    3    4 1
     4    5    3 1
     5    6    5 ar
     6    7    6 1
     7    8    6 ar
     8    9    8 1
     9   10    8 ar
    10   11   10 ar
    11   12   11 1
    12   13    5 ar
    13   14   13 1
    14   15   16 1
    15   17   15 1
    16   18   15 1
    17   19   20 1
    18   21   19 1
    19   22   19 1
    20   23    2 1
    21   24    1 3
    22   25   10 1
    23   26   23 2
    24   27   23 2
    25   28   29 1
    26   29   30 2
    27   30   31 1
    28   32   30 1
    29   33   32 ar
    30   34   33 1
    31   35   33 ar
    32   36   35 1
    33   37   35 ar
    34   38   37 ar
    35   39   38 1
    36   40   32 ar
    37   41   40 1
    38   42   43 1
    39   44   42 1
    40   45   42 1
    41   46   47 1
    42   48   46 1
    43   49   46 1
    44   50   29 1
    45   51   28 3
    46   52   37 1
    47   53   50 2
    48   54   50 2
    49   11   13 ar
    50   15   25 1
    51   19   25 1
    52   38   40 ar
    53   42   52 1
    54   46   52 1
@<TRIPOS>SUBSTRUCTURE
     1 RES1 1
     2 RES2 28

@<TRIPOS>CRYSIN
  21.3165    3.9944   25.1056  90.0000  95.1880  90.0000  14 1

