# MOL2 file generated by ConQuest
# Please check atom types

@<TRIPOS>MOLECULE
SUZNAC
    60    63     1
SMALL
NO_CHARGES
****
Generated from CSD

@<TRIPOS>ATOM
      1 O1         1.4470    4.0866    8.0537 O.3       1 RES1    0.0000
      2 O2        -1.0008    6.2158   11.8557 O.3       1 RES1    0.0000
      3 N1         2.1412    5.2339    7.6665 N.2       1 RES1    0.0000
      4 N2         0.7462    5.8431    9.3661 N.3       1 RES1    0.0000
      5 N3        -0.5165    6.3623    9.0958 N.3       1 RES1    0.0000
      6 C1         0.8925    4.3693    9.3661 C.3       1 RES1    0.0000
      7 C2         1.9495    3.9945   10.3874 C.ar      1 RES1    0.0000
      8 C3         3.0246    3.1058   10.0703 C.ar      1 RES1    0.0000
      9 C4         3.9254    2.7426   11.0813 C.ar      1 RES1    0.0000
     10 C5         3.8014    3.1927   12.3547 C.ar      1 RES1    0.0000
     11 C6         2.7436    4.0709   12.6666 C.ar      1 RES1    0.0000
     12 C7         1.8768    4.4645   11.6790 C.ar      1 RES1    0.0000
     13 C8         1.7313    6.2168    8.4149 C.2       1 RES1    0.0000
     14 C9        -0.3471    3.6177    9.5402 C.3       1 RES1    0.0000
     15 C10       -0.2066    2.1072    9.4232 C.3       1 RES1    0.0000
     16 C11        2.3147    8.4486    9.2829 C.ar      1 RES1    0.0000
     17 C12        2.7684    9.7288    9.1270 C.ar      1 RES1    0.0000
     18 C13        3.2808   10.1035    7.8328 C.ar      1 RES1    0.0000
     19 C14        3.2230    9.2117    6.7933 C.ar      1 RES1    0.0000
     20 C15        2.7023    7.9723    6.9830 C.ar      1 RES1    0.0000
     21 C16        2.2561    7.5850    8.2252 C.ar      1 RES1    0.0000
     22 C17       -0.8677    6.5581    7.6483 C.3       1 RES1    0.0000
     23 C18       -2.0082    7.5368    7.7028 C.3       1 RES1    0.0000
     24 C19       -1.6611    8.4423    8.8801 C.3       1 RES1    0.0000
     25 C20       -0.9338    7.5106    9.8936 C.3       1 RES1    0.0000
     26 C21       -1.8445    7.0762   11.0813 C.3       1 RES1    0.0000
     27 C22       -2.1982    8.3271   11.8999 C.3       1 RES1    0.0000
     28 C23       -3.1155    6.3550   10.6525 C.3       1 RES1    0.0000
     29 C24       -1.5702    5.6432   13.0148 C.3       1 RES1    0.0000
     30 H1        -1.3569    8.7123   12.2949 H         1 RES1    0.0000
     31 H2        -2.6412    9.0222   11.3334 H         1 RES1    0.0000
     32 H3        -2.8197    8.0644   12.6510 H         1 RES1    0.0000
     33 H4        -3.6436    6.9569   10.0652 H         1 RES1    0.0000
     34 H5        -2.8544    5.5333   10.2029 H         1 RES1    0.0000
     35 H6        -3.7527    6.0891   11.4269 H         1 RES1    0.0000
     36 H7        -1.8858    6.3906   13.6281 H         1 RES1    0.0000
     37 H8        -2.4304    5.1250   12.7523 H         1 RES1    0.0000
     38 H9        -1.0148    5.0277   13.5320 H         1 RES1    0.0000
     39 H10        0.1413    1.8434    8.5449 H         1 RES1    0.0000
     40 H11        0.4140    1.7889   10.1535 H         1 RES1    0.0000
     41 H12       -1.0975    1.5922    9.5740 H         1 RES1    0.0000
     42 H13       -0.1016    8.0005   10.2757 H         1 RES1    0.0000
     43 H14       -2.5387    8.8422    9.1738 H         1 RES1    0.0000
     44 H15       -1.1198    9.1667    8.4331 H         1 RES1    0.0000
     45 H16       -2.8800    6.9035    7.8952 H         1 RES1    0.0000
     46 H17       -2.1900    7.8875    6.7881 H         1 RES1    0.0000
     47 H18       -1.0173    5.6830    7.2195 H         1 RES1    0.0000
     48 H19       -0.0752    7.0155    7.1909 H         1 RES1    0.0000
     49 H20       -0.8165    3.8501   10.4316 H         1 RES1    0.0000
     50 H21       -1.0892    3.9034    8.8229 H         1 RES1    0.0000
     51 H22        2.0280    8.1230   10.2367 H         1 RES1    0.0000
     52 H23        2.7742   10.3610    9.8572 H         1 RES1    0.0000
     53 H24        3.6767   11.1074    7.7548 H         1 RES1    0.0000
     54 H25        3.5882    9.5644    5.9331 H         1 RES1    0.0000
     55 H26        2.6800    7.4049    6.1981 H         1 RES1    0.0000
     56 H27        3.0395    2.7143    9.0932 H         1 RES1    0.0000
     57 H28        4.7411    2.1417   10.7928 H         1 RES1    0.0000
     58 H29        4.4683    2.8012   12.9836 H         1 RES1    0.0000
     59 H30        2.6461    4.4237   13.6619 H         1 RES1    0.0000
     60 H31        1.1330    5.1596   11.9337 H         1 RES1    0.0000
@<TRIPOS>BOND
     1    1    3 1
     2    2   26 1
     3    3   13 2
     4    4    5 1
     5    5   22 1
     6    6    1 1
     7    7    6 1
     8    8    7 ar
     9    9    8 ar
    10   10    9 ar
    11   11   10 ar
    12   12    7 ar
    13   13    4 1
    14   14    6 1
    15   15   14 1
    16   16   17 ar
    17   17   18 ar
    18   18   19 ar
    19   19   20 ar
    20   20   21 ar
    21   21   13 1
    22   22   23 1
    23   23   24 1
    24   24   25 1
    25   25    5 1
    26   26   25 1
    27   27   26 1
    28   28   26 1
    29   29    2 1
    30   30   27 1
    31   31   27 1
    32   32   27 1
    33   33   28 1
    34   34   28 1
    35   35   28 1
    36   36   29 1
    37   37   29 1
    38   38   29 1
    39   39   15 1
    40   40   15 1
    41   41   15 1
    42   42   25 1
    43   43   24 1
    44   44   24 1
    45   45   23 1
    46   46   23 1
    47   47   22 1
    48   48   22 1
    49   49   14 1
    50   50   14 1
    51   51   16 1
    52   52   17 1
    53   53   18 1
    54   54   19 1
    55   55   20 1
    56   56    8 1
    57   57    9 1
    58   58   10 1
    59   59   11 1
    60   60   12 1
    61    4    6 1
    62   11   12 ar
    63   16   21 ar
@<TRIPOS>SUBSTRUCTURE
     1 RES1 1

@<TRIPOS>CRYSIN
   8.2640   10.4678   25.9880  90.0000  90.0000  90.0000  19 1

