# MOL2 file generated by ConQuest
# Please check atom types

@<TRIPOS>MOLECULE
SUZRAH
    31    32     1
SMALL
NO_CHARGES
****
Generated from CSD

@<TRIPOS>ATOM
      1 O1         3.9885    6.9926    5.0069 O.2       1 RES1    0.0000
      2 N1         3.7212    5.7691    4.9863 N.pl3     1 RES1    0.0000
      3 C1         1.9779    6.0072    6.6488 C.2       1 RES1    0.0000
      4 O2         1.3492    3.8995    9.7692 O.3       1 RES1    0.0000
      5 N2         2.0266    7.3231    6.8226 N.3       1 RES1    0.0000
      6 H1         2.5260    7.8503    6.3628 H         1 RES1    0.0000
      7 C2         2.7581    5.2420    5.7724 C.2       1 RES1    0.0000
      8 H2         2.6052    4.3249    5.7287 H         1 RES1    0.0000
      9 N3         1.0549    5.4655    7.4639 N.3       1 RES1    0.0000
     10 O3         4.3720    5.0043    4.2142 O.2       1 RES1    0.0000
     11 C3         0.6453    4.0738    7.5190 C.3       1 RES1    0.0000
     12 H3         0.7591    3.6814    6.6386 H         1 RES1    0.0000
     13 H4        -0.2993    4.0365    7.7375 H         1 RES1    0.0000
     14 C4         1.3968    3.2508    8.5095 C.3       1 RES1    0.0000
     15 H5         2.3329    3.2056    8.2239 H         1 RES1    0.0000
     16 O4         1.4645    1.9167   10.9695 O.3       1 RES1    0.0000
     17 C5         0.8739    1.8461    8.6294 C.3       1 RES1    0.0000
     18 H6         1.0574    1.3605    7.8091 H         1 RES1    0.0000
     19 H7        -0.0877    1.8677    8.7560 H         1 RES1    0.0000
     20 C6         0.3680    6.5006    8.2409 C.3       1 RES1    0.0000
     21 H8         0.4187    6.3152    9.1925 H         1 RES1    0.0000
     22 H9        -0.5641    6.5712    7.9807 H         1 RES1    0.0000
     23 C7         1.1316    7.7689    7.8886 C.3       1 RES1    0.0000
     24 H10        0.5320    8.4644    7.5746 H         1 RES1    0.0000
     25 H11        1.6320    8.1004    8.6517 H         1 RES1    0.0000
     26 C8         2.0602    3.1586   10.7413 C.3       1 RES1    0.0000
     27 H12        2.9732    3.0271   10.4411 H         1 RES1    0.0000
     28 H13        2.0872    3.6598   11.5704 H         1 RES1    0.0000
     29 C9         1.5227    1.1300    9.7973 C.3       1 RES1    0.0000
     30 H14        1.0689    0.2874    9.9525 H         1 RES1    0.0000
     31 H15        2.4492    0.9378    9.5834 H         1 RES1    0.0000
@<TRIPOS>BOND
     1    1    2 2
     2    2    7 1
     3    3    5 1
     4    4   14 1
     5    5    6 1
     6    7    3 2
     7    8    7 1
     8    9    3 1
     9   10    2 2
    10   11    9 1
    11   12   11 1
    12   13   11 1
    13   14   11 1
    14   15   14 1
    15   16   26 1
    16   17   14 1
    17   18   17 1
    18   19   17 1
    19   20    9 1
    20   21   20 1
    21   22   20 1
    22   23    5 1
    23   24   23 1
    24   25   23 1
    25   26    4 1
    26   27   26 1
    27   28   26 1
    28   29   16 1
    29   30   29 1
    30   31   29 1
    31   17   29 1
    32   20   23 1
@<TRIPOS>SUBSTRUCTURE
     1 RES1 1

@<TRIPOS>CRYSIN
   5.0138    9.8092   21.7162  90.0000  90.0000  90.0000 231 1

