# MOL2 file generated by ConQuest
# Please check atom types

@<TRIPOS>MOLECULE
SUZYES01
   112   116     4
SMALL
NO_CHARGES
****
Generated from CSD

@<TRIPOS>ATOM
      1 O1         0.1560    6.5931   15.8597 O.2       1 RES1    0.0000
      2 O2         2.2508    6.4532   16.4182 O.2       1 RES1    0.0000
      3 N1        -0.5751    6.2698   13.3522 N.pl3     1 RES1    0.0000
      4 H1        -0.8015    6.4136   14.1918 H         1 RES1    0.0000
      5 N2         1.1090    5.5532   11.9329 N.ar      1 RES1    0.0000
      6 N3         1.3511    6.3833   15.5683 N.pl3     1 RES1    0.0000
      7 C1         0.7201    5.9584   13.1652 C.ar      1 RES1    0.0000
      8 C2         2.3772    5.2418   11.7316 C.ar      1 RES1    0.0000
      9 H2         2.6221    4.9567   10.8591 H         1 RES1    0.0000
     10 C3         3.3831    5.2959   12.6925 C.ar      1 RES1    0.0000
     11 H3         4.2803    5.0597   12.4841 H         1 RES1    0.0000
     12 C4         3.0250    5.7037   13.9548 C.ar      1 RES1    0.0000
     13 H4         3.6768    5.7604   14.6445 H         1 RES1    0.0000
     14 C5         1.6979    6.0349   14.2132 C.ar      1 RES1    0.0000
     15 C6        -1.6661    6.2500   12.4484 C.ar      1 RES1    0.0000
     16 C7        -2.9340    6.1550   13.0338 C.ar      1 RES1    0.0000
     17 H5        -3.0146    6.0732   13.9776 H         1 RES1    0.0000
     18 C8        -4.0699    6.1814   12.2456 C.ar      1 RES1    0.0000
     19 H6        -4.9236    6.1141   12.6568 H         1 RES1    0.0000
     20 C9        -3.9896    6.3041   10.8563 C.ar      1 RES1    0.0000
     21 C10       -2.7228    6.4044   10.2908 C.ar      1 RES1    0.0000
     22 H7        -2.6447    6.4875    9.3484 H         1 RES1    0.0000
     23 C11       -1.5673    6.3833   11.0662 C.ar      1 RES1    0.0000
     24 H8        -0.7145    6.4612   10.6535 H         1 RES1    0.0000
     25 C12       -5.2342    6.3094    9.9995 C.3       1 RES1    0.0000
     26 H9        -5.0786    6.8544    9.2013 H         1 RES1    0.0000
     27 H10       -5.9806    6.6855   10.5121 H         1 RES1    0.0000
     28 H11       -5.4507    5.3922    9.7325 H         1 RES1    0.0000
     29 O3         4.6741    8.5159   15.2946 O.2       2 RES2    0.0000
     30 O4         6.7210    8.8287   15.9438 O.2       2 RES2    0.0000
     31 N4         4.0081    8.9342   12.7853 N.pl3     2 RES2    0.0000
     32 H12        3.7800    8.7891   13.6207 H         2 RES2    0.0000
     33 N5         5.7292    9.6469   11.4131 N.ar      2 RES2    0.0000
     34 N6         5.8587    8.8181   15.0557 N.pl3     2 RES2    0.0000
     35 C13        5.3114    9.2404   12.6283 C.ar      2 RES2    0.0000
     36 C14        7.0097    9.9728   11.2446 C.ar      2 RES2    0.0000
     37 H13        7.2867   10.2539   10.3808 H         2 RES2    0.0000
     38 C15        7.9702    9.9280   12.2542 C.ar      2 RES2    0.0000
     39 H14        8.8711   10.1787   12.0842 H         2 RES2    0.0000
     40 C16        7.5745    9.5123   13.4964 C.ar      2 RES2    0.0000
     41 H15        8.2061    9.4502   14.2032 H         2 RES2    0.0000
     42 C17        6.2474    9.1837   13.7135 C.ar      2 RES2    0.0000
     43 C18        2.9271    9.0015   11.8644 C.ar      2 RES2    0.0000
     44 C19        1.6667    9.1784   12.4227 C.ar      2 RES2    0.0000
     45 H16        1.5740    9.2734   13.3636 H         2 RES2    0.0000
     46 C20        0.5485    9.2166   11.6102 C.ar      2 RES2    0.0000
     47 H17       -0.3071    9.3235   12.0071 H         2 RES2    0.0000
     48 C21        0.6443    9.1032   10.2237 C.ar      2 RES2    0.0000
     49 C22        1.9135    8.9171    9.6882 C.ar      2 RES2    0.0000
     50 H18        2.0053    8.8273    8.7458 H         2 RES2    0.0000
     51 C23        3.0544    8.8577   10.4822 C.ar      2 RES2    0.0000
     52 H19        3.9085    8.7204   10.0881 H         2 RES2    0.0000
     53 C24       -0.5701    9.1982    9.3427 C.3       2 RES2    0.0000
     54 H20       -0.5494    8.4776    8.6787 H         2 RES2    0.0000
     55 H21       -0.5748   10.0652    8.8858 H         2 RES2    0.0000
     56 H22       -1.3787    9.1137    9.8910 H         2 RES2    0.0000
     57 O5         9.6478    6.0969    2.0577 O.2       3 RES3    0.0000
     58 O6         7.6082    5.7987    1.3833 O.2       3 RES3    0.0000
     59 N7        10.2134    6.1497    4.6178 N.pl3     3 RES3    0.0000
     60 H23       10.4480    6.3081    3.7853 H         3 RES3    0.0000
     61 N8         8.4344    5.6905    6.0283 N.ar      3 RES3    0.0000
     62 N9         8.4431    5.9122    2.2918 N.pl3     3 RES3    0.0000
     63 C25        8.8979    5.8831    4.7720 C.ar      3 RES3    0.0000
     64 C26        7.1276    5.4490    6.1971 C.ar      3 RES3    0.0000
     65 H24        6.8174    5.3012    7.0823 H         3 RES3    0.0000
     66 C27        6.1900    5.4001    5.1661 C.ar      3 RES3    0.0000
     67 H25        5.2687    5.2576    5.3460 H         3 RES3    0.0000
     68 C28        6.6487    5.5664    3.8810 C.ar      3 RES3    0.0000
     69 H26        6.0476    5.5215    3.1471 H         3 RES3    0.0000
     70 C29        7.9928    5.7960    3.6654 C.ar      3 RES3    0.0000
     71 C30       11.2910    6.1576    5.5288 C.ar      3 RES3    0.0000
     72 C31       12.5553    6.2658    4.9548 C.ar      3 RES3    0.0000
     73 H27       12.6382    6.3358    4.0109 H         3 RES3    0.0000
     74 C32       13.6944    6.2738    5.7444 C.ar      3 RES3    0.0000
     75 H28       14.5449    6.3675    5.3317 H         3 RES3    0.0000
     76 C33       13.6202    6.1484    7.1309 C.ar      3 RES3    0.0000
     77 C34       12.3545    6.0494    7.6963 C.ar      3 RES3    0.0000
     78 H29       12.2774    5.9755    8.6402 H         3 RES3    0.0000
     79 C35       11.1935    6.0560    6.9196 C.ar      3 RES3    0.0000
     80 H30       10.3406    5.9913    7.3337 H         3 RES3    0.0000
     81 C36       14.8623    6.1062    7.9791 C.3       3 RES3    0.0000
     82 H31       14.6890    6.5535    8.8344 H         3 RES3    0.0000
     83 H32       15.5922    6.5641    7.5121 H         3 RES3    0.0000
     84 H33       15.1143    5.1731    8.1433 H         3 RES3    0.0000
     85 O7         2.8149    9.3697    1.4723 O.2       4 RES4    0.0000
     86 O8         0.7430    9.4370    0.8529 O.2       4 RES4    0.0000
     87 N10        3.4423    9.2787    4.0309 N.pl3     4 RES4    0.0000
     88 H34        3.7262    9.1718    3.1971 H         4 RES4    0.0000
     89 N11        1.6756    9.7247    5.4645 N.ar      4 RES4    0.0000
     90 N12        1.6059    9.4344    1.7357 N.pl3     4 RES4    0.0000
     91 C37        2.1187    9.5096    4.2166 C.ar      4 RES4    0.0000
     92 C38        0.3747    9.8804    5.6616 C.ar      4 RES4    0.0000
     93 H35        0.0786   10.0177    6.5540 H         4 RES4    0.0000
     94 C39       -0.5882    9.8580    4.6635 C.ar      4 RES4    0.0000
     95 H36       -1.5103    9.9583    4.8705 H         4 RES4    0.0000
     96 C40       -0.1658    9.6851    3.3670 C.ar      4 RES4    0.0000
     97 H37       -0.7896    9.6706    2.6516 H         4 RES4    0.0000
     98 C41        1.1900    9.5320    3.1271 C.ar      4 RES4    0.0000
     99 C42        4.5085    9.1982    4.9519 C.ar      4 RES4    0.0000
    100 C43        5.7774    9.0213    4.3779 C.ar      4 RES4    0.0000
    101 H38        5.8604    8.9540    3.4327 H         4 RES4    0.0000
    102 C44        6.9050    8.9435    5.1690 C.ar      4 RES4    0.0000
    103 H39        7.7538    8.8260    4.7606 H         4 RES4    0.0000
    104 C45        6.8228    9.0345    6.5654 C.ar      4 RES4    0.0000
    105 C46        5.5605    9.1982    7.1209 C.ar      4 RES4    0.0000
    106 H40        5.4798    9.2549    8.0662 H         4 RES4    0.0000
    107 C47        4.4066    9.2813    6.3413 C.ar      4 RES4    0.0000
    108 H41        3.5575    9.3922    6.7525 H         4 RES4    0.0000
    109 C48        8.0664    8.9897    7.4208 C.3       4 RES4    0.0000
    110 H42        7.8218    8.7614    8.3417 H         4 RES4    0.0000
    111 H43        8.5036    9.8672    7.4079 H         4 RES4    0.0000
    112 H44        8.6808    8.3127    7.0681 H         4 RES4    0.0000
@<TRIPOS>BOND
     1    1    6 2
     2    2    6 2
     3    3    4 1
     4    5    7 ar
     5    6   14 1
     6    7    3 1
     7    8    5 ar
     8    9    8 1
     9   10    8 ar
    10   11   10 1
    11   12   10 ar
    12   13   12 1
    13   14    7 ar
    14   15    3 1
    15   16   15 ar
    16   17   16 1
    17   18   16 ar
    18   19   18 1
    19   20   18 ar
    20   21   20 ar
    21   22   21 1
    22   23   15 ar
    23   24   23 1
    24   25   20 1
    25   26   25 1
    26   27   25 1
    27   28   25 1
    28   29   34 2
    29   30   34 2
    30   31   32 1
    31   33   35 ar
    32   34   42 1
    33   35   31 1
    34   36   33 ar
    35   37   36 1
    36   38   36 ar
    37   39   38 1
    38   40   38 ar
    39   41   40 1
    40   42   35 ar
    41   43   31 1
    42   44   43 ar
    43   45   44 1
    44   46   44 ar
    45   47   46 1
    46   48   46 ar
    47   49   48 ar
    48   50   49 1
    49   51   43 ar
    50   52   51 1
    51   53   48 1
    52   54   53 1
    53   55   53 1
    54   56   53 1
    55   57   62 2
    56   58   62 2
    57   59   60 1
    58   61   63 ar
    59   62   70 1
    60   63   59 1
    61   64   61 ar
    62   65   64 1
    63   66   64 ar
    64   67   66 1
    65   68   66 ar
    66   69   68 1
    67   70   63 ar
    68   71   59 1
    69   72   71 ar
    70   73   72 1
    71   74   72 ar
    72   75   74 1
    73   76   74 ar
    74   77   76 ar
    75   78   77 1
    76   79   71 ar
    77   80   79 1
    78   81   76 1
    79   82   81 1
    80   83   81 1
    81   84   81 1
    82   85   90 2
    83   86   90 2
    84   87   88 1
    85   89   91 ar
    86   90   98 1
    87   91   87 1
    88   92   89 ar
    89   93   92 1
    90   94   92 ar
    91   95   94 1
    92   96   94 ar
    93   97   96 1
    94   98   91 ar
    95   99   87 1
    96  100   99 ar
    97  101  100 1
    98  102  100 ar
    99  103  102 1
   100  104  102 ar
   101  105  104 ar
   102  106  105 1
   103  107   99 ar
   104  108  107 1
   105  109  104 1
   106  110  109 1
   107  111  109 1
   108  112  109 1
   109   12   14 ar
   110   21   23 ar
   111   40   42 ar
   112   49   51 ar
   113   68   70 ar
   114   77   79 ar
   115   96   98 ar
   116  105  107 ar
@<TRIPOS>SUBSTRUCTURE
     1 RES1 1
     2 RES2 29
     3 RES3 57
     4 RES4 85

@<TRIPOS>CRYSIN
  11.4079   13.1968   14.3681  90.0000  96.3870  90.0000   4 1

