# MOL2 file generated by ConQuest
# Please check atom types

@<TRIPOS>MOLECULE
SUZYES
    56    58     2
SMALL
NO_CHARGES
****
Generated from CSD

@<TRIPOS>ATOM
      1 O1         6.0663    4.3270    2.0499 O.2       1 RES1    0.0000
      2 O2         4.0205    4.3842    1.3472 O.2       1 RES1    0.0000
      3 N1         4.8451    4.1763    2.2369 N.pl3     1 RES1    0.0000
      4 N2         4.7304    3.0894    5.8121 N.ar      1 RES1    0.0000
      5 N3         6.5860    3.6343    4.5336 N.3       1 RES1    0.0000
      6 C1         4.3690    3.7307    3.5349 C.ar      1 RES1    0.0000
      7 C2         3.0028    3.5515    3.6811 C.ar      1 RES1    0.0000
      8 H1         2.4163    3.7107    2.9516 H         1 RES1    0.0000
      9 C3         2.5062    3.1394    4.8942 C.ar      1 RES1    0.0000
     10 H2         1.5751    3.0087    5.0255 H         1 RES1    0.0000
     11 C4         3.4099    2.9223    5.9155 C.ar      1 RES1    0.0000
     12 H3         3.0657    2.6331    6.7529 H         1 RES1    0.0000
     13 C5         5.2390    3.4843    4.6331 C.ar      1 RES1    0.0000
     14 C6         7.5829    3.6550    5.5320 C.ar      1 RES1    0.0000
     15 C7         8.7793    4.2799    5.1709 C.ar      1 RES1    0.0000
     16 H4         8.8814    4.6248    4.2904 H         1 RES1    0.0000
     17 C8         9.8125    4.4034    6.0734 C.ar      1 RES1    0.0000
     18 H5        10.6178    4.8269    5.8026 H         1 RES1    0.0000
     19 C9         9.7017    3.9200    7.3779 C.ar      1 RES1    0.0000
     20 C10        8.5274    3.2522    7.7029 C.ar      1 RES1    0.0000
     21 H6         8.4415    2.8809    8.5725 H         1 RES1    0.0000
     22 C11        7.4685    3.1030    6.8054 C.ar      1 RES1    0.0000
     23 H7         6.6838    2.6324    7.0603 H         1 RES1    0.0000
     24 C12       10.8083    4.1349    8.3777 C.3       1 RES1    0.0000
     25 H8        10.5478    3.7514    9.2405 H         1 RES1    0.0000
     26 H9        10.9711    5.0955    8.4830 H         1 RES1    0.0000
     27 H10       11.6254    3.6979    8.0582 H         1 RES1    0.0000
     28 H11        6.8612    3.9421    3.7733 H         1 RES1    0.0000
     29 O3         1.7025    1.1783   -2.0401 O.2       2 RES2    0.0000
     30 O4        -0.3104    1.6990   -2.6433 O.2       2 RES2    0.0000
     31 N4         0.5401    1.5126   -1.7662 N.pl3     2 RES2    0.0000
     32 N5         0.6639    1.7682    1.9546 N.ar      2 RES2    0.0000
     33 N6         2.3527    1.1105    0.5165 N.3       2 RES2    0.0000
     34 C13        0.1675    1.7147   -0.3838 C.ar      2 RES2    0.0000
     35 C14       -1.1243    2.1432   -0.1356 C.ar      2 RES2    0.0000
     36 H12       -1.7376    2.2510   -0.8525 H         2 RES2    0.0000
     37 C15       -1.5160    2.4110    1.1502 C.ar      2 RES2    0.0000
     38 H13       -2.3900    2.7259    1.3472 H         2 RES2    0.0000
     39 C16       -0.5724    2.1989    2.1533 C.ar      2 RES2    0.0000
     40 H14       -0.8369    2.3767    3.0494 H         2 RES2    0.0000
     41 C17        1.0838    1.5204    0.6935 C.ar      2 RES2    0.0000
     42 C18        3.3608    0.8720    1.4909 C.ar      2 RES2    0.0000
     43 C19        4.6781    1.1219    1.1071 C.ar      2 RES2    0.0000
     44 H15        4.8620    1.4733    0.2432 H         2 RES2    0.0000
     45 C20        5.7225    0.8591    1.9851 C.ar      2 RES2    0.0000
     46 H16        6.6166    1.0162    1.7050 H         2 RES2    0.0000
     47 C21        5.4856    0.3706    3.2613 C.ar      2 RES2    0.0000
     48 C22        4.1711    0.1071    3.6163 C.ar      2 RES2    0.0000
     49 H17        3.9893   -0.2428    4.4805 H         2 RES2    0.0000
     50 C23        3.1114    0.3385    2.7501 C.ar      2 RES2    0.0000
     51 H18        2.2231    0.1335    3.0159 H         2 RES2    0.0000
     52 C24        6.6055    0.1428    4.2396 C.3       2 RES2    0.0000
     53 H19        7.4624    0.1571    3.7650 H         2 RES2    0.0000
     54 H20        6.4879   -0.7277    4.6734 H         2 RES2    0.0000
     55 H21        6.5964    0.8498    4.9165 H         2 RES2    0.0000
     56 H22        2.5862    1.0926   -0.3298 H         2 RES2    0.0000
@<TRIPOS>BOND
     1    1    3 2
     2    2    3 2
     3    3    6 1
     4    4   11 ar
     5    5   13 1
     6    6    7 ar
     7    7    8 1
     8    9    7 ar
     9   10    9 1
    10   11    9 ar
    11   12   11 1
    12   13    4 ar
    13   14    5 1
    14   15   14 ar
    15   16   15 1
    16   17   15 ar
    17   18   17 1
    18   19   17 ar
    19   20   19 ar
    20   21   20 1
    21   22   14 ar
    22   23   22 1
    23   24   19 1
    24   25   24 1
    25   26   24 1
    26   27   24 1
    27   28    5 1
    28   29   31 2
    29   30   31 2
    30   31   34 1
    31   32   39 ar
    32   33   41 1
    33   34   35 ar
    34   35   36 1
    35   37   35 ar
    36   38   37 1
    37   39   37 ar
    38   40   39 1
    39   41   32 ar
    40   42   33 1
    41   43   42 ar
    42   44   43 1
    43   45   43 ar
    44   46   45 1
    45   47   45 ar
    46   48   47 ar
    47   49   48 1
    48   50   42 ar
    49   51   50 1
    50   52   47 1
    51   53   52 1
    52   54   52 1
    53   55   52 1
    54   56   33 1
    55    6   13 ar
    56   20   22 ar
    57   34   41 ar
    58   48   50 ar
@<TRIPOS>SUBSTRUCTURE
     1 RES1 1
     2 RES2 29

@<TRIPOS>CRYSIN
  10.6557    7.1415   27.9580  90.0000  91.3100  90.0000  14 1

