# MOL2 file generated by ConQuest
# Please check atom types

@<TRIPOS>MOLECULE
TABFAD
    21    22     1
SMALL
NO_CHARGES
****
Generated from CSD

@<TRIPOS>ATOM
      1 O1         2.5115    4.7309   10.5298 O.3       1 RES1    0.0000
      2 O2         2.0521    6.4061   12.6009 O.3       1 RES1    0.0000
      3 O3         4.3055    5.8425   14.2727 O.3       1 RES1    0.0000
      4 O4         6.0605    3.8482   13.0999 O.3       1 RES1    0.0000
      5 O5         4.6800    5.5434   10.1863 O.3       1 RES1    0.0000
      6 O6         7.1938    3.1397   11.1728 O.3       1 RES1    0.0000
      7 O7         2.1593    8.5409   11.9176 O.2       1 RES1    0.0000
      8 O8         0.2619    7.6116   12.3667 O.2       1 RES1    0.0000
      9 O9         3.6608    6.1280   16.3015 O.2       1 RES1    0.0000
     10 O10        2.6815    4.5777   15.1383 O.2       1 RES1    0.0000
     11 N1         1.4403    7.6499   12.2515 N.pl3     1 RES1    0.0000
     12 N2         3.4525    5.4796   15.3130 N.pl3     1 RES1    0.0000
     13 C1         3.3698    5.8125   10.6316 C.3       1 RES1    0.0000
     14 C2         3.4051    6.2401   12.0865 C.3       1 RES1    0.0000
     15 C3         4.0636    5.2088   12.9751 C.3       1 RES1    0.0000
     16 C4         5.4403    4.9051   12.3820 C.3       1 RES1    0.0000
     17 C5         5.2435    4.4829   10.9329 C.3       1 RES1    0.0000
     18 C6         6.6294    4.1537   10.3609 C.3       1 RES1    0.0000
     19 C7         7.3438    3.5482   12.5164 C.3       1 RES1    0.0000
     20 C8         7.9717    2.4412   13.2515 C.3       1 RES1    0.0000
     21 C9         2.2427    4.3333    9.1767 C.3       1 RES1    0.0000
@<TRIPOS>BOND
     1    1   13 1
     2    2   11 1
     3    3   12 1
     4    4   16 1
     5    5   13 1
     6    6   18 1
     7    7   11 2
     8    8   11 2
     9    9   12 2
    10   10   12 2
    11   13   14 1
    12   14    2 1
    13   15    3 1
    14   16   15 1
    15   17    5 1
    16   18   17 1
    17   19    4 1
    18   20   19 1
    19   21    1 1
    20    6   19 1
    21   14   15 1
    22   16   17 1
@<TRIPOS>SUBSTRUCTURE
     1 RES1 1

@<TRIPOS>CRYSIN
   7.6570    9.1190   19.1940  90.0000  90.0000  90.0000  19 1

