# MOL2 file generated by ConQuest
# Please check atom types

@<TRIPOS>MOLECULE
TABTIC
    42    43     1
SMALL
NO_CHARGES
****
Generated from CSD

@<TRIPOS>ATOM
      1 C1         4.5901    3.3102    9.4286 C.ar      1 RES1    0.0000
      2 C2         4.9181    2.5279   10.5288 C.ar      1 RES1    0.0000
      3 H1         4.7188    1.6195   10.5402 H         1 RES1    0.0000
      4 C3         5.5407    3.1170   11.5990 C.ar      1 RES1    0.0000
      5 C4         5.8758    4.4529   11.6288 C.ar      1 RES1    0.0000
      6 H2         6.3064    4.8228   12.3671 H         1 RES1    0.0000
      7 C5         5.5545    5.2229   10.5380 C.ar      1 RES1    0.0000
      8 H3         5.7687    6.1279   10.5339 H         1 RES1    0.0000
      9 C6         4.9168    4.6673    9.4466 C.ar      1 RES1    0.0000
     10 H4         4.7029    5.2023    8.7165 H         1 RES1    0.0000
     11 C7         3.3128    3.2903    7.4538 C.2       1 RES1    0.0000
     12 H5         3.1233    4.1891    7.6020 H         1 RES1    0.0000
     13 C8         2.8320    2.6745    6.2627 C.ar      1 RES1    0.0000
     14 C9         3.1037    1.3235    5.9499 C.ar      1 RES1    0.0000
     15 C10        2.6927    0.7734    4.7594 C.ar      1 RES1    0.0000
     16 H6         2.9113   -0.1103    4.5688 H         1 RES1    0.0000
     17 C11        1.9480    1.5160    3.8159 C.ar      1 RES1    0.0000
     18 C12        1.6868    2.8738    4.1347 C.ar      1 RES1    0.0000
     19 H7         1.2146    3.4034    3.5335 H         1 RES1    0.0000
     20 C13        2.1194    3.4150    5.3110 C.ar      1 RES1    0.0000
     21 H8         1.9346    4.3090    5.4870 H         1 RES1    0.0000
     22 C14        1.7818   -0.4323    2.3002 C.3       1 RES1    0.0000
     23 H9         1.0681   -0.7611    1.7319 H         1 RES1    0.0000
     24 H10        1.7824   -0.9687    3.1092 H         1 RES1    0.0000
     25 C15        3.0799   -0.6200    1.5996 C.3       1 RES1    0.0000
     26 H11        3.7946   -0.3131    2.1625 H         1 RES1    0.0000
     27 H12        3.0766   -0.1171    0.7820 H         1 RES1    0.0000
     28 H13        3.2041   -1.5517    1.4026 H         1 RES1    0.0000
     29 C16        0.7749    1.7613    1.6372 C.3       1 RES1    0.0000
     30 H14        0.2661    1.1653    1.0670 H         1 RES1    0.0000
     31 H15        0.1476    2.3532    2.0833 H         1 RES1    0.0000
     32 C17        1.6600    2.5381    0.8311 C.3       1 RES1    0.0000
     33 H16        1.1500    3.0417    0.1931 H         1 RES1    0.0000
     34 H17        2.2669    1.9552    0.3704 H         1 RES1    0.0000
     35 H18        2.1565    3.1396    1.3900 H         1 RES1    0.0000
     36 N1         5.8476    2.2854   12.7717 N.pl3     1 RES1    0.0000
     37 N2         3.9993    2.6491    8.3337 N.2       1 RES1    0.0000
     38 N3         1.4932    0.9577    2.6590 N.3       1 RES1    0.0000
     39 O1         6.4370    2.7930   13.7029 O.2       1 RES1    0.0000
     40 O2         5.4884    1.1201   12.7736 O.2       1 RES1    0.0000
     41 O3         3.7968    0.5446    6.8101 O.3       1 RES1    0.0000
     42 H19        4.0130    0.9879    7.4659 H         1 RES1    0.0000
@<TRIPOS>BOND
     1    1    2 ar
     2    2    3 1
     3    4    2 ar
     4    5    4 ar
     5    6    5 1
     6    7    5 ar
     7    8    7 1
     8    9    1 ar
     9   10    9 1
    10   11   12 1
    11   13   11 1
    12   14   13 ar
    13   15   14 ar
    14   16   15 1
    15   17   15 ar
    16   18   17 ar
    17   19   18 1
    18   20   13 ar
    19   21   20 1
    20   22   23 1
    21   24   22 1
    22   25   22 1
    23   26   25 1
    24   27   25 1
    25   28   25 1
    26   29   30 1
    27   31   29 1
    28   32   29 1
    29   33   32 1
    30   34   32 1
    31   35   32 1
    32   36    4 1
    33   37    1 1
    34   38   17 1
    35   39   36 2
    36   40   36 2
    37   41   14 1
    38   42   41 1
    39    7    9 ar
    40   11   37 2
    41   18   20 ar
    42   22   38 1
    43   29   38 1
@<TRIPOS>SUBSTRUCTURE
     1 RES1 1

@<TRIPOS>CRYSIN
  14.5049    6.8506   32.2672  90.0000 101.1160  90.0000  15 1

