# MOL2 file generated by ConQuest
# Please check atom types

@<TRIPOS>MOLECULE
TABZII
    39    41     1
SMALL
NO_CHARGES
****
Generated from CSD

@<TRIPOS>ATOM
      1 N1         4.6016    7.9263    1.7476 N.am      1 RES1    0.0000
      2 N2         4.4938    6.9362    2.7491 N.2       1 RES1    0.0000
      3 O1         4.6951    8.4905   -0.4345 O.2       1 RES1    0.0000
      4 O2         5.9449   11.7873    1.5111 O.3       1 RES1    0.0000
      5 H1         6.0762   12.5293    1.1880 H         1 RES1    0.0000
      6 C1         4.3698    7.6738    0.4438 C.2       1 RES1    0.0000
      7 C2         3.6601    6.4130    0.0406 C.ar      1 RES1    0.0000
      8 C3         5.1740    9.2052    2.2493 C.3       1 RES1    0.0000
      9 H2         5.9970    9.4194    1.7624 H         1 RES1    0.0000
     10 C4         4.1687   10.3375    2.0988 C.ar      1 RES1    0.0000
     11 C5         4.0867    5.7747   -1.1196 C.ar      1 RES1    0.0000
     12 H3         4.8452    6.0779   -1.5633 H         1 RES1    0.0000
     13 C6         4.9806    7.4252    3.8329 C.2       1 RES1    0.0000
     14 C7         4.5986   11.6150    1.7307 C.ar      1 RES1    0.0000
     15 C8         2.2458    4.2699   -0.9560 C.ar      1 RES1    0.0000
     16 C9         2.5092    5.9678    0.6974 C.ar      1 RES1    0.0000
     17 H4         2.2206    6.3946    1.4720 H         1 RES1    0.0000
     18 C10        2.7964   10.1299    2.3596 C.ar      1 RES1    0.0000
     19 H5         2.5026    9.2854    2.6119 H         1 RES1    0.0000
     20 C11        3.3826    4.6830   -1.6204 C.ar      1 RES1    0.0000
     21 H6         3.6714    4.2415   -2.3862 H         1 RES1    0.0000
     22 C12        1.8764   11.1639    2.2455 C.ar      1 RES1    0.0000
     23 H7         0.9745   11.0152    2.4204 H         1 RES1    0.0000
     24 N3         1.4870    3.1190   -1.5063 N.pl3     1 RES1    0.0000
     25 C13        3.6687   12.6552    1.6128 C.ar      1 RES1    0.0000
     26 H8         3.9526   13.5042    1.3630 H         1 RES1    0.0000
     27 C14        5.5033    8.8292    3.7074 C.3       1 RES1    0.0000
     28 H9         6.4586    8.8609    3.8684 H         1 RES1    0.0000
     29 H10        5.0566    9.4239    4.3299 H         1 RES1    0.0000
     30 C15        2.3208   12.4226    1.8676 C.ar      1 RES1    0.0000
     31 H11        1.7104   13.1195    1.7840 H         1 RES1    0.0000
     32 C16        5.0475    6.6329    5.0995 C.3       1 RES1    0.0000
     33 H12        4.6607    5.7669    4.9550 H         1 RES1    0.0000
     34 H13        4.5616    7.0903    5.7893 H         1 RES1    0.0000
     35 H14        5.9650    6.5331    5.3658 H         1 RES1    0.0000
     36 C17        1.7956    4.8839    0.1915 C.ar      1 RES1    0.0000
     37 H15        1.0273    4.5809    0.6213 H         1 RES1    0.0000
     38 O3         2.0026    2.4664   -2.4065 O.2       1 RES1    0.0000
     39 O4         0.3680    2.8977   -1.0410 O.2       1 RES1    0.0000
@<TRIPOS>BOND
     1    1    2 1
     2    2   13 2
     3    3    6 2
     4    4    5 1
     5    6    1 1
     6    7    6 1
     7    8    1 1
     8    9    8 1
     9   10    8 1
    10   11    7 ar
    11   12   11 1
    12   13   27 1
    13   14    4 1
    14   15   20 ar
    15   16    7 ar
    16   17   16 1
    17   18   10 ar
    18   19   18 1
    19   20   11 ar
    20   21   20 1
    21   22   18 ar
    22   23   22 1
    23   24   15 1
    24   25   14 ar
    25   26   25 1
    26   27    8 1
    27   28   27 1
    28   29   27 1
    29   30   22 ar
    30   31   30 1
    31   32   13 1
    32   33   32 1
    33   34   32 1
    34   35   32 1
    35   36   15 ar
    36   37   36 1
    37   38   24 2
    38   39   24 2
    39   10   14 ar
    40   16   36 ar
    41   25   30 ar
@<TRIPOS>SUBSTRUCTURE
     1 RES1 1

@<TRIPOS>CRYSIN
  11.2400   11.3500   13.4300  90.0000 109.2500  90.0000 231 1

