# MOL2 file generated by ConQuest
# Please check atom types

@<TRIPOS>MOLECULE
TACGIN
    23    24     1
SMALL
NO_CHARGES
****
Generated from CSD

@<TRIPOS>ATOM
      1 N1         3.0155    2.6043    1.8772 N.3       1 RES1    0.0000
      2 N2         3.6652    1.4105    1.9890 N.2       1 RES1    0.0000
      3 C1         4.9310    1.7065    1.7490 C.2       1 RES1    0.0000
      4 C2         5.0684    3.0651    1.4670 C.2       1 RES1    0.0000
      5 C3         3.8249    3.6220    1.5719 C.2       1 RES1    0.0000
      6 N3         6.2824    3.7629    1.2118 N.pl3     1 RES1    0.0000
      7 O1         6.2077    4.8952    0.7399 O.2       1 RES1    0.0000
      8 O2         7.3439    3.2042    1.4891 O.2       1 RES1    0.0000
      9 N4         1.4413    2.6795    3.6669 N.3       1 RES1    0.0000
     10 N5         1.6702    3.8399    4.3404 N.2       1 RES1    0.0000
     11 C4         1.4120    3.5510    5.5977 C.2       1 RES1    0.0000
     12 C5         1.0168    2.2205    5.7235 C.2       1 RES1    0.0000
     13 C6         1.0514    1.6886    4.4698 C.2       1 RES1    0.0000
     14 N6         0.5857    1.5704    6.9202 N.pl3     1 RES1    0.0000
     15 O3         0.3812    2.2640    7.9048 O.2       1 RES1    0.0000
     16 O4         0.4334    0.3587    6.9086 O.2       1 RES1    0.0000
     17 C7         1.6063    2.6622    2.2326 C.3       1 RES1    0.0000
     18 H1         5.6075    1.0744    1.9459 H         1 RES1    0.0000
     19 H2         3.5286    4.4947    1.4099 H         1 RES1    0.0000
     20 H3         1.5968    4.1305    6.3155 H         1 RES1    0.0000
     21 H4         0.8477    0.8476    4.1016 H         1 RES1    0.0000
     22 H5         1.1880    3.4143    1.8527 H         1 RES1    0.0000
     23 H6         1.1328    1.9340    1.8410 H         1 RES1    0.0000
@<TRIPOS>BOND
     1    1    2 1
     2    2    3 2
     3    3    4 1
     4    4    5 2
     5    5    1 1
     6    6    4 1
     7    7    6 2
     8    8    6 2
     9    9   10 1
    10   10   11 2
    11   11   12 1
    12   12   13 2
    13   13    9 1
    14   14   12 1
    15   15   14 2
    16   16   14 2
    17   17    1 1
    18   18    3 1
    19   19    5 1
    20   20   11 1
    21   21   13 1
    22   22   17 1
    23   23   17 1
    24    9   17 1
@<TRIPOS>SUBSTRUCTURE
     1 RES1 1

@<TRIPOS>CRYSIN
  14.4910    5.9690   11.7250  90.0000  96.3900  90.0000  14 2

