# MOL2 file generated by ConQuest
# Please check atom types

@<TRIPOS>MOLECULE
TACHIO
    42    43     1
SMALL
NO_CHARGES
****
Generated from CSD

@<TRIPOS>ATOM
      1 N1         0.5567    3.6918    5.1377 N.2       1 RES1    0.0000
      2 C1        -0.1878    3.9835    6.1465 C.2       1 RES1    0.0000
      3 C2        -0.1196    5.4348    6.5001 C.ar      1 RES1    0.0000
      4 C3         1.0663    6.1305    6.3768 C.ar      1 RES1    0.0000
      5 C4         1.1092    7.4658    6.7238 C.ar      1 RES1    0.0000
      6 C5        -0.0519    8.0606    7.1543 C.ar      1 RES1    0.0000
      7 C6        -1.1941    7.2994    7.2415 C.ar      1 RES1    0.0000
      8 N2        -1.2484    5.9949    6.9419 N.ar      1 RES1    0.0000
      9 C7        -1.0045    3.0578    6.9647 C.ar      1 RES1    0.0000
     10 C8        -0.9156    3.1373    8.3498 C.ar      1 RES1    0.0000
     11 C9        -1.6567    2.2611    9.1320 C.ar      1 RES1    0.0000
     12 C10       -2.4834    1.3428    8.5650 C.ar      1 RES1    0.0000
     13 C11       -2.5945    1.2745    7.1884 C.ar      1 RES1    0.0000
     14 C12       -1.8517    2.1348    6.3911 C.ar      1 RES1    0.0000
     15 O1         0.6034    2.2742    4.9329 O.3       1 RES1    0.0000
     16 C13        1.3667    1.9441    3.8587 C.2       1 RES1    0.0000
     17 O2         1.8010    2.7239    3.0784 O.2       1 RES1    0.0000
     18 C14        1.6012    0.4732    3.8691 C.3       1 RES1    0.0000
     19 C15        2.0321   -0.1141    2.5390 C.3       1 RES1    0.0000
     20 C16        2.7115   -1.4494    2.6565 C.3       1 RES1    0.0000
     21 C17        3.1974   -2.0020    1.3340 C.3       1 RES1    0.0000
     22 C18        3.8373   -3.3664    1.4515 C.3       1 RES1    0.0000
     23 H1         1.7278    5.7509    6.0488 H         1 RES1    0.0000
     24 H2         1.9488    8.0138    6.6556 H         1 RES1    0.0000
     25 H3        -0.0293    8.9770    7.3287 H         1 RES1    0.0000
     26 H4        -2.0402    7.6585    7.5183 H         1 RES1    0.0000
     27 H5        -0.3403    3.7778    8.7034 H         1 RES1    0.0000
     28 H6        -1.4353    2.3190   10.0308 H         1 RES1    0.0000
     29 H7        -2.9698    0.7855    9.0448 H         1 RES1    0.0000
     30 H8        -3.1021    0.6920    6.7409 H         1 RES1    0.0000
     31 H9        -1.9103    2.1040    5.4041 H         1 RES1    0.0000
     32 H10        0.9045    0.0094    4.1052 H         1 RES1    0.0000
     33 H11        2.3180    0.3086    4.5887 H         1 RES1    0.0000
     34 H12        2.6496    0.4956    2.0858 H         1 RES1    0.0000
     35 H13        1.2218   -0.1683    1.8677 H         1 RES1    0.0000
     36 H14        3.4315   -1.3559    3.3562 H         1 RES1    0.0000
     37 H15        2.1262   -2.1601    3.0434 H         1 RES1    0.0000
     38 H16        2.3668   -2.0759    0.7490 H         1 RES1    0.0000
     39 H17        3.8754   -1.3559    0.9481 H         1 RES1    0.0000
     40 H18        3.2491   -4.0957    1.8108 H         1 RES1    0.0000
     41 H19        4.5343   -3.3103    1.9720 H         1 RES1    0.0000
     42 H20        4.1404   -3.8059    0.4740 H         1 RES1    0.0000
@<TRIPOS>BOND
     1    1    2 2
     2    2    3 1
     3    3    4 ar
     4    4    5 ar
     5    5    6 ar
     6    6    7 ar
     7    7    8 ar
     8    8    3 ar
     9    9    2 1
    10   10    9 ar
    11   11   10 ar
    12   12   11 ar
    13   13   12 ar
    14   14    9 ar
    15   15    1 1
    16   16   15 1
    17   17   16 2
    18   18   16 1
    19   19   18 1
    20   20   19 1
    21   21   20 1
    22   22   21 1
    23   23    4 1
    24   24    5 1
    25   25    6 1
    26   26    7 1
    27   27   10 1
    28   28   11 1
    29   29   12 1
    30   30   13 1
    31   31   14 1
    32   32   18 1
    33   33   18 1
    34   34   19 1
    35   35   19 1
    36   36   20 1
    37   37   20 1
    38   38   21 1
    39   39   21 1
    40   40   22 1
    41   41   22 1
    42   42   22 1
    43   13   14 ar
@<TRIPOS>SUBSTRUCTURE
     1 RES1 1

@<TRIPOS>CRYSIN
   9.3930    9.3510    9.9020  90.0000 106.7700  90.0000   4 1

