# MOL2 file generated by ConQuest
# Please check atom types

@<TRIPOS>MOLECULE
TACHUA
    66    67     1
SMALL
NO_CHARGES
****
Generated from CSD

@<TRIPOS>ATOM
      1 N1         6.0429   17.2337    7.1452 N.2       1 RES1    0.0000
      2 C1         5.8822   16.2298    7.9340 C.2       1 RES1    0.0000
      3 C2         6.9173   16.1743    9.0017 C.ar      1 RES1    0.0000
      4 C3         8.0713   16.9361    8.9344 C.ar      1 RES1    0.0000
      5 C4         8.9961   16.8654    9.9457 C.ar      1 RES1    0.0000
      6 C5         8.7589   16.0330   11.0019 C.ar      1 RES1    0.0000
      7 C6         7.6007   15.2964   10.9955 C.ar      1 RES1    0.0000
      8 N2         6.6746   15.3418   10.0216 N.ar      1 RES1    0.0000
      9 C7         4.8346   15.1804    7.7846 C.ar      1 RES1    0.0000
     10 C8         3.8178   15.0593    8.7027 C.ar      1 RES1    0.0000
     11 C9         2.8317   14.1109    8.5193 C.ar      1 RES1    0.0000
     12 C10        2.8685   13.2734    7.4471 C.ar      1 RES1    0.0000
     13 C11        3.8858   13.3693    6.5306 C.ar      1 RES1    0.0000
     14 C12        4.8661   14.3379    6.6951 C.ar      1 RES1    0.0000
     15 O1         5.0471   17.2640    6.1178 O.3       1 RES1    0.0000
     16 C13        5.2984   18.2326    5.1755 C.2       1 RES1    0.0000
     17 O2         4.4874   18.3033    4.3005 O.2       1 RES1    0.0000
     18 C14        6.5185   19.0751    5.2871 C.3       1 RES1    0.0000
     19 C15        6.6466   20.0135    4.1033 C.3       1 RES1    0.0000
     20 C16        7.8295   20.9468    4.1976 C.3       1 RES1    0.0000
     21 C17        7.8861   21.9205    3.0293 C.3       1 RES1    0.0000
     22 C18        9.0155   22.9245    3.0983 C.3       1 RES1    0.0000
     23 C19        9.0316   23.8931    1.9191 C.3       1 RES1    0.0000
     24 C20       10.1633   24.9072    1.9697 C.3       1 RES1    0.0000
     25 C21       10.1756   25.8657    0.8084 C.3       1 RES1    0.0000
     26 C22       11.2973   26.8848    0.8595 C.3       1 RES1    0.0000
     27 C23       11.3238   27.8484   -0.3168 C.3       1 RES1    0.0000
     28 C24       12.4437   28.8725   -0.2645 C.3       1 RES1    0.0000
     29 C25       12.4585   29.8210   -1.4390 C.3       1 RES1    0.0000
     30 C26       13.5709   30.8451   -1.3925 C.3       1 RES1    0.0000
     31 H1         8.1882   17.5062    8.1698 H         1 RES1    0.0000
     32 H2         9.7697   17.3044    9.9290 H         1 RES1    0.0000
     33 H3         9.3691   15.8918   11.6883 H         1 RES1    0.0000
     34 H4         7.3382   14.6809   11.7516 H         1 RES1    0.0000
     35 H5         3.8171   15.6395    9.5036 H         1 RES1    0.0000
     36 H6         2.0928   14.0251    9.1989 H         1 RES1    0.0000
     37 H7         2.2539   12.5116    7.3879 H         1 RES1    0.0000
     38 H8         3.9316   12.7639    5.7033 H         1 RES1    0.0000
     39 H9         5.6067   14.4287    6.0080 H         1 RES1    0.0000
     40 H10        6.4521   19.5242    6.1977 H         1 RES1    0.0000
     41 H11        7.3329   18.4647    5.3468 H         1 RES1    0.0000
     42 H12        5.8379   20.5836    4.0245 H         1 RES1    0.0000
     43 H13        6.7172   19.4737    3.2541 H         1 RES1    0.0000
     44 H14        7.7512   21.4917    5.0709 H         1 RES1    0.0000
     45 H15        8.6661   20.4323    4.2085 H         1 RES1    0.0000
     46 H16        6.9847   22.4503    2.9379 H         1 RES1    0.0000
     47 H17        8.0189   21.3908    2.1732 H         1 RES1    0.0000
     48 H18        8.9813   23.4593    3.9728 H         1 RES1    0.0000
     49 H19        9.9377   22.4503    3.1736 H         1 RES1    0.0000
     50 H20        8.1806   24.3674    1.8513 H         1 RES1    0.0000
     51 H21        9.1289   23.3584    1.0521 H         1 RES1    0.0000
     52 H22       10.0715   25.4268    2.8114 H         1 RES1    0.0000
     53 H23       11.0643   24.4178    1.9835 H         1 RES1    0.0000
     54 H24        9.3246   26.3854    0.7877 H         1 RES1    0.0000
     55 H25       10.2403   25.3259   -0.0805 H         1 RES1    0.0000
     56 H26       11.2490   27.4448    1.7420 H         1 RES1    0.0000
     57 H27       12.1128   26.3854    0.8969 H         1 RES1    0.0000
     58 H28       10.4702   28.3529   -0.3565 H         1 RES1    0.0000
     59 H29       11.4395   27.2935   -1.1269 H         1 RES1    0.0000
     60 H30       12.3522   29.3619    0.6094 H         1 RES1    0.0000
     61 H31       13.2665   28.3529   -0.2472 H         1 RES1    0.0000
     62 H32       11.5461   30.3205   -1.5351 H         1 RES1    0.0000
     63 H33       12.5558   29.2610   -2.2997 H         1 RES1    0.0000
     64 H34       13.4916   31.3295   -0.5519 H         1 RES1    0.0000
     65 H35       14.4542   30.3709   -1.3338 H         1 RES1    0.0000
     66 H36       13.5330   31.4304   -2.1847 H         1 RES1    0.0000
@<TRIPOS>BOND
     1    1    2 2
     2    2    3 1
     3    3    4 ar
     4    4    5 ar
     5    5    6 ar
     6    6    7 ar
     7    7    8 ar
     8    8    3 ar
     9    9    2 1
    10   10    9 ar
    11   11   10 ar
    12   12   11 ar
    13   13   12 ar
    14   14    9 ar
    15   15    1 1
    16   16   15 1
    17   17   16 2
    18   18   16 1
    19   19   18 1
    20   20   19 1
    21   21   20 1
    22   22   21 1
    23   23   22 1
    24   24   23 1
    25   25   24 1
    26   26   25 1
    27   27   26 1
    28   28   27 1
    29   29   28 1
    30   30   29 1
    31   31    4 1
    32   32    5 1
    33   33    6 1
    34   34    7 1
    35   35   10 1
    36   36   11 1
    37   37   12 1
    38   38   13 1
    39   39   14 1
    40   40   18 1
    41   41   18 1
    42   42   19 1
    43   43   19 1
    44   44   20 1
    45   45   20 1
    46   46   21 1
    47   47   21 1
    48   48   22 1
    49   49   22 1
    50   50   23 1
    51   51   23 1
    52   52   24 1
    53   53   24 1
    54   54   25 1
    55   55   25 1
    56   56   26 1
    57   57   26 1
    58   58   27 1
    59   59   27 1
    60   60   28 1
    61   61   28 1
    62   62   29 1
    63   63   29 1
    64   64   30 1
    65   65   30 1
    66   66   30 1
    67   13   14 ar
@<TRIPOS>SUBSTRUCTURE
     1 RES1 1

@<TRIPOS>CRYSIN
   8.1910   50.4500    5.7910  90.0000  96.8800  90.0000 231 1

