# MOL2 file generated by ConQuest
# Please check atom types

@<TRIPOS>MOLECULE
TACHOU
    48    49     1
SMALL
NO_CHARGES
****
Generated from CSD

@<TRIPOS>ATOM
      1 N1         7.6543   14.2668    5.3750 N.2       1 RES1    0.0000
      2 C1         7.4852   13.2643    6.1486 C.2       1 RES1    0.0000
      3 C2         8.5018   13.1910    7.2388 C.ar      1 RES1    0.0000
      4 C3         9.6627   13.9584    7.1724 C.ar      1 RES1    0.0000
      5 C4        10.5720   13.8620    8.2031 C.ar      1 RES1    0.0000
      6 C5        10.3227   13.0368    9.2515 C.ar      1 RES1    0.0000
      7 C6         9.1522   12.3157    9.2486 C.ar      1 RES1    0.0000
      8 N2         8.2451   12.3736    8.2569 N.ar      1 RES1    0.0000
      9 C7         6.4241   12.2193    5.9951 C.ar      1 RES1    0.0000
     10 C8         5.4089   12.0998    6.9107 C.ar      1 RES1    0.0000
     11 C9         4.4230   11.1320    6.7252 C.ar      1 RES1    0.0000
     12 C10        4.4787   10.2875    5.6596 C.ar      1 RES1    0.0000
     13 C11        5.4905   10.3917    4.7509 C.ar      1 RES1    0.0000
     14 C12        6.4693   11.3710    4.9163 C.ar      1 RES1    0.0000
     15 O1         6.6790   14.3015    4.3374 O.3       1 RES1    0.0000
     16 C13        6.9391   15.2694    3.4052 C.2       1 RES1    0.0000
     17 O2         6.1449   15.3542    2.5234 O.2       1 RES1    0.0000
     18 C14        8.1729   16.1177    3.5358 C.3       1 RES1    0.0000
     19 C15        8.3155   17.0662    2.3740 C.3       1 RES1    0.0000
     20 C16        9.5177   17.9916    2.4776 C.3       1 RES1    0.0000
     21 C17        9.5896   18.9787    1.3261 C.3       1 RES1    0.0000
     22 C18       10.7285   19.9890    1.4212 C.3       1 RES1    0.0000
     23 C19       10.7531   20.9607    0.2623 C.3       1 RES1    0.0000
     24 C20       11.8561   21.9825    0.3327 C.3       1 RES1    0.0000
     25 H1         9.8978   14.4982    6.3501 H         1 RES1    0.0000
     26 H2        11.2948   14.4211    8.1424 H         1 RES1    0.0000
     27 H3        11.0255   12.9558   10.0090 H         1 RES1    0.0000
     28 H4         8.8854   11.6448   10.0262 H         1 RES1    0.0000
     29 H5         7.1868   11.5291    4.2487 H         1 RES1    0.0000
     30 H6         5.5427    9.6783    3.9051 H         1 RES1    0.0000
     31 H7         3.7005    9.6397    5.5084 H         1 RES1    0.0000
     32 H8         3.7428   11.1050    7.3636 H         1 RES1    0.0000
     33 H9         5.3179   12.7630    7.6728 H         1 RES1    0.0000
     34 H10        8.1249   16.5804    4.4376 H         1 RES1    0.0000
     35 H11        8.9319   15.5007    3.5100 H         1 RES1    0.0000
     36 H12        8.3557   16.4647    1.4945 H         1 RES1    0.0000
     37 H13        7.4888   17.6600    2.2560 H         1 RES1    0.0000
     38 H14        9.4409   18.4698    3.4241 H         1 RES1    0.0000
     39 H15       10.4468   17.4287    2.5366 H         1 RES1    0.0000
     40 H16        9.6364   18.4698    0.3779 H         1 RES1    0.0000
     41 H17        8.8033   19.3952    1.3170 H         1 RES1    0.0000
     42 H18       10.5933   20.4363    2.2904 H         1 RES1    0.0000
     43 H19       11.6287   19.5494    1.4258 H         1 RES1    0.0000
     44 H20       10.8982   20.4363   -0.5955 H         1 RES1    0.0000
     45 H21        9.8925   21.4002    0.2290 H         1 RES1    0.0000
     46 H22       11.7493   22.5570    1.1910 H         1 RES1    0.0000
     47 H23       12.6854   21.6316    0.2748 H         1 RES1    0.0000
     48 H24       11.9375   22.4799   -0.5554 H         1 RES1    0.0000
@<TRIPOS>BOND
     1    1    2 2
     2    2    3 1
     3    3    4 ar
     4    4    5 ar
     5    5    6 ar
     6    6    7 ar
     7    7    8 ar
     8    8    3 ar
     9    9    2 1
    10   10    9 ar
    11   11   10 ar
    12   12   11 ar
    13   13   12 ar
    14   14    9 ar
    15   15    1 1
    16   16   15 1
    17   17   16 2
    18   18   16 1
    19   19   18 1
    20   20   19 1
    21   21   20 1
    22   22   21 1
    23   23   22 1
    24   24   23 1
    25   25    4 1
    26   26    5 1
    27   27    6 1
    28   28    7 1
    29   29   14 1
    30   30   13 1
    31   31   12 1
    32   32   11 1
    33   33   10 1
    34   34   18 1
    35   35   18 1
    36   36   19 1
    37   37   19 1
    38   38   20 1
    39   39   20 1
    40   40   21 1
    41   41   21 1
    42   42   22 1
    43   43   22 1
    44   44   23 1
    45   45   23 1
    46   46   24 1
    47   47   24 1
    48   48   24 1
    49   13   14 ar
@<TRIPOS>SUBSTRUCTURE
     1 RES1 1

@<TRIPOS>CRYSIN
   8.1600   38.5590    5.7750  90.0000  97.4700  90.0000 231 1

