# MOL2 file generated by ConQuest
# Please check atom types

@<TRIPOS>MOLECULE
TACWOL
   204   212     1
SMALL
NO_CHARGES
****
Generated from CSD

@<TRIPOS>ATOM
      1 C1        -0.9829    1.7925   13.7837 C.3       1 RES1    0.0000
      2 H1        -1.6546    2.4934   13.9262 H         1 RES1    0.0000
      3 C2        -1.6538    0.6766   12.9669 C.ar      1 RES1    0.0000
      4 C3        -2.9762    0.3544   13.2446 C.ar      1 RES1    0.0000
      5 H2        -3.4535    0.8526   13.8683 H         1 RES1    0.0000
      6 C4        -3.5778   -0.6965   12.5971 C.ar      1 RES1    0.0000
      7 H3        -4.4548   -0.9170   12.8154 H         1 RES1    0.0000
      8 C5        -2.9395   -1.4251   11.6557 C.ar      1 RES1    0.0000
      9 H4        -3.3671   -2.1216   11.2131 H         1 RES1    0.0000
     10 C6        -1.6464   -1.0980   11.3824 C.ar      1 RES1    0.0000
     11 C7        -1.0055   -0.0471   12.0210 C.ar      1 RES1    0.0000
     12 H5        -0.1273    0.1636   11.7982 H         1 RES1    0.0000
     13 C8        -0.5738    1.2687   15.1662 C.ar      1 RES1    0.0000
     14 C9        -0.4950   -0.0813   15.4602 C.ar      1 RES1    0.0000
     15 H6        -0.6732   -0.6965   14.7875 H         1 RES1    0.0000
     16 C10       -0.2607    2.1736   16.1789 C.ar      1 RES1    0.0000
     17 C11       -0.1402    4.4638   16.8308 C.3       1 RES1    0.0000
     18 H7         0.0072    5.3313   16.4225 H         1 RES1    0.0000
     19 H8         0.6508    4.2382   17.3447 H         1 RES1    0.0000
     20 C12       -1.3047    4.5456   17.7411 C.2       1 RES1    0.0000
     21 C13       -2.1236    5.4007   19.8053 C.3       1 RES1    0.0000
     22 H9        -2.0447    6.2855   20.1943 H         1 RES1    0.0000
     23 H10       -2.9721    5.3461   19.3375 H         1 RES1    0.0000
     24 C14       -2.0699    4.3770   20.8670 C.3       1 RES1    0.0000
     25 H11       -1.2141    4.4117   21.3007 H         1 RES1    0.0000
     26 H12       -2.2016    3.5096   20.4824 H         1 RES1    0.0000
     27 H13       -2.7615    4.5505   21.5115 H         1 RES1    0.0000
     28 C15        0.1733    2.4227   13.0337 C.ar      1 RES1    0.0000
     29 C16        1.4708    1.9917   13.1733 C.ar      1 RES1    0.0000
     30 H14        1.6454    1.3037   13.7747 H         1 RES1    0.0000
     31 C17        2.5256    2.5234   12.4694 C.ar      1 RES1    0.0000
     32 C18        2.2558    3.5443   11.5859 C.ar      1 RES1    0.0000
     33 C19        0.9567    4.0176   11.4299 C.ar      1 RES1    0.0000
     34 H15        0.7912    4.7265   10.8508 H         1 RES1    0.0000
     35 C20       -0.0798    3.4476   12.1234 C.ar      1 RES1    0.0000
     36 C21       -1.7412    4.7711   11.0305 C.3       1 RES1    0.0000
     37 H16       -1.1481    5.5370   11.0958 H         1 RES1    0.0000
     38 H17       -2.6432    5.0834   11.1998 H         1 RES1    0.0000
     39 C22       -1.6755    4.2382    9.6598 C.2       1 RES1    0.0000
     40 C23       -1.8161    4.7612    7.3715 C.3       1 RES1    0.0000
     41 H18       -2.5963    4.2110    7.1992 H         1 RES1    0.0000
     42 H19       -1.0249    4.2432    7.1547 H         1 RES1    0.0000
     43 C24       -1.8682    6.0277    6.5072 C.3       1 RES1    0.0000
     44 H20       -2.6406    6.5457    6.7433 H         1 RES1    0.0000
     45 H21       -1.9194    5.7799    5.5806 H         1 RES1    0.0000
     46 H22       -1.0754    6.5482    6.6557 H         1 RES1    0.0000
     47 C25        3.9893    2.0462   12.6506 C.3       1 RES1    0.0000
     48 H23        4.4353    2.1662   11.7863 H         1 RES1    0.0000
     49 C26        4.7374    2.8850   13.6411 C.ar      1 RES1    0.0000
     50 C27        4.1583    3.3212   14.8157 C.ar      1 RES1    0.0000
     51 H24        3.2608    3.1477   14.9895 H         1 RES1    0.0000
     52 C28        4.9251    4.0152   15.7305 C.ar      1 RES1    0.0000
     53 C29        6.2433    4.2903   15.5241 C.ar      1 RES1    0.0000
     54 H25        6.7358    4.7637   16.1537 H         1 RES1    0.0000
     55 C30        6.8154    3.8516   14.3776 C.ar      1 RES1    0.0000
     56 H26        7.7201    4.0077   14.2247 H         1 RES1    0.0000
     57 C31        6.0664    3.1725   13.4273 C.ar      1 RES1    0.0000
     58 H27        6.4681    2.9073   12.6328 H         1 RES1    0.0000
     59 C32       -0.1556   -0.5577   16.7343 C.ar      1 RES1    0.0000
     60 C33        0.1334    0.3842   17.7174 C.ar      1 RES1    0.0000
     61 C34        0.0884    1.7250   17.4412 C.ar      1 RES1    0.0000
     62 H28        0.2940    2.3422   18.1079 H         1 RES1    0.0000
     63 C35        0.7555    0.6915   19.9998 C.3       1 RES1    0.0000
     64 H29        1.3047    1.4202   19.7028 H         1 RES1    0.0000
     65 H30       -0.0758    1.0509   20.3191 H         1 RES1    0.0000
     66 C36        1.3934   -0.1785   21.0809 C.2       1 RES1    0.0000
     67 C37        2.5035    0.0025   23.0232 C.3       1 RES1    0.0000
     68 H31        3.4581    0.0867   23.0678 H         1 RES1    0.0000
     69 H32        2.2875   -0.9096   22.8198 H         1 RES1    0.0000
     70 C38        2.8015    1.0682   24.1013 C.3       1 RES1    0.0000
     71 H33        1.9706    1.4425   24.4147 H         1 RES1    0.0000
     72 H34        3.2626    0.6618   24.8349 H         1 RES1    0.0000
     73 H35        3.3406    1.7647   23.7227 H         1 RES1    0.0000
     74 C39        3.2178    4.3746    9.6019 C.3       1 RES1    0.0000
     75 H36        2.6708    5.1627    9.4549 H         1 RES1    0.0000
     76 H37        2.7872    3.6211    9.1668 H         1 RES1    0.0000
     77 C40        4.5505    4.5827    9.0287 C.2       1 RES1    0.0000
     78 C41        5.7049    5.2594    7.0938 C.3       1 RES1    0.0000
     79 H38        6.5023    5.1355    7.6135 H         1 RES1    0.0000
     80 H39        5.6259    6.1839    6.8458 H         1 RES1    0.0000
     81 C42        5.7347    4.4935    5.8954 C.3       1 RES1    0.0000
     82 H40        6.4491    4.8058    5.3356 H         1 RES1    0.0000
     83 H41        4.8993    4.5902    5.4336 H         1 RES1    0.0000
     84 H42        5.8772    3.5690    6.1092 H         1 RES1    0.0000
     85 N1        -0.9343   -1.8490   10.3563 N.pl3     1 RES1    0.0000
     86 N2         4.2716    4.4489   16.9511 N.pl3     1 RES1    0.0000
     87 O1         0.2178   -1.5962   10.1395 O.2       1 RES1    0.0000
     88 O2        -1.4471   -2.7437    9.7861 O.2       1 RES1    0.0000
     89 O3        -0.3255    3.5026   15.8196 O.3       1 RES1    0.0000
     90 O4        -2.3853    4.1019   17.4976 O.2       1 RES1    0.0000
     91 O5        -1.0080    5.1652   18.8564 O.3       1 RES1    0.0000
     92 O6        -1.3911    3.8407   12.0210 O.3       1 RES1    0.0000
     93 O7        -1.5469    3.0709    9.4267 O.2       1 RES1    0.0000
     94 O8        -1.7856    5.1454    8.7302 O.3       1 RES1    0.0000
     95 O9         4.8796    5.1999   17.6951 O.2       1 RES1    0.0000
     96 O10        3.1580    4.0523   17.2303 O.2       1 RES1    0.0000
     97 O11        0.4916   -0.1358   18.9291 O.3       1 RES1    0.0000
     98 O12        1.6874   -1.2789   21.0245 O.2       1 RES1    0.0000
     99 O13        1.9505    0.7609   21.9036 O.3       1 RES1    0.0000
    100 O14        3.3281    4.1304   10.9518 O.3       1 RES1    0.0000
    101 O15        5.5958    4.6224    9.5960 O.2       1 RES1    0.0000
    102 O16        4.5183    4.8256    7.8170 O.3       1 RES1    0.0000
    103 C1B        4.8577   -1.7925   15.9161 C.3       1 RES1    0.0000
    104 H1B        5.5294   -2.4934   15.7735 H         1 RES1    0.0000
    105 C2B        5.5286   -0.6766   16.7328 C.ar      1 RES1    0.0000
    106 C3B        6.8510   -0.3544   16.4551 C.ar      1 RES1    0.0000
    107 H2B        7.3283   -0.8526   15.8315 H         1 RES1    0.0000
    108 C4B        7.4526    0.6965   17.1026 C.ar      1 RES1    0.0000
    109 H3B        8.3296    0.9170   16.8843 H         1 RES1    0.0000
    110 C5B        6.8143    1.4251   18.0441 C.ar      1 RES1    0.0000
    111 H4B        7.2419    2.1216   18.4866 H         1 RES1    0.0000
    112 C6B        5.5212    1.0980   18.3173 C.ar      1 RES1    0.0000
    113 C7B        4.8803    0.0471   17.6788 C.ar      1 RES1    0.0000
    114 H5B        4.0021   -0.1636   17.9015 H         1 RES1    0.0000
    115 C8B        4.4486   -1.2687   14.5336 C.ar      1 RES1    0.0000
    116 C9B        4.3698    0.0813   14.2395 C.ar      1 RES1    0.0000
    117 H6B        4.5480    0.6965   14.9122 H         1 RES1    0.0000
    118 C10B       4.1355   -2.1736   13.5208 C.ar      1 RES1    0.0000
    119 C11B       4.0150   -4.4638   12.8689 C.3       1 RES1    0.0000
    120 H7B        3.8676   -5.3313   13.2773 H         1 RES1    0.0000
    121 H8B        3.2240   -4.2382   12.3551 H         1 RES1    0.0000
    122 C12B       5.1795   -4.5456   11.9586 C.2       1 RES1    0.0000
    123 C13B       5.9984   -5.4007    9.8945 C.3       1 RES1    0.0000
    124 H9B        5.9195   -6.2855    9.5054 H         1 RES1    0.0000
    125 H10B       6.8469   -5.3461   10.3622 H         1 RES1    0.0000
    126 C14B       5.9447   -4.3770    8.8327 C.3       1 RES1    0.0000
    127 H11B       5.0889   -4.4117    8.3991 H         1 RES1    0.0000
    128 H12B       6.0764   -3.5096    9.2173 H         1 RES1    0.0000
    129 H13B       6.6363   -4.5505    8.1882 H         1 RES1    0.0000
    130 C15B       3.7015   -2.4227   16.6660 C.ar      1 RES1    0.0000
    131 C16B       2.4040   -1.9917   16.5264 C.ar      1 RES1    0.0000
    132 H14B       2.2294   -1.3037   15.9250 H         1 RES1    0.0000
    133 C17B       1.3492   -2.5234   17.2303 C.ar      1 RES1    0.0000
    134 C18B       1.6190   -3.5443   18.1139 C.ar      1 RES1    0.0000
    135 C19B       2.9181   -4.0176   18.2698 C.ar      1 RES1    0.0000
    136 H15B       3.0836   -4.7265   18.8489 H         1 RES1    0.0000
    137 C20B       3.9546   -3.4476   17.5763 C.ar      1 RES1    0.0000
    138 C21B       5.6160   -4.7711   18.6693 C.3       1 RES1    0.0000
    139 H16B       5.0229   -5.5370   18.6039 H         1 RES1    0.0000
    140 H17B       6.5180   -5.0834   18.5000 H         1 RES1    0.0000
    141 C22B       5.5503   -4.2382   20.0399 C.2       1 RES1    0.0000
    142 C23B       5.6909   -4.7612   22.3283 C.3       1 RES1    0.0000
    143 H18B       6.4711   -4.2110   22.5005 H         1 RES1    0.0000
    144 H19B       4.8997   -4.2432   22.5451 H         1 RES1    0.0000
    145 C24B       5.7430   -6.0277   23.1925 C.3       1 RES1    0.0000
    146 H20B       6.5154   -6.5457   22.9564 H         1 RES1    0.0000
    147 H21B       5.7942   -5.7799   24.1192 H         1 RES1    0.0000
    148 H22B       4.9502   -6.5482   23.0440 H         1 RES1    0.0000
    149 C25B      -0.1145   -2.0462   17.0491 C.3       1 RES1    0.0000
    150 H23B      -0.5605   -2.1662   17.9134 H         1 RES1    0.0000
    151 C26B      -0.8626   -2.8850   16.0587 C.ar      1 RES1    0.0000
    152 C27B      -0.2835   -3.3212   14.8840 C.ar      1 RES1    0.0000
    153 H24B       0.6140   -3.1477   14.7103 H         1 RES1    0.0000
    154 C28B      -1.0503   -4.0152   13.9693 C.ar      1 RES1    0.0000
    155 C29B      -2.3685   -4.2903   14.1757 C.ar      1 RES1    0.0000
    156 H25B      -2.8610   -4.7637   13.5461 H         1 RES1    0.0000
    157 C30B      -2.9406   -3.8516   15.3221 C.ar      1 RES1    0.0000
    158 H26B      -3.8453   -4.0077   15.4751 H         1 RES1    0.0000
    159 C31B      -2.1916   -3.1725   16.2725 C.ar      1 RES1    0.0000
    160 H27B      -2.5933   -2.9073   17.0670 H         1 RES1    0.0000
    161 C32B       4.0304    0.5577   12.9654 C.ar      1 RES1    0.0000
    162 C33B       3.7414   -0.3842   11.9824 C.ar      1 RES1    0.0000
    163 C34B       3.7864   -1.7250   12.2586 C.ar      1 RES1    0.0000
    164 H28B       3.5808   -2.3422   11.5918 H         1 RES1    0.0000
    165 C35B       3.1193   -0.6915    9.6999 C.3       1 RES1    0.0000
    166 H29B       2.5701   -1.4202    9.9969 H         1 RES1    0.0000
    167 H30B       3.9506   -1.0509    9.3807 H         1 RES1    0.0000
    168 C36B       2.4814    0.1785    8.6189 C.2       1 RES1    0.0000
    169 C37B       1.3713   -0.0025    6.6765 C.3       1 RES1    0.0000
    170 H31B       0.4167   -0.0867    6.6320 H         1 RES1    0.0000
    171 H32B       1.5873    0.9096    6.8799 H         1 RES1    0.0000
    172 C38B       1.0733   -1.0682    5.5984 C.3       1 RES1    0.0000
    173 H33B       1.9042   -1.4425    5.2851 H         1 RES1    0.0000
    174 H34B       0.6122   -0.6618    4.8648 H         1 RES1    0.0000
    175 H35B       0.5342   -1.7647    5.9771 H         1 RES1    0.0000
    176 C39B       0.6570   -4.3746   20.0978 C.3       1 RES1    0.0000
    177 H36B       1.2040   -5.1627   20.2448 H         1 RES1    0.0000
    178 H37B       1.0876   -3.6211   20.5329 H         1 RES1    0.0000
    179 C40B      -0.6757   -4.5827   20.6710 C.2       1 RES1    0.0000
    180 C41B      -1.8301   -5.2594   22.6060 C.3       1 RES1    0.0000
    181 H38B      -2.6275   -5.1355   22.0862 H         1 RES1    0.0000
    182 H39B      -1.7511   -6.1839   22.8540 H         1 RES1    0.0000
    183 C42B      -1.8599   -4.4935   23.8043 C.3       1 RES1    0.0000
    184 H40B      -2.5743   -4.8058   24.3642 H         1 RES1    0.0000
    185 H41B      -1.0245   -4.5902   24.2662 H         1 RES1    0.0000
    186 H42B      -2.0024   -3.5690   23.5905 H         1 RES1    0.0000
    187 N1B        4.8091    1.8490   19.3434 N.pl3     1 RES1    0.0000
    188 N2B       -0.3968   -4.4489   12.7486 N.pl3     1 RES1    0.0000
    189 O1B        3.6570    1.5962   19.5603 O.2       1 RES1    0.0000
    190 O2B        5.3219    2.7437   19.9137 O.2       1 RES1    0.0000
    191 O3B        4.2003   -3.5026   13.8802 O.3       1 RES1    0.0000
    192 O4B        6.2601   -4.1019   12.2021 O.2       1 RES1    0.0000
    193 O5B        4.8828   -5.1652   10.8434 O.3       1 RES1    0.0000
    194 O6B        5.2659   -3.8407   17.6788 O.3       1 RES1    0.0000
    195 O7B        5.4217   -3.0709   20.2730 O.2       1 RES1    0.0000
    196 O8B        5.6604   -5.1454   20.9695 O.3       1 RES1    0.0000
    197 O9B       -1.0048   -5.1999   12.0046 O.2       1 RES1    0.0000
    198 O10B       0.7168   -4.0523   12.4694 O.2       1 RES1    0.0000
    199 O11B       3.3832    0.1358   10.7706 O.3       1 RES1    0.0000
    200 O12B       2.1874    1.2789    8.6753 O.2       1 RES1    0.0000
    201 O13B       1.9243   -0.7609    7.7962 O.3       1 RES1    0.0000
    202 O14B       0.5467   -4.1304   18.7480 O.3       1 RES1    0.0000
    203 O15B      -1.7210   -4.6224   20.1038 O.2       1 RES1    0.0000
    204 O16B      -0.6435   -4.8256   21.8828 O.3       1 RES1    0.0000
@<TRIPOS>BOND
     1    1    2 1
     2    3    1 1
     3    4    3 ar
     4    5    4 1
     5    6    4 ar
     6    7    6 1
     7    8    6 ar
     8    9    8 1
     9   10    8 ar
    10   11    3 ar
    11   12   11 1
    12   13    1 1
    13   14   13 ar
    14   15   14 1
    15   16   13 ar
    16   17   18 1
    17   19   17 1
    18   20   17 1
    19   21   22 1
    20   23   21 1
    21   24   21 1
    22   25   24 1
    23   26   24 1
    24   27   24 1
    25   28    1 1
    26   29   28 ar
    27   30   29 1
    28   31   29 ar
    29   32   31 ar
    30   33   32 ar
    31   34   33 1
    32   35   28 ar
    33   36   37 1
    34   38   36 1
    35   39   36 1
    36   40   41 1
    37   42   40 1
    38   43   40 1
    39   44   43 1
    40   45   43 1
    41   46   43 1
    42   47   31 1
    43   48   47 1
    44   49   47 1
    45   50   49 ar
    46   51   50 1
    47   52   50 ar
    48   53   52 ar
    49   54   53 1
    50   55   53 ar
    51   56   55 1
    52   57   49 ar
    53   58   57 1
    54   59   14 ar
    55   60   59 ar
    56   61   16 ar
    57   62   61 1
    58   63   64 1
    59   65   63 1
    60   66   63 1
    61   67   68 1
    62   69   67 1
    63   70   67 1
    64   71   70 1
    65   72   70 1
    66   73   70 1
    67   74   75 1
    68   76   74 1
    69   77   74 1
    70   78   79 1
    71   80   78 1
    72   81   78 1
    73   82   81 1
    74   83   81 1
    75   84   81 1
    76   85   10 1
    77   86   52 1
    78   87   85 2
    79   88   85 2
    80   89   16 1
    81   90   20 2
    82   91   20 1
    83   92   35 1
    84   93   39 2
    85   94   39 1
    86   95   86 2
    87   96   86 2
    88   97   60 1
    89   98   66 2
    90   99   66 1
    91  100   32 1
    92  101   77 2
    93  102   77 1
    94  103  104 1
    95  105  103 1
    96  106  105 ar
    97  107  106 1
    98  108  106 ar
    99  109  108 1
   100  110  108 ar
   101  111  110 1
   102  112  110 ar
   103  113  105 ar
   104  114  113 1
   105  115  103 1
   106  116  115 ar
   107  117  116 1
   108  118  115 ar
   109  119  120 1
   110  121  119 1
   111  122  119 1
   112  123  124 1
   113  125  123 1
   114  126  123 1
   115  127  126 1
   116  128  126 1
   117  129  126 1
   118  130  103 1
   119  131  130 ar
   120  132  131 1
   121  133  131 ar
   122  134  133 ar
   123  135  134 ar
   124  136  135 1
   125  137  130 ar
   126  138  139 1
   127  140  138 1
   128  141  138 1
   129  142  143 1
   130  144  142 1
   131  145  142 1
   132  146  145 1
   133  147  145 1
   134  148  145 1
   135  149   59 1
   136  150  149 1
   137  151  149 1
   138  152  151 ar
   139  153  152 1
   140  154  152 ar
   141  155  154 ar
   142  156  155 1
   143  157  155 ar
   144  158  157 1
   145  159  151 ar
   146  160  159 1
   147  161   47 1
   148  162  161 ar
   149  163  118 ar
   150  164  163 1
   151  165  166 1
   152  167  165 1
   153  168  165 1
   154  169  170 1
   155  171  169 1
   156  172  169 1
   157  173  172 1
   158  174  172 1
   159  175  172 1
   160  176  177 1
   161  178  176 1
   162  179  176 1
   163  180  181 1
   164  182  180 1
   165  183  180 1
   166  184  183 1
   167  185  183 1
   168  186  183 1
   169  187  112 1
   170  188  154 1
   171  189  187 2
   172  190  187 2
   173  191  118 1
   174  192  122 2
   175  193  122 1
   176  194  137 1
   177  195  141 2
   178  196  141 1
   179  197  188 2
   180  198  188 2
   181  199  162 1
   182  200  168 2
   183  201  168 1
   184  202  134 1
   185  203  179 2
   186  204  179 1
   187   10   11 ar
   188   17   89 1
   189   21   91 1
   190   33   35 ar
   191   36   92 1
   192   40   94 1
   193   55   57 ar
   194   60   61 ar
   195   63   97 1
   196   67   99 1
   197   74  100 1
   198   78  102 1
   199  112  113 ar
   200  116  161 ar
   201  119  191 1
   202  123  193 1
   203  133  149 1
   204  135  137 ar
   205  138  194 1
   206  142  196 1
   207  157  159 ar
   208  162  163 ar
   209  165  199 1
   210  169  201 1
   211  176  202 1
   212  180  204 1
@<TRIPOS>SUBSTRUCTURE
     1 RES1 1

@<TRIPOS>CRYSIN
  11.2418   24.7850   15.2999  90.0000 103.9310  90.0000 231 1

