# MOL2 file generated by ConQuest
# Please check atom types

@<TRIPOS>MOLECULE
TADNAP
    60    62     2
SMALL
NO_CHARGES
****
Generated from CSD

@<TRIPOS>ATOM
      1 O1         5.4202   11.6606    4.3996 O.3       1 RES1    0.0000
      2 O2         3.7116    8.2786    1.8809 O.3       1 RES1    0.0000
      3 O3         8.3815   11.5927    2.0492 O.2       1 RES1    0.0000
      4 O4         7.5808    9.9033    0.9887 O.2       1 RES1    0.0000
      5 O5         4.1769   13.4428    2.4128 O.2       1 RES1    0.0000
      6 O6         2.4049   13.0879    1.2223 O.2       1 RES1    0.0000
      7 N1         7.4741   11.0105    1.4754 N.pl3     1 RES1    0.0000
      8 N2         3.3968   12.6885    1.8271 N.pl3     1 RES1    0.0000
      9 C1         5.7627   11.1568    5.6325 C.2       1 RES1    0.0000
     10 C2         5.9870    9.8657    5.5695 C.2       1 RES1    0.0000
     11 C3         5.7847    9.4985    4.2222 C.2       1 RES1    0.0000
     12 C4         5.4400   10.6048    3.5517 C.2       1 RES1    0.0000
     13 C5         5.1192   10.8286    2.1118 C.3       1 RES1    0.0000
     14 C6         6.1529   11.7020    1.3850 C.3       1 RES1    0.0000
     15 C7         3.6859   11.2579    1.8533 C.2       1 RES1    0.0000
     16 C8         2.6304   10.4515    1.6973 C.2       1 RES1    0.0000
     17 C9         2.5788    9.0237    1.6680 C.2       1 RES1    0.0000
     18 C10        1.5524    8.1929    1.3508 C.2       1 RES1    0.0000
     19 C11        2.0698    6.8815    1.3525 C.2       1 RES1    0.0000
     20 C12        3.3542    6.9770    1.6753 C.2       1 RES1    0.0000
     21 H1         1.7928   10.8582    1.6081 H         1 RES1    0.0000
     22 H2         5.2342    9.9462    1.6811 H         1 RES1    0.0000
     23 H3         0.6814    8.4584    1.1280 H         1 RES1    0.0000
     24 H4         5.9284   11.7374    0.4127 H         1 RES1    0.0000
     25 H5         6.2528   12.6042    1.8021 H         1 RES1    0.0000
     26 H6         1.6481    6.0983    1.1198 H         1 RES1    0.0000
     27 H7         4.0771    6.3672    1.7375 H         1 RES1    0.0000
     28 H8         6.2182    9.3520    6.2950 H         1 RES1    0.0000
     29 H9         5.8595    8.6553    3.8353 H         1 RES1    0.0000
     30 H10        5.7900   11.7915    6.2730 H         1 RES1    0.0000
     31 O7         6.7913    6.5022    5.7121 O.3       2 RES2    0.0000
     32 O8         9.3790    8.5516    4.5021 O.3       2 RES2    0.0000
     33 O9         6.3601    5.2433    0.8112 O.2       2 RES2    0.0000
     34 O10        6.9607    7.1129    1.6247 O.2       2 RES2    0.0000
     35 O11        8.8696    3.3050    4.3010 O.2       2 RES2    0.0000
     36 O12       10.5643    3.7716    5.5544 O.2       2 RES2    0.0000
     37 N3         7.0355    5.9085    1.5666 N.pl3     2 RES2    0.0000
     38 N4         9.6421    4.1133    4.8110 N.pl3     2 RES2    0.0000
     39 C13        9.7854    9.8517    4.6050 C.2       2 RES2    0.0000
     40 C14       11.0355    9.9346    5.0665 C.2       2 RES2    0.0000
     41 C15       11.4677    8.6136    5.2834 C.2       2 RES2    0.0000
     42 C16       10.4446    7.7919    4.9231 C.2       2 RES2    0.0000
     43 C17       10.3621    6.3659    4.9700 C.2       2 RES2    0.0000
     44 C18        9.4114    5.5317    4.5329 C.2       2 RES2    0.0000
     45 C19        8.1359    5.8736    3.7998 C.3       2 RES2    0.0000
     46 C20        7.9951    5.1794    2.4542 C.3       2 RES2    0.0000
     47 C21        6.9059    5.6751    4.6369 C.2       2 RES2    0.0000
     48 C22        5.8392    4.8649    4.5675 C.2       2 RES2    0.0000
     49 C23        4.9958    5.1938    5.6590 C.2       2 RES2    0.0000
     50 C24        5.5993    6.1691    6.3229 C.2       2 RES2    0.0000
     51 H11        8.2071    6.8162    3.5891 H         2 RES2    0.0000
     52 H12        7.6241    4.3004    2.5243 H         2 RES2    0.0000
     53 H13       11.0914    5.9883    5.3981 H         2 RES2    0.0000
     54 H14       12.2772    8.2985    5.6086 H         2 RES2    0.0000
     55 H15       11.5242   10.6668    5.2247 H         2 RES2    0.0000
     56 H16        9.1485   10.4564    4.3237 H         2 RES2    0.0000
     57 H17        8.8273    5.1481    1.9521 H         2 RES2    0.0000
     58 H18        4.1458    4.8223    5.9043 H         2 RES2    0.0000
     59 H19        5.7126    4.2035    3.9027 H         2 RES2    0.0000
     60 H20        5.4366    6.7310    7.1011 H         2 RES2    0.0000
@<TRIPOS>BOND
     1    1    9 1
     2    2   17 1
     3    3    7 2
     4    4    7 2
     5    5    8 2
     6    6    8 2
     7    7   14 1
     8    8   15 1
     9    9   10 2
    10   10   11 1
    11   11   12 2
    12   12    1 1
    13   13   12 1
    14   14   13 1
    15   15   13 1
    16   16   15 2
    17   17   16 1
    18   18   17 2
    19   19   18 1
    20   20    2 1
    21   21   16 1
    22   22   13 1
    23   23   18 1
    24   24   14 1
    25   25   14 1
    26   26   19 1
    27   27   20 1
    28   28   10 1
    29   29   11 1
    30   30    9 1
    31   31   47 1
    32   32   39 1
    33   33   37 2
    34   34   37 2
    35   35   38 2
    36   36   38 2
    37   37   46 1
    38   38   44 1
    39   39   40 2
    40   40   41 1
    41   41   42 2
    42   42   32 1
    43   43   42 1
    44   44   43 2
    45   45   44 1
    46   46   45 1
    47   47   45 1
    48   48   47 2
    49   49   48 1
    50   50   31 1
    51   51   45 1
    52   52   46 1
    53   53   43 1
    54   54   41 1
    55   55   40 1
    56   56   39 1
    57   57   46 1
    58   58   49 1
    59   59   48 1
    60   60   50 1
    61   19   20 2
    62   49   50 2
@<TRIPOS>SUBSTRUCTURE
     1 RES1 1
     2 RES2 31

@<TRIPOS>CRYSIN
   9.0724    9.7915   14.0849  89.6570  77.6620  82.9330   2 1

