# MOL2 file generated by ConQuest
# Please check atom types

@<TRIPOS>MOLECULE
TADVAW
    30    30     1
SMALL
NO_CHARGES
****
Generated from CSD

@<TRIPOS>ATOM
      1 O1         0.2225    6.7768   10.8012 O.2       1 RES1    0.0000
      2 O2         1.1073    6.6210    8.8466 O.2       1 RES1    0.0000
      3 O3         5.3313    4.7250    8.1088 O.2       1 RES1    0.0000
      4 O4         6.4867    3.9154    9.7352 O.2       1 RES1    0.0000
      5 N1         1.1560    6.4607   10.0534 N.pl3     1 RES1    0.0000
      6 N2         5.5016    4.4982    9.2929 N.pl3     1 RES1    0.0000
      7 N3         1.5854    6.1342   12.9494 N.pl3     1 RES1    0.0000
      8 H1         0.8189    6.4282   12.6941 H         1 RES1    0.0000
      9 N4         1.8891    6.0367   14.2997 N.2       1 RES1    0.0000
     10 C1         2.5106    5.7620   12.0448 C.ar      1 RES1    0.0000
     11 C2         2.3460    5.8809   10.6396 C.ar      1 RES1    0.0000
     12 C3         3.3194    5.4658    9.7477 C.ar      1 RES1    0.0000
     13 H2         3.1853    5.5463    8.8313 H         1 RES1    0.0000
     14 C4         4.4782    4.9377   10.2332 C.ar      1 RES1    0.0000
     15 C5         4.6992    4.8143   11.6070 C.ar      1 RES1    0.0000
     16 H3         5.4970    4.4539   11.9215 H         1 RES1    0.0000
     17 C6         3.7469    5.2228   12.4821 C.ar      1 RES1    0.0000
     18 H4         3.9094    5.1474   13.3957 H         1 RES1    0.0000
     19 C7         0.9883    6.4253   15.0890 C.2       1 RES1    0.0000
     20 H5         0.1836    6.7288   14.7353 H         1 RES1    0.0000
     21 C8         1.1614    6.4171   16.5795 C.3       1 RES1    0.0000
     22 H6         1.1485    7.3567   16.8569 H         1 RES1    0.0000
     23 C9        -0.0234    5.7863   17.2139 C.3       1 RES1    0.0000
     24 H7         0.0837    5.7915   18.1681 H         1 RES1    0.0000
     25 H8        -0.1073    4.8808   16.9065 H         1 RES1    0.0000
     26 H9        -0.8125    6.2790   16.9774 H         1 RES1    0.0000
     27 C10        2.4887    5.8846   16.9994 C.3       1 RES1    0.0000
     28 H10        3.1854    6.3750   16.5568 H         1 RES1    0.0000
     29 H11        2.5507    4.9561   16.7624 H         1 RES1    0.0000
     30 H12        2.5854    5.9791   17.9508 H         1 RES1    0.0000
@<TRIPOS>BOND
     1    1    5 2
     2    2    5 2
     3    3    6 2
     4    4    6 2
     5    5   11 1
     6    6   14 1
     7    7    8 1
     8    9    7 1
     9   10    7 1
    10   11   10 ar
    11   12   11 ar
    12   13   12 1
    13   14   12 ar
    14   15   14 ar
    15   16   15 1
    16   17   10 ar
    17   18   17 1
    18   19    9 2
    19   20   19 1
    20   21   19 1
    21   22   21 1
    22   23   21 1
    23   24   23 1
    24   25   23 1
    25   26   23 1
    26   27   21 1
    27   28   27 1
    28   29   27 1
    29   30   27 1
    30   15   17 ar
@<TRIPOS>SUBSTRUCTURE
     1 RES1 1

@<TRIPOS>CRYSIN
   7.0514    7.3862   23.6459  90.0000  92.3720  90.0000  14 1

