# MOL2 file generated by ConQuest
# Please check atom types

@<TRIPOS>MOLECULE
TAFDUZ
    34    36     1
SMALL
NO_CHARGES
****
Generated from CSD

@<TRIPOS>ATOM
      1 O1         2.0610    1.9061    3.6241 O.2       1 RES1    0.0000
      2 O2         0.2511    1.5994    4.6234 O.2       1 RES1    0.0000
      3 O3         1.6013    0.9403    0.8592 O.2       1 RES1    0.0000
      4 O4         0.0004   -0.1889    1.7501 O.2       1 RES1    0.0000
      5 N1         0.8777    1.8552    3.6524 N.pl3     1 RES1    0.0000
      6 N2         0.6189    0.8332    1.5609 N.pl3     1 RES1    0.0000
      7 C1        -1.3811    2.0883    2.4807 C.3       1 RES1    0.0000
      8 C2         0.1284    2.0923    2.3157 C.3       1 RES1    0.0000
      9 C3         0.6026    3.3487    1.5744 C.3       1 RES1    0.0000
     10 C4        -0.0877    3.3487    0.1885 C.3       1 RES1    0.0000
     11 C5        -1.5994    3.3487    0.3535 C.3       1 RES1    0.0000
     12 C6        -2.0268    2.1003    1.0929 C.3       1 RES1    0.0000
     13 C7        -1.7912    3.3488    3.2497 C.3       1 RES1    0.0000
     14 H1        -1.6254    1.2859    2.9427 H         1 RES1    0.0000
     15 H2         1.5974    3.3487    1.5353 H         1 RES1    0.0000
     16 H3         0.2532    2.5049   -0.2491 H         1 RES1    0.0000
     17 H4        -1.9468    3.3487   -0.4848 H         1 RES1    0.0000
     18 H5        -1.8166    1.2993    0.5522 H         1 RES1    0.0000
     19 H6        -2.9809    2.0494    1.1851 H         1 RES1    0.0000
     20 H7        -1.4825    3.3488    4.1682 H         1 RES1    0.0000
     21 H8        -2.7842    3.3488    3.2255 H         1 RES1    0.0000
     22 C2C        0.1284    4.6052    2.3157 C.3       1 RES1    0.0000
     23 H3C        0.2532    4.1926   -0.2491 H         1 RES1    0.0000
     24 C6C       -2.0268    4.5972    1.0929 C.3       1 RES1    0.0000
     25 C1C       -1.3811    4.6092    2.4807 C.3       1 RES1    0.0000
     26 N1C        0.8777    4.8423    3.6524 N.pl3     1 RES1    0.0000
     27 N2C        0.6189    5.8643    1.5609 N.pl3     1 RES1    0.0000
     28 H5C       -1.8166    5.3982    0.5522 H         1 RES1    0.0000
     29 H6C       -2.9809    4.6481    1.1851 H         1 RES1    0.0000
     30 H1C       -1.6254    5.4116    2.9427 H         1 RES1    0.0000
     31 O1C        2.0610    4.7914    3.6241 O.2       1 RES1    0.0000
     32 O2C        0.2511    5.0981    4.6234 O.2       1 RES1    0.0000
     33 O3C        1.6013    5.7572    0.8592 O.2       1 RES1    0.0000
     34 O4C        0.0004    6.8864    1.7501 O.2       1 RES1    0.0000
@<TRIPOS>BOND
     1    1    5 2
     2    2    5 2
     3    3    6 2
     4    4    6 2
     5    5    8 1
     6    6    8 1
     7    7    8 1
     8    8    9 1
     9    9   10 1
    10   10   11 1
    11   11   12 1
    12   12    7 1
    13   13    7 1
    14   14    7 1
    15   15    9 1
    16   16   10 1
    17   17   11 1
    18   18   12 1
    19   19   12 1
    20   20   13 1
    21   21   13 1
    22   22    9 1
    23   23   10 1
    24   24   11 1
    25   25   13 1
    26   26   22 1
    27   27   22 1
    28   28   24 1
    29   29   24 1
    30   30   25 1
    31   31   26 2
    32   32   26 2
    33   33   27 2
    34   34   27 2
    35   22   25 1
    36   24   25 1
@<TRIPOS>SUBSTRUCTURE
     1 RES1 1

@<TRIPOS>CRYSIN
   7.0740   13.3950    7.3040  90.0000 112.7900  90.0000  11 1

