# MOL2 file generated by ConQuest
# Please check atom types

@<TRIPOS>MOLECULE
TAFFUE
    45    47     1
SMALL
NO_CHARGES
****
Generated from CSD

@<TRIPOS>ATOM
      1 C1         3.2348    4.4097    5.9331 C.ar      1 RES1    0.0000
      2 C2         3.1048    3.2579    6.6441 C.ar      1 RES1    0.0000
      3 H1         3.2806    3.2596    7.5579 H         1 RES1    0.0000
      4 C3         2.7156    2.0843    6.0278 C.ar      1 RES1    0.0000
      5 H2         2.6571    1.3018    6.5270 H         1 RES1    0.0000
      6 C4         2.4198    2.0586    4.7208 C.ar      1 RES1    0.0000
      7 H3         2.1490    1.2690    4.3113 H         1 RES1    0.0000
      8 C5         2.5220    3.1983    4.0138 C.ar      1 RES1    0.0000
      9 H4         2.3176    3.1916    3.1061 H         1 RES1    0.0000
     10 C6         2.9260    4.3750    4.6077 C.ar      1 RES1    0.0000
     11 H5         2.9872    5.1509    4.0994 H         1 RES1    0.0000
     12 C7         4.8111    5.9636    6.6187 C.2       1 RES1    0.0000
     13 C8         6.0422    5.2379    6.1338 C.3       1 RES1    0.0000
     14 H6         5.9668    4.2819    6.2805 H         1 RES1    0.0000
     15 H7         6.1990    5.4039    5.1914 H         1 RES1    0.0000
     16 C9         7.1370    5.8346    6.9824 C.3       1 RES1    0.0000
     17 C10        8.5195    5.9474    6.3874 C.3       1 RES1    0.0000
     18 H8         9.1057    6.3729    7.0170 H         1 RES1    0.0000
     19 H9         8.4802    6.4702    5.5826 H         1 RES1    0.0000
     20 H10        8.8519    5.0705    6.1827 H         1 RES1    0.0000
     21 C11        4.6160    8.1897    7.8510 C.ar      1 RES1    0.0000
     22 C12        5.3651    9.1660    8.5003 C.ar      1 RES1    0.0000
     23 H11        6.2934    9.1074    8.5176 H         1 RES1    0.0000
     24 C13        4.7225   10.2207    9.1186 C.ar      1 RES1    0.0000
     25 H12        5.2313   10.8582    9.5648 H         1 RES1    0.0000
     26 C14        3.3456   10.3575    9.0944 C.ar      1 RES1    0.0000
     27 C15        2.6135    9.3748    8.4407 C.ar      1 RES1    0.0000
     28 H13        1.6865    9.4415    8.4177 H         1 RES1    0.0000
     29 C16        3.2252    8.3040    7.8247 C.ar      1 RES1    0.0000
     30 H14        2.7124    7.6593    7.3929 H         1 RES1    0.0000
     31 C17        2.7201   11.5286    9.7429 C.2       1 RES1    0.0000
     32 C18        0.7096   12.7655   10.1048 C.3       1 RES1    0.0000
     33 H15        1.0436   13.6096    9.7625 H         1 RES1    0.0000
     34 H16        0.8401   12.7503   11.0654 H         1 RES1    0.0000
     35 C19       -0.7276   12.6158    9.7818 C.3       1 RES1    0.0000
     36 H17       -0.8616   12.7631    8.8426 H         1 RES1    0.0000
     37 H18       -1.2367   13.2581   10.2820 H         1 RES1    0.0000
     38 H19       -1.0165   11.7300   10.0110 H         1 RES1    0.0000
     39 N1         3.5751    5.6415    6.5593 N.2       1 RES1    0.0000
     40 N2         5.2609    7.1269    7.2179 N.3       1 RES1    0.0000
     41 O1         7.1107    5.1554    8.1985 O.3       1 RES1    0.0000
     42 H20        7.6856    5.4628    8.6959 H         1 RES1    0.0000
     43 O2         6.6818    7.2098    7.1752 O.3       1 RES1    0.0000
     44 O3         3.3057   12.3351   10.4282 O.2       1 RES1    0.0000
     45 O4         1.4228   11.6452    9.4781 O.3       1 RES1    0.0000
@<TRIPOS>BOND
     1    1    2 ar
     2    2    3 1
     3    4    2 ar
     4    5    4 1
     5    6    4 ar
     6    7    6 1
     7    8    6 ar
     8    9    8 1
     9   10    1 ar
    10   11   10 1
    11   12   13 1
    12   13   14 1
    13   15   13 1
    14   16   13 1
    15   17   16 1
    16   18   17 1
    17   19   17 1
    18   20   17 1
    19   21   22 ar
    20   22   23 1
    21   24   22 ar
    22   25   24 1
    23   26   24 ar
    24   27   26 ar
    25   28   27 1
    26   29   21 ar
    27   30   29 1
    28   31   26 1
    29   32   33 1
    30   34   32 1
    31   35   32 1
    32   36   35 1
    33   37   35 1
    34   38   35 1
    35   39    1 1
    36   40   12 1
    37   41   16 1
    38   42   41 1
    39   43   16 1
    40   44   31 2
    41   45   31 1
    42    8   10 ar
    43   12   39 2
    44   21   40 1
    45   27   29 ar
    46   32   45 1
    47   40   43 1
@<TRIPOS>SUBSTRUCTURE
     1 RES1 1

@<TRIPOS>CRYSIN
   8.6490   10.5680   10.9730  68.7290  83.1200  83.6990   2 1

