# MOL2 file generated by ConQuest
# Please check atom types

@<TRIPOS>MOLECULE
TAFFEL
    31    32     2
SMALL
NO_CHARGES
****
Generated from CSD

@<TRIPOS>ATOM
      1 O1         2.5486    4.2032    1.1624 Du        2 SUP2    0.0000
      2 O2         1.5944    3.2555   -0.4504 O.2       1 RES1    0.0000
      3 O3        -0.6182    4.8552   -2.4918 O.2       1 RES1    0.0000
      4 N1         1.5989    3.7908    0.6599 N.pl3     1 RES1    0.0000
      5 N2        -0.8613    3.7908   -1.9839 N.pl3     1 RES1    0.0000
      6 C1         0.2756    3.7908    1.4608 C.3       1 RES1    0.0000
      7 C2        -0.4774    5.0462    1.1363 C.ar      1 RES1    0.0000
      8 C3        -1.4147    5.0402    0.1064 C.ar      1 RES1    0.0000
      9 C4        -1.6887    3.7908   -0.6566 C.3       1 RES1    0.0000
     10 C5        -0.2527    6.2214    1.8569 C.ar      1 RES1    0.0000
     11 C6        -0.9497    7.3753    1.5324 C.ar      1 RES1    0.0000
     12 C7        -1.8553    7.3768    0.5264 C.ar      1 RES1    0.0000
     13 C8        -2.1095    6.2183   -0.1899 C.ar      1 RES1    0.0000
     14 H1         0.6779    3.7908    2.3442 H         1 RES1    0.0000
     15 H2        -2.6009    3.7908   -1.0419 H         1 RES1    0.0000
     16 H3         0.3684    6.1713    2.5722 H         1 RES1    0.0000
     17 H4        -0.8915    8.0819    1.9861 H         1 RES1    0.0000
     18 H5        -2.2693    8.0970    0.2279 H         1 RES1    0.0000
     19 H6        -2.7777    6.2926   -0.9008 H         1 RES1    0.0000
     20 O2B        1.5944    4.3260   -0.4504 O.2       1 RES1    0.0000
     21 C2B       -0.4774    2.5353    1.1363 C.ar      1 RES1    0.0000
     22 C3B       -1.4147    2.5413    0.1064 C.ar      1 RES1    0.0000
     23 O3B       -0.6182    2.7263   -2.4918 O.2       1 RES1    0.0000
     24 C5B       -0.2527    1.3601    1.8569 C.ar      1 RES1    0.0000
     25 C8B       -2.1095    1.3632   -0.1899 C.ar      1 RES1    0.0000
     26 C6B       -0.9497    0.2062    1.5324 C.ar      1 RES1    0.0000
     27 H3B        0.3684    1.4102    2.5722 H         1 RES1    0.0000
     28 C7B       -1.8553    0.2047    0.5264 C.ar      1 RES1    0.0000
     29 H6B       -2.7777    1.2889   -0.9008 H         1 RES1    0.0000
     30 H4B       -0.8915   -0.5004    1.9861 H         1 RES1    0.0000
     31 H5B       -2.2693   -0.5155    0.2279 H         1 RES1    0.0000
@<TRIPOS>BOND
     1    2    4 2
     2    3    5 2
     3    4    6 1
     4    5    9 1
     5    6    7 1
     6    7    8 ar
     7    8    9 1
     8    9   15 1
     9   10    7 ar
    10   11   10 ar
    11   12   11 ar
    12   13    8 ar
    13   14    6 1
    14   16   10 1
    15   17   11 1
    16   18   12 1
    17   19   13 1
    18   20    4 2
    19   21    6 1
    20   22    9 1
    21   23    5 2
    22   24   21 ar
    23   25   22 ar
    24   26   24 ar
    25   27   24 1
    26   28   25 ar
    27   29   25 1
    28   30   26 1
    29   31   28 1
    30   12   13 ar
    31   21   22 ar
    32   26   28 ar
@<TRIPOS>SUBSTRUCTURE
     1 RES1 2
     2 SUP2 1

@<TRIPOS>CRYSIN
   7.3680   15.1630   10.8530  90.0000  90.0000  90.0000  62 1

