# MOL2 file generated by ConQuest
# Please check atom types

@<TRIPOS>MOLECULE
TAFFIP
    30    32     1
SMALL
NO_CHARGES
****
Generated from CSD

@<TRIPOS>ATOM
      1 O1         3.3238   -1.6135    0.1297 O.2       1 RES1    0.0000
      2 O2         1.6426   -1.9854    1.4086 O.2       1 RES1    0.0000
      3 N1         2.2099   -1.3550    0.5441 N.pl3     1 RES1    0.0000
      4 C1         1.4719   -0.1694   -0.1064 C.3       1 RES1    0.0000
      5 C2         0.8510    0.6469    0.9887 C.ar      1 RES1    0.0000
      6 C3         0.5291   -0.7666   -1.1239 C.ar      1 RES1    0.0000
      7 C4         1.0587   -1.4785   -2.1993 C.ar      1 RES1    0.0000
      8 C5         0.2225   -2.0822   -3.1222 C.ar      1 RES1    0.0000
      9 C6        -1.1544   -1.9943   -2.9765 C.ar      1 RES1    0.0000
     10 C7         1.6884    1.2659    1.9263 C.ar      1 RES1    0.0000
     11 H1         2.2371    0.3184   -0.5349 H         1 RES1    0.0000
     12 H2         2.0408   -1.5155   -2.2995 H         1 RES1    0.0000
     13 H3         0.5826   -2.5597   -3.8920 H         1 RES1    0.0000
     14 H4        -1.7088   -2.4197   -3.5784 H         1 RES1    0.0000
     15 H5         2.6476    1.1971    1.8199 H         1 RES1    0.0000
     16 C3B       -0.5291    0.7666    1.1239 C.ar      1 RES1    0.0000
     17 C2B       -0.8510   -0.6469   -0.9887 C.ar      1 RES1    0.0000
     18 C7B       -1.6884   -1.2659   -1.9263 C.ar      1 RES1    0.0000
     19 C6B        1.1544    1.9943    2.9765 C.ar      1 RES1    0.0000
     20 C1B       -1.4719    0.1694    0.1064 C.3       1 RES1    0.0000
     21 C4B       -1.0587    1.4785    2.1993 C.ar      1 RES1    0.0000
     22 H5B       -2.6476   -1.1971   -1.8199 H         1 RES1    0.0000
     23 C5B       -0.2225    2.0822    3.1222 C.ar      1 RES1    0.0000
     24 H4B        1.7088    2.4197    3.5784 H         1 RES1    0.0000
     25 N1B       -2.2099    1.3550   -0.5441 N.pl3     1 RES1    0.0000
     26 H1B       -2.2371   -0.3184    0.5349 H         1 RES1    0.0000
     27 H2B       -2.0408    1.5155    2.2995 H         1 RES1    0.0000
     28 H3B       -0.5826    2.5597    3.8920 H         1 RES1    0.0000
     29 O1B       -3.3238    1.6135   -0.1297 O.2       1 RES1    0.0000
     30 O2B       -1.6426    1.9854   -1.4086 O.2       1 RES1    0.0000
@<TRIPOS>BOND
     1    1    3 2
     2    2    3 2
     3    3    4 1
     4    4    5 1
     5    5   10 ar
     6    6    4 1
     7    7    6 ar
     8    8    7 ar
     9    9    8 ar
    10   10   15 1
    11   11    4 1
    12   12    7 1
    13   13    8 1
    14   14    9 1
    15   16    5 ar
    16   17    6 ar
    17   18    9 ar
    18   19   10 ar
    19   20   16 1
    20   21   16 ar
    21   22   18 1
    22   23   19 ar
    23   24   19 1
    24   25   20 1
    25   26   20 1
    26   27   21 1
    27   28   23 1
    28   29   25 2
    29   30   25 2
    30   17   20 1
    31   17   18 ar
    32   21   23 ar
@<TRIPOS>SUBSTRUCTURE
     1 RES1 1

@<TRIPOS>CRYSIN
   7.7330   12.7350    6.3830  90.0000 105.5800  90.0000  14 1

