# MOL2 file generated by ConQuest
# Please check atom types

@<TRIPOS>MOLECULE
TAFKET
    56    57     1
SMALL
NO_CHARGES
****
Generated from CSD

@<TRIPOS>ATOM
      1 O1        -1.9838    0.8556    5.1711 O.2       1 RES1    0.0000
      2 O2         0.3379    1.1459   -0.6002 O.2       1 RES1    0.0000
      3 N1        -0.7208    1.1557    5.2025 N.pl3     1 RES1    0.0000
      4 N2        -0.5913    1.1700    0.3100 N.pl3     1 RES1    0.0000
      5 C1        -0.2109    1.7235    3.9733 C.ar      1 RES1    0.0000
      6 C2        -0.6131    1.1602    2.7723 C.ar      1 RES1    0.0000
      7 C3        -0.1883    1.7325    1.5757 C.ar      1 RES1    0.0000
      8 C4         0.6528    2.8425    1.5902 C.ar      1 RES1    0.0000
      9 C5         1.0585    3.4060    2.7968 C.ar      1 RES1    0.0000
     10 C6         0.6181    2.8390    3.9950 C.ar      1 RES1    0.0000
     11 C7         1.8981    4.6421    2.8422 C.ar      1 RES1    0.0000
     12 C8         3.1434    4.7225    2.2099 C.ar      1 RES1    0.0000
     13 C9         3.8614    5.9145    2.3350 C.ar      1 RES1    0.0000
     14 C10        3.3767    6.9791    3.0721 C.ar      1 RES1    0.0000
     15 C11        2.1415    6.9097    3.7064 C.ar      1 RES1    0.0000
     16 C12        1.4206    5.7301    3.5761 C.ar      1 RES1    0.0000
     17 C13        3.7542    3.5588    1.4810 C.3       1 RES1    0.0000
     18 C14        1.6176    8.0731    4.5115 C.3       1 RES1    0.0000
     19 C15        0.1673    0.2616    6.0413 C.3       1 RES1    0.0000
     20 C16        1.4613    0.9781    6.3809 C.3       1 RES1    0.0000
     21 C17        0.4597   -0.9912    5.2083 C.3       1 RES1    0.0000
     22 C18       -0.5753   -0.1117    7.3127 C.3       1 RES1    0.0000
     23 C19       -2.0060    1.4004   -0.1772 C.3       1 RES1    0.0000
     24 C20       -3.0164    0.9442    0.8721 C.3       1 RES1    0.0000
     25 C21       -2.1496    2.8975   -0.4595 C.3       1 RES1    0.0000
     26 C22       -2.2174    0.6036   -1.4531 C.3       1 RES1    0.0000
     27 H1        -1.1753    0.3641    2.7427 H         1 RES1    0.0000
     28 H2         0.9210    3.2458    0.7400 H         1 RES1    0.0000
     29 H3         0.8383    3.2126    4.8155 H         1 RES1    0.0000
     30 H4         4.7034    5.9688    1.8916 H         1 RES1    0.0000
     31 H5         3.9330    7.8011    3.1647 H         1 RES1    0.0000
     32 H6         0.5736    5.7088    4.0217 H         1 RES1    0.0000
     33 H7         4.7850    3.6840    1.3597 H         1 RES1    0.0000
     34 H8         3.6348    2.7185    1.9559 H         1 RES1    0.0000
     35 H9         3.4069    3.4582    0.5962 H         1 RES1    0.0000
     36 H10        1.0863    8.6772    3.9515 H         1 RES1    0.0000
     37 H11        1.1145    7.7713    5.2726 H         1 RES1    0.0000
     38 H12        2.3482    8.6437    4.7816 H         1 RES1    0.0000
     39 H13        1.9995    1.1925    5.5345 H         1 RES1    0.0000
     40 H14        1.2874    1.8224    6.8895 H         1 RES1    0.0000
     41 H15        2.0106    0.4087    6.9514 H         1 RES1    0.0000
     42 H16        0.9854   -0.7370    4.3958 H         1 RES1    0.0000
     43 H17       -0.4034   -1.4274    4.9312 H         1 RES1    0.0000
     44 H18        1.0672   -1.5813    5.7227 H         1 RES1    0.0000
     45 H19       -1.4317   -0.6180    7.0508 H         1 RES1    0.0000
     46 H20       -0.7050    0.7270    7.8563 H         1 RES1    0.0000
     47 H21       -0.0150   -0.7221    7.8540 H         1 RES1    0.0000
     48 H22       -3.9786    1.0831    0.4899 H         1 RES1    0.0000
     49 H23       -2.8392   -0.0862    1.1106 H         1 RES1    0.0000
     50 H24       -2.9109    1.4509    1.7338 H         1 RES1    0.0000
     51 H25       -3.0717    3.1230   -0.8020 H         1 RES1    0.0000
     52 H26       -2.0015    3.3887    0.3425 H         1 RES1    0.0000
     53 H27       -1.4334    3.1651   -1.1609 H         1 RES1    0.0000
     54 H28       -3.1636    0.8379   -1.7618 H         1 RES1    0.0000
     55 H29       -2.1106   -0.3782   -1.3024 H         1 RES1    0.0000
     56 H30       -1.5215    0.9612   -2.1792 H         1 RES1    0.0000
@<TRIPOS>BOND
     1    1    3 2
     2    2    4 2
     3    3    5 1
     4    4    7 1
     5    5    6 ar
     6    6    7 ar
     7    7    8 ar
     8    8    9 ar
     9    9   10 ar
    10   10    5 ar
    11   11    9 1
    12   12   11 ar
    13   13   12 ar
    14   14   13 ar
    15   15   14 ar
    16   16   11 ar
    17   17   12 1
    18   18   15 1
    19   19    3 1
    20   20   19 1
    21   21   19 1
    22   22   19 1
    23   23    4 1
    24   24   23 1
    25   25   23 1
    26   26   23 1
    27   27    6 1
    28   28    8 1
    29   29   10 1
    30   30   13 1
    31   31   14 1
    32   32   16 1
    33   33   17 1
    34   34   17 1
    35   35   17 1
    36   36   18 1
    37   37   18 1
    38   38   18 1
    39   39   20 1
    40   40   20 1
    41   41   20 1
    42   42   21 1
    43   43   21 1
    44   44   21 1
    45   45   22 1
    46   46   22 1
    47   47   22 1
    48   48   24 1
    49   49   24 1
    50   50   24 1
    51   51   25 1
    52   52   25 1
    53   53   25 1
    54   54   26 1
    55   55   26 1
    56   56   26 1
    57   15   16 ar
@<TRIPOS>SUBSTRUCTURE
     1 RES1 1

@<TRIPOS>CRYSIN
   9.1840    9.5946   12.8250 112.4700  91.9200 106.9500   2 1

