# MOL2 file generated by ConQuest
# Please check atom types

@<TRIPOS>MOLECULE
TAFKUG
    20    17     2
SMALL
NO_CHARGES
****
Generated from CSD

@<TRIPOS>ATOM
      1 C1         4.8275    0.7001    3.0095 C.2       1 RES1    0.0000
      2 C2         3.9439    0.5208    1.9019 C.2       1 RES1    0.0000
      3 C3         3.0213    1.8428    4.1642 C.3       1 RES1    0.0000
      4 C4         2.4927    2.1656    2.7997 C.3       1 RES1    0.0000
      5 N1         4.4315    1.4457    4.1068 N.3       1 RES1    0.0000
      6 N2         2.6993    1.0130    1.9316 N.3       1 RES1    0.0000
      7 N3         2.7510    1.1229    1.8149 Du        2 SUP2    0.0000
      8 N4         4.5276   -0.2376    1.0216 N.2       1 RES1    0.0000
      9 N5         5.9333    0.0663    2.8293 N.2       1 RES1    0.0000
     10 N6         5.3711    1.7111    5.0629 N.2       1 RES1    0.0000
     11 N7         5.1746    1.8853    5.0762 Du        2 SUP2    0.0000
     12 O1         5.7349   -0.6179    1.6358 O.3       1 RES1    0.0000
     13 O2         5.8210   -0.4515    1.5437 Du        2 SUP2    0.0000
     14 O3         4.9589    2.3755    5.9433 O.2       1 RES1    0.0000
     15 O4         6.2831    1.4922    5.1295 Du        2 SUP2    0.0000
     16 H1         2.4658    1.0526    4.5552 H         1 RES1    0.0000
     17 H2         2.9689    2.7003    4.6637 H         1 RES1    0.0000
     18 H3         1.5656    2.2834    2.8386 H         1 RES1    0.0000
     19 H4         2.9869    3.0300    2.4670 H         1 RES1    0.0000
     20 H5         2.2534    0.9803    1.2018 H         1 RES1    0.0000
@<TRIPOS>BOND
     1    1    2 1
     2    2    6 1
     3    3    4 1
     4    4    6 1
     5    5    1 1
     6    6   20 1
     7    8    2 2
     8    9    1 2
     9   10    5 1
    10   12    8 1
    11   14   10 2
    12   16    3 1
    13   17    3 1
    14   18    4 1
    15   19    4 1
    16    3    5 1
    17    9   12 1
@<TRIPOS>SUBSTRUCTURE
     1 RES1 1
     2 SUP2 7

@<TRIPOS>CRYSIN
   6.2780    9.9020   10.6500  90.0000 106.0200  90.0000  14 1

