# MOL2 file generated by ConQuest
# Please check atom types

@<TRIPOS>MOLECULE
TAFKIU
    17    18     1
SMALL
NO_CHARGES
****
Generated from CSD

@<TRIPOS>ATOM
      1 C1         0.3494    4.8049   11.5697 C.2       1 RES1    0.0000
      2 C2        -0.5991    3.9914   12.2398 C.2       1 RES1    0.0000
      3 C3         1.7001    4.8116   13.5801 C.3       1 RES1    0.0000
      4 C4         0.4404    4.5439   14.3496 C.3       1 RES1    0.0000
      5 N1         1.4578    5.2917   12.2373 N.3       1 RES1    0.0000
      6 N2        -0.4970    3.7247   13.5713 N.pl3     1 RES1    0.0000
      7 N3        -1.5082    3.6170   11.3911 N.2       1 RES1    0.0000
      8 N4         0.0455    4.9107   10.3136 N.2       1 RES1    0.0000
      9 N5         2.2586    6.1271   11.5596 N.2       1 RES1    0.0000
     10 N6        -1.2388    2.6892   14.0579 N.2       1 RES1    0.0000
     11 O1        -1.1183    4.1733   10.1841 O.3       1 RES1    0.0000
     12 O2         3.2588    6.4462   12.1858 O.2       1 RES1    0.0000
     13 O3        -1.0850    2.4949   15.2360 O.2       1 RES1    0.0000
     14 H1         2.2125    4.0019   13.5285 H         1 RES1    0.0000
     15 H2         2.2027    5.4784   14.0541 H         1 RES1    0.0000
     16 H3         0.0197    5.3774   14.5734 H         1 RES1    0.0000
     17 H4         0.6643    4.0724   15.1542 H         1 RES1    0.0000
@<TRIPOS>BOND
     1    1    2 1
     2    2    6 1
     3    3    4 1
     4    4    6 1
     5    5    1 1
     6    6   10 1
     7    7    2 2
     8    8    1 2
     9    9    5 1
    10   10   13 2
    11   11    7 1
    12   12    9 2
    13   14    3 1
    14   15    3 1
    15   16    4 1
    16   17    4 1
    17    3    5 1
    18    8   11 1
@<TRIPOS>SUBSTRUCTURE
     1 RES1 1

@<TRIPOS>CRYSIN
   6.1510    9.5260   12.5730  90.0000  90.0000  90.0000  19 1

