# MOL2 file generated by ConQuest
# Please check atom types

@<TRIPOS>MOLECULE
TAFKAM
    15    16     1
SMALL
NO_CHARGES
****
Generated from CSD

@<TRIPOS>ATOM
      1 C1        -0.1383    5.9178    9.7710 C.2       1 RES1    0.0000
      2 C2         1.0200    5.6307   10.5800 C.2       1 RES1    0.0000
      3 C3         1.2793    6.0272    7.8557 C.3       1 RES1    0.0000
      4 C4         2.3912    6.4116    8.8035 C.3       1 RES1    0.0000
      5 N1        -0.0235    6.3064    8.4726 N.3       1 RES1    0.0000
      6 N2         2.2682    5.6627   10.0523 N.3       1 RES1    0.0000
      7 N3         0.6381    5.3138   11.7847 N.2       1 RES1    0.0000
      8 N4        -1.2133    5.7884   10.4874 N.2       1 RES1    0.0000
      9 O1        -0.7625    5.4034   11.7616 O.3       1 RES1    0.0000
     10 H1         1.3862    5.0701    7.6312 H         1 RES1    0.0000
     11 H2         1.3373    6.5785    7.0005 H         1 RES1    0.0000
     12 H3         2.3493    7.3942    8.9980 H         1 RES1    0.0000
     13 H4         3.2494    6.2169    8.4378 H         1 RES1    0.0000
     14 H5        -0.7612    6.1870    7.9691 H         1 RES1    0.0000
     15 H6         2.9294    5.6627   10.6656 H         1 RES1    0.0000
@<TRIPOS>BOND
     1    1    2 1
     2    2    6 1
     3    3    4 1
     4    4    6 1
     5    5    1 1
     6    6   15 1
     7    7    2 2
     8    8    1 2
     9    9    7 1
    10   10    3 1
    11   11    3 1
    12   12    4 1
    13   13    4 1
    14   14    5 1
    15    3    5 1
    16    8    9 1
@<TRIPOS>SUBSTRUCTURE
     1 RES1 1

@<TRIPOS>CRYSIN
   6.5840    7.1050   11.7840  90.0000 100.8600  90.0000 231 1

