# MOL2 file generated by ConQuest
# Please check atom types

@<TRIPOS>MOLECULE
TAFLOD
    26    28     1
SMALL
NO_CHARGES
****
Generated from CSD

@<TRIPOS>ATOM
      1 O1         7.9933    3.8760    8.5422 O.2       1 RES1    0.0000
      2 O2         8.5412    3.9863   10.6311 O.2       1 RES1    0.0000
      3 N1         2.5319    4.7432    6.2654 N.2       1 RES1    0.0000
      4 N2         3.5404    4.6870    7.0726 N.2       1 RES1    0.0000
      5 N3         3.0857    4.4374    8.3459 N.pl3     1 RES1    0.0000
      6 N4         7.7128    3.9982    9.7287 N.pl3     1 RES1    0.0000
      7 C1         1.3740    4.5419    6.9932 C.ar      1 RES1    0.0000
      8 C2         0.0408    4.5272    6.5640 C.ar      1 RES1    0.0000
      9 H1        -0.1906    4.6715    5.6545 H         1 RES1    0.0000
     10 C3        -0.9180    4.2930    7.5251 C.ar      1 RES1    0.0000
     11 H2        -1.8346    4.2781    7.2743 H         1 RES1    0.0000
     12 C4        -0.5671    4.0747    8.8753 C.ar      1 RES1    0.0000
     13 H3        -1.2579    3.9107    9.5069 H         1 RES1    0.0000
     14 C5         0.7395    4.0909    9.3116 C.ar      1 RES1    0.0000
     15 H4         0.9664    3.9407   10.2219 H         1 RES1    0.0000
     16 C6         1.7155    4.3420    8.3349 C.ar      1 RES1    0.0000
     17 C7         4.0367    4.3973    9.3994 C.ar      1 RES1    0.0000
     18 C8         5.3611    4.1009    9.0780 C.ar      1 RES1    0.0000
     19 H5         5.6085    3.8464    8.1972 H         1 RES1    0.0000
     20 C9         6.3002    4.1906   10.0887 C.ar      1 RES1    0.0000
     21 C10        5.9823    4.4897   11.4047 C.ar      1 RES1    0.0000
     22 H6         6.6501    4.5199   12.0800 H         1 RES1    0.0000
     23 C11        4.6459    4.7433   11.6963 C.ar      1 RES1    0.0000
     24 H7         4.3940    4.9341   12.5919 H         1 RES1    0.0000
     25 C12        3.6736    4.7231   10.7069 C.ar      1 RES1    0.0000
     26 H8         2.7697    4.9285   10.9175 H         1 RES1    0.0000
@<TRIPOS>BOND
     1    1    6 2
     2    2    6 2
     3    3    4 2
     4    4    5 1
     5    5   16 1
     6    6   20 1
     7    7    3 1
     8    8    7 ar
     9    9    8 1
    10   10    8 ar
    11   11   10 1
    12   12   10 ar
    13   13   12 1
    14   14   12 ar
    15   15   14 1
    16   16    7 ar
    17   17    5 1
    18   18   17 ar
    19   19   18 1
    20   20   18 ar
    21   21   20 ar
    22   22   21 1
    23   23   21 ar
    24   24   23 1
    25   25   17 ar
    26   26   25 1
    27   14   16 ar
    28   23   25 ar
@<TRIPOS>SUBSTRUCTURE
     1 RES1 1

@<TRIPOS>CRYSIN
  12.1674    6.9859   12.7296  90.0000 107.2010  90.0000  14 1

