# MOL2 file generated by ConQuest
# Please check atom types

@<TRIPOS>MOLECULE
TAFMEV
    56    58     2
SMALL
NO_CHARGES
****
Generated from CSD

@<TRIPOS>ATOM
      1 O1        12.2091    5.2119    3.6616 O.3       1 RES1    0.0000
      2 N1         8.0661    4.8345    8.8156 N.ar      1 RES1    0.0000
      3 O2        14.3829    5.1162    7.8690 O.2       1 RES1    0.0000
      4 N2        10.4129    4.7060    8.9244 N.pl3     1 RES1    0.0000
      5 H1        11.0824    4.5971    9.4850 H         1 RES1    0.0000
      6 N3        13.2339    4.9670    8.2358 N.pl3     1 RES1    0.0000
      7 O3        12.9807    4.8222    9.4288 O.2       1 RES1    0.0000
      8 N4         9.2662    4.5641   10.8611 N.ar      1 RES1    0.0000
      9 C1        12.1739    4.9703    7.2569 C.ar      1 RES1    0.0000
     10 C2         9.1728    4.7066    9.5331 C.ar      1 RES1    0.0000
     11 C3        10.8058    4.8438    7.6056 C.ar      1 RES1    0.0000
     12 C4        12.5849    5.0947    5.9435 C.ar      1 RES1    0.0000
     13 H2        13.5102    5.1743    5.7465 H         1 RES1    0.0000
     14 C5        11.6782    5.1049    4.9278 C.ar      1 RES1    0.0000
     15 C6         9.9201    4.8602    6.5351 C.ar      1 RES1    0.0000
     16 H3         8.9906    4.7764    6.7102 H         1 RES1    0.0000
     17 C7        10.3374    4.9911    5.2285 C.ar      1 RES1    0.0000
     18 H4         9.6952    5.0042    4.5278 H         1 RES1    0.0000
     19 C8         6.9267    4.8706    9.5367 C.ar      1 RES1    0.0000
     20 H5         6.1015    4.9701    9.0766 H         1 RES1    0.0000
     21 C9         8.1143    4.6062   11.5116 C.ar      1 RES1    0.0000
     22 H6         8.1310    4.5159   12.4567 H         1 RES1    0.0000
     23 C10        6.9046    4.7712   10.9029 C.ar      1 RES1    0.0000
     24 H7         6.0940    4.8157   11.3978 H         1 RES1    0.0000
     25 C11       11.3198    5.2188    2.5711 C.3       1 RES1    0.0000
     26 H8        10.8050    4.3850    2.5650 H         1 RES1    0.0000
     27 H9        11.8272    5.2947    1.7369 H         1 RES1    0.0000
     28 H10       10.7083    5.9793    2.6521 H         1 RES1    0.0000
     29 O4         6.9655    5.2114    4.4059 O.3       2 RES2    0.0000
     30 N5         5.1913    4.7014   -0.8565 N.pl3     2 RES2    0.0000
     31 H11        5.8618    4.5892   -1.4156 H         2 RES2    0.0000
     32 N6         2.8403    4.8335   -0.7456 N.ar      2 RES2    0.0000
     33 O5         9.1589    5.1201    0.2034 O.2       2 RES2    0.0000
     34 N7         8.0169    4.9696   -0.1729 N.pl3     2 RES2    0.0000
     35 N8         4.0572    4.5636   -2.7900 N.ar      2 RES2    0.0000
     36 O6         7.7599    4.8183   -1.3548 O.2       2 RES2    0.0000
     37 C12        6.9408    4.9714    0.8198 C.ar      2 RES2    0.0000
     38 C13        3.9608    4.7031   -1.4599 C.ar      2 RES2    0.0000
     39 C14        5.5816    4.8420    0.4646 C.ar      2 RES2    0.0000
     40 C15        7.3488    5.0938    2.1199 C.ar      2 RES2    0.0000
     41 H12        8.2753    5.1743    2.3115 H         2 RES2    0.0000
     42 C16        6.4404    5.1023    3.1587 C.ar      2 RES2    0.0000
     43 C17        5.0947    4.9871    2.8395 C.ar      2 RES2    0.0000
     44 H13        4.4472    4.9989    3.5351 H         2 RES2    0.0000
     45 C18        4.6836    4.8536    1.5385 C.ar      2 RES2    0.0000
     46 H14        3.7539    4.7672    1.3592 H         2 RES2    0.0000
     47 C19        2.9095    4.6088   -3.4428 C.ar      2 RES2    0.0000
     48 H15        2.9295    4.5251   -4.3890 H         2 RES2    0.0000
     49 C20        1.6886    4.7699   -2.8329 C.ar      2 RES2    0.0000
     50 H16        0.8802    4.8104   -3.3301 H         2 RES2    0.0000
     51 C21        1.7053    4.8667   -1.4657 C.ar      2 RES2    0.0000
     52 H17        0.8790    4.9636   -1.0073 H         2 RES2    0.0000
     53 C22        6.0658    5.2241    5.5033 C.3       2 RES2    0.0000
     54 H18        5.4610    5.9898    5.4205 H         2 RES2    0.0000
     55 H19        6.5714    5.2947    6.3389 H         2 RES2    0.0000
     56 H20        5.5436    4.3942    5.5076 H         2 RES2    0.0000
@<TRIPOS>BOND
     1    1   14 1
     2    2   10 ar
     3    3    6 2
     4    4    5 1
     5    6    7 2
     6    8   10 ar
     7    9    6 1
     8   10    4 1
     9   11    4 1
    10   12    9 ar
    11   13   12 1
    12   14   12 ar
    13   15   11 ar
    14   16   15 1
    15   17   14 ar
    16   18   17 1
    17   19    2 ar
    18   20   19 1
    19   21    8 ar
    20   22   21 1
    21   23   19 ar
    22   24   23 1
    23   25    1 1
    24   26   25 1
    25   27   25 1
    26   28   25 1
    27   29   42 1
    28   30   31 1
    29   32   38 ar
    30   33   34 2
    31   34   36 2
    32   35   38 ar
    33   37   34 1
    34   38   30 1
    35   39   30 1
    36   40   37 ar
    37   41   40 1
    38   42   40 ar
    39   43   42 ar
    40   44   43 1
    41   45   39 ar
    42   46   45 1
    43   47   35 ar
    44   48   47 1
    45   49   47 ar
    46   50   49 1
    47   51   32 ar
    48   52   51 1
    49   53   29 1
    50   54   53 1
    51   55   53 1
    52   56   53 1
    53    9   11 ar
    54   15   17 ar
    55   21   23 ar
    56   37   39 ar
    57   43   45 ar
    58   49   51 ar
@<TRIPOS>SUBSTRUCTURE
     1 RES1 1
     2 RES2 29

@<TRIPOS>CRYSIN
  10.4859   13.0896   16.1420  90.0000  90.1340  90.0000  14 1

