# MOL2 file generated by ConQuest
# Please check atom types

@<TRIPOS>MOLECULE
TAFMIY
    36    37     1
SMALL
NO_CHARGES
****
Generated from CSD

@<TRIPOS>ATOM
      1 O1         2.4929    0.1289    0.0131 O.3       1 RES1    0.0000
      2 O2         5.7166    1.7752    2.7494 O.3       1 RES1    0.0000
      3 O3         4.0077    0.1133    1.7679 O.3       1 RES1    0.0000
      4 C1         3.5279    0.9379    2.7534 C.ar      1 RES1    0.0000
      5 C2         2.2316    0.9073    3.2445 C.ar      1 RES1    0.0000
      6 C3         4.4702    1.8253    3.3014 C.ar      1 RES1    0.0000
      7 C4         3.0793   -0.6744    1.0162 C.3       1 RES1    0.0000
      8 C5         1.8972    1.7449    4.3073 C.ar      1 RES1    0.0000
      9 H1         1.0359    1.7185    4.6576 H         1 RES1    0.0000
     10 C6         4.1059    2.6552    4.3366 C.ar      1 RES1    0.0000
     11 H2         4.7244    3.2486    4.6971 H         1 RES1    0.0000
     12 C7         1.2212   -0.0270    2.6250 C.3       1 RES1    0.0000
     13 H3         0.6989   -0.4284    3.3503 H         1 RES1    0.0000
     14 C8         2.8176    2.6060    4.8429 C.ar      1 RES1    0.0000
     15 H4         2.5769    3.1598    5.5495 H         1 RES1    0.0000
     16 N1        -0.6845    1.6201    2.4306 N.pl3     1 RES1    0.0000
     17 C9         3.3721    0.6834   -0.9547 C.3       1 RES1    0.0000
     18 H5         3.7352   -0.0204   -1.4971 H         1 RES1    0.0000
     19 H6         4.0868    1.1461   -0.5103 H         1 RES1    0.0000
     20 H7         2.8891    1.2997   -1.5110 H         1 RES1    0.0000
     21 C10        6.6612    2.7254    3.2285 C.3       1 RES1    0.0000
     22 H8         6.7834    2.6078    4.1730 H         1 RES1    0.0000
     23 H9         6.3376    3.6128    3.0556 H         1 RES1    0.0000
     24 H10        7.5001    2.5976    2.7787 H         1 RES1    0.0000
     25 C11        1.9378   -1.1521    1.8872 C.3       1 RES1    0.0000
     26 H11        2.2833   -1.7833    2.5374 H         1 RES1    0.0000
     27 H12        1.2958   -1.6213    1.3330 H         1 RES1    0.0000
     28 C12        0.2508    0.7140    1.7016 C.3       1 RES1    0.0000
     29 H13        0.7611    1.2373    1.0640 H         1 RES1    0.0000
     30 H14       -0.2674    0.0630    1.2025 H         1 RES1    0.0000
     31 C13        3.8950   -1.8109    0.4430 C.3       1 RES1    0.0000
     32 H15        4.6224   -1.4545   -0.0712 H         1 RES1    0.0000
     33 H16        3.3378   -2.3516   -0.1226 H         1 RES1    0.0000
     34 H17        4.2424   -2.3480    1.1590 H         1 RES1    0.0000
     35 O4        -1.2562    1.1965    3.4154 O.2       1 RES1    0.0000
     36 O5        -0.8583    2.7272    1.9744 O.2       1 RES1    0.0000
@<TRIPOS>BOND
     1    1    7 1
     2    2    6 1
     3    3    4 1
     4    4    5 ar
     5    5    8 ar
     6    6    4 ar
     7    7    3 1
     8    8    9 1
     9   10    6 ar
    10   11   10 1
    11   12    5 1
    12   13   12 1
    13   14    8 ar
    14   15   14 1
    15   16   28 1
    16   17    1 1
    17   18   17 1
    18   19   17 1
    19   20   17 1
    20   21    2 1
    21   22   21 1
    22   23   21 1
    23   24   21 1
    24   25    7 1
    25   26   25 1
    26   27   25 1
    27   28   12 1
    28   29   28 1
    29   30   28 1
    30   31    7 1
    31   32   31 1
    32   33   31 1
    33   34   31 1
    34   35   16 2
    35   36   16 2
    36   10   14 ar
    37   12   25 1
@<TRIPOS>SUBSTRUCTURE
     1 RES1 1

@<TRIPOS>CRYSIN
  11.2657    6.0004   19.8420  90.0000  94.6260  90.0000  14 1

