# MOL2 file generated by ConQuest
# Please check atom types

@<TRIPOS>MOLECULE
TAFMUK
    38    40     1
SMALL
NO_CHARGES
****
Generated from CSD

@<TRIPOS>ATOM
      1 O1         8.2620   -0.1522    6.3037 O.3       1 RES1    0.0000
      2 O2         8.8784   -0.0020    8.5244 O.3       1 RES1    0.0000
      3 C1         7.1981   -1.0168    6.3974 C.ar      1 RES1    0.0000
      4 C2         6.0866   -0.7966    7.1851 C.ar      1 RES1    0.0000
      5 C3         7.1526    1.4071    7.7699 C.3       1 RES1    0.0000
      6 H1         6.8630    1.9645    7.0309 H         1 RES1    0.0000
      7 H2         7.2960    1.9843    8.5364 H         1 RES1    0.0000
      8 C4         5.0160   -1.7416    7.1340 C.ar      1 RES1    0.0000
      9 C5         5.1579   -2.9414    6.3801 C.ar      1 RES1    0.0000
     10 C6         7.3208   -2.1834    5.6154 C.ar      1 RES1    0.0000
     11 H3         8.0764   -2.3088    5.0870 H         1 RES1    0.0000
     12 N1         5.7175    0.9549   10.5476 N.pl3     1 RES1    0.0000
     13 C7         6.0381    0.4102    8.1036 C.3       1 RES1    0.0000
     14 H4         5.1766    0.8591    7.9764 H         1 RES1    0.0000
     15 C8         8.4654    0.7500    7.4005 C.3       1 RES1    0.0000
     16 O3         6.1230    0.7976   11.6870 O.2       1 RES1    0.0000
     17 C9         3.7746   -1.5502    7.8185 C.ar      1 RES1    0.0000
     18 H5         3.6342   -0.7680    8.3012 H         1 RES1    0.0000
     19 C10       10.0612   -0.7824    8.3545 C.3       1 RES1    0.0000
     20 H6        10.1079   -1.4462    9.0459 H         1 RES1    0.0000
     21 H7        10.8313   -0.2113    8.4056 H         1 RES1    0.0000
     22 H8        10.0400   -1.2139    7.4968 H         1 RES1    0.0000
     23 C11        4.1164   -3.8988    6.3787 C.ar      1 RES1    0.0000
     24 H9         4.2232   -4.6876    5.8971 H         1 RES1    0.0000
     25 C12        6.3453   -3.1230    5.6288 C.ar      1 RES1    0.0000
     26 H10        6.4572   -3.9033    5.1352 H         1 RES1    0.0000
     27 C13        2.7912   -2.4993    7.7738 C.ar      1 RES1    0.0000
     28 H11        1.9919   -2.3473    8.2243 H         1 RES1    0.0000
     29 C14        6.1100   -0.0878    9.5480 C.3       1 RES1    0.0000
     30 H12        5.5253   -0.8556    9.6461 H         1 RES1    0.0000
     31 H13        7.0156   -0.3794    9.7356 H         1 RES1    0.0000
     32 C15        9.5148    1.7341    6.9352 C.3       1 RES1    0.0000
     33 H14       10.2747    1.2548    6.5971 H         1 RES1    0.0000
     34 H15        9.7866    2.2855    7.6735 H         1 RES1    0.0000
     35 H16        9.1501    2.2866    6.2402 H         1 RES1    0.0000
     36 O4         4.9897    1.8637   10.2095 O.2       1 RES1    0.0000
     37 C16        2.9605   -3.6912    7.0677 C.ar      1 RES1    0.0000
     38 H17        2.2914   -4.3363    7.0676 H         1 RES1    0.0000
@<TRIPOS>BOND
     1    1    3 1
     2    2   15 1
     3    3    4 ar
     4    4    8 ar
     5    5    6 1
     6    7    5 1
     7    8    9 ar
     8    9   23 ar
     9   10    3 ar
    10   11   10 1
    11   12   16 2
    12   13    4 1
    13   14   13 1
    14   15    1 1
    15   17    8 ar
    16   18   17 1
    17   19    2 1
    18   20   19 1
    19   21   19 1
    20   22   19 1
    21   23   24 1
    22   25    9 ar
    23   26   25 1
    24   27   17 ar
    25   28   27 1
    26   29   12 1
    27   30   29 1
    28   31   29 1
    29   32   15 1
    30   33   32 1
    31   34   32 1
    32   35   32 1
    33   36   12 2
    34   37   23 ar
    35   38   37 1
    36    5   13 1
    37    5   15 1
    38   10   25 ar
    39   13   29 1
    40   27   37 ar
@<TRIPOS>SUBSTRUCTURE
     1 RES1 1

@<TRIPOS>CRYSIN
  10.7266   11.6724   11.4931  90.0000  93.1950  90.0000 231 1

