# MOL2 file generated by ConQuest
# Please check atom types

@<TRIPOS>MOLECULE
TAFSAU
    27    30     1
SMALL
NO_CHARGES
****
Generated from CSD

@<TRIPOS>ATOM
      1 O1        -2.1965    3.7636    4.8655 O.3       1 RES1    0.0000
      2 O2         1.0455    2.9043    4.5128 O.2       1 RES1    0.0000
      3 O3         4.0326    3.5696    4.8655 O.3       1 RES1    0.0000
      4 O4         4.0098    1.3764    4.4800 O.2       1 RES1    0.0000
      5 N1        -1.5868    3.9431    6.0909 N.pl3     1 RES1    0.0000
      6 C1        -1.8206    4.0901    9.6488 C.ar      1 RES1    0.0000
      7 C2        -1.3543    3.9701    8.3308 C.ar      1 RES1    0.0000
      8 C3        -3.1566    4.3346    9.8476 C.ar      1 RES1    0.0000
      9 C4        -4.0442    4.4580    8.7761 C.ar      1 RES1    0.0000
     10 C5        -3.6251    4.3526    7.4686 C.ar      1 RES1    0.0000
     11 C6        -2.2790    4.1170    7.2654 C.ar      1 RES1    0.0000
     12 C7        -0.2773    3.6470    6.3867 C.2       1 RES1    0.0000
     13 C8        -0.0939    3.6829    7.7241 C.2       1 RES1    0.0000
     14 C9         0.9139    3.2409    5.6739 C.2       1 RES1    0.0000
     15 C10        2.0160    3.2902    6.7304 C.3       1 RES1    0.0000
     16 C11        3.0909    2.2223    6.5451 C.3       1 RES1    0.0000
     17 C12        2.5265    0.8380    6.8201 C.3       1 RES1    0.0000
     18 C13        1.7658    0.7819    8.1127 C.2       1 RES1    0.0000
     19 C14        1.3008    3.2487    8.1007 C.3       1 RES1    0.0000
     20 C15        1.2706    1.8588    8.6880 C.2       1 RES1    0.0000
     21 C16       -1.8522    4.8226    3.9704 C.3       1 RES1    0.0000
     22 C17        1.5919   -0.6002    8.6865 C.3       1 RES1    0.0000
     23 C18        3.7400    2.3075    5.1838 C.2       1 RES1    0.0000
     24 C19        4.5586    3.7973    3.5475 C.3       1 RES1    0.0000
     25 H1         2.4612    4.1507    6.6198 H         1 RES1    0.0000
     26 H2         3.7798    2.4007    7.2026 H         1 RES1    0.0000
     27 H3         1.6883    3.9039    8.7119 H         1 RES1    0.0000
@<TRIPOS>BOND
     1    1    5 1
     2    2   14 2
     3    3   23 1
     4    4   23 2
     5    5   11 1
     6    6    7 ar
     7    7   11 ar
     8    8    6 ar
     9    9    8 ar
    10   10    9 ar
    11   11   10 ar
    12   12    5 1
    13   13    7 1
    14   14   12 1
    15   15   14 1
    16   16   15 1
    17   17   16 1
    18   18   17 1
    19   19   13 1
    20   20   18 2
    21   21    1 1
    22   22   18 1
    23   23   16 1
    24   24    3 1
    25   25   15 1
    26   26   16 1
    27   27   19 1
    28   12   13 2
    29   15   19 1
    30   19   20 1
@<TRIPOS>SUBSTRUCTURE
     1 RES1 1

@<TRIPOS>CRYSIN
   9.9460   11.2180   14.9560  90.0000  92.3700  90.0000  14 1

