# MOL2 file generated by ConQuest
# Please check atom types

@<TRIPOS>MOLECULE
TAFSAX
    44    44     2
SMALL
NO_CHARGES
****
Generated from CSD

@<TRIPOS>ATOM
      1 C1         0.9172    1.1154    5.9771 C.3       1 RES1    0.0000
      2 H1         0.7537    1.6118    5.1475 H         1 RES1    0.0000
      3 H2         0.7214    0.1661    5.8332 H         1 RES1    0.0000
      4 H3         1.8554    1.2196    6.2397 H         1 RES1    0.0000
      5 O1         0.0723    1.6257    7.0129 O.3       1 RES1    0.0000
      6 C2         0.0864    2.9617    7.2290 C.ar      1 RES1    0.0000
      7 C3         0.7841    3.8945    6.5056 C.ar      1 RES1    0.0000
      8 H4         1.3363    3.6143    5.7853 H         1 RES1    0.0000
      9 C4         0.6915    5.2597    6.8185 C.ar      1 RES1    0.0000
     10 C5         1.4972    6.2421    6.0624 C.2       1 RES1    0.0000
     11 O2         1.3677    7.4641    6.5102 O.3       1 RES1    0.0000
     12 H5         1.8599    7.9791    6.0645 H         1 RES1    0.0000
     13 O3         2.2258    5.9359    5.1301 O.2       1 RES1    0.0000
     14 C6        -0.1056    5.6748    7.8499 C.ar      1 RES1    0.0000
     15 H6        -0.1824    6.5996    8.0558 H         1 RES1    0.0000
     16 C7        -0.8012    4.7310    8.5922 C.ar      1 RES1    0.0000
     17 N1        -1.5935    5.2060    9.6984 N.pl3     1 RES1    0.0000
     18 O4        -2.1429    4.3688   10.4370 O.2       1 RES1    0.0000
     19 O5        -1.6983    6.3992    9.8952 O.2       1 RES1    0.0000
     20 C8        -0.7197    3.3693    8.3231 C.ar      1 RES1    0.0000
     21 O6        -1.3347    2.4025    9.0047 O.3       1 RES1    0.0000
     22 H7        -1.7417    2.7361    9.6599 H         1 RES1    0.0000
     23 C9         2.9547    1.3597    9.2336 C.3       2 RES2    0.0000
     24 H8         2.5704    1.7579    8.4254 H         2 RES2    0.0000
     25 H9         2.9617    0.3830    9.1453 H         2 RES2    0.0000
     26 H10        3.8724    1.6826    9.3520 H         2 RES2    0.0000
     27 O7         2.1716    1.7287   10.3638 O.3       2 RES2    0.0000
     28 C10        1.9861    3.0502   10.5397 C.ar      2 RES2    0.0000
     29 C11        2.5488    4.0440    9.7854 C.ar      2 RES2    0.0000
     30 H11        3.1074    3.8142    9.0522 H         2 RES2    0.0000
     31 C12        2.3158    5.3964   10.0761 C.ar      2 RES2    0.0000
     32 C13        3.0175    6.4276    9.2889 C.2       2 RES2    0.0000
     33 O8         2.8470    7.6329    9.7500 O.3       2 RES2    0.0000
     34 H12        3.2934    8.1745    9.2890 H         2 RES2    0.0000
     35 O9         3.7101    6.1525    8.3159 O.2       2 RES2    0.0000
     36 C14        1.4888    5.7387   11.1130 C.ar      2 RES2    0.0000
     37 H13        1.3209    6.6519   11.3132 H         2 RES2    0.0000
     38 C15        0.8990    4.7313   11.8674 C.ar      2 RES2    0.0000
     39 N2         0.0415    5.1305   12.9568 N.pl3     2 RES2    0.0000
     40 O10       -0.4544    4.2466   13.6765 O.2       2 RES2    0.0000
     41 O11       -0.1744    6.3106   13.1472 O.2       2 RES2    0.0000
     42 C16        1.1305    3.3821   11.6223 C.ar      2 RES2    0.0000
     43 O12        0.6296    2.3642   12.3152 O.3       2 RES2    0.0000
     44 H14        0.1426    2.6592   12.9323 H         2 RES2    0.0000
@<TRIPOS>BOND
     1    1    2 1
     2    3    1 1
     3    4    1 1
     4    5    1 1
     5    6    5 1
     6    7    6 ar
     7    8    7 1
     8    9    7 ar
     9   10    9 1
    10   11   10 1
    11   12   11 1
    12   13   10 2
    13   14    9 ar
    14   15   14 1
    15   16   14 ar
    16   17   16 1
    17   18   17 2
    18   19   17 2
    19   20    6 ar
    20   21   20 1
    21   22   21 1
    22   23   24 1
    23   25   23 1
    24   26   23 1
    25   27   23 1
    26   28   27 1
    27   29   28 ar
    28   30   29 1
    29   31   29 ar
    30   32   31 1
    31   33   32 1
    32   34   33 1
    33   35   32 2
    34   36   31 ar
    35   37   36 1
    36   38   36 ar
    37   39   38 1
    38   40   39 2
    39   41   39 2
    40   42   28 ar
    41   43   42 1
    42   44   43 1
    43   16   20 ar
    44   38   42 ar
@<TRIPOS>SUBSTRUCTURE
     1 RES1 1
     2 RES2 23

@<TRIPOS>CRYSIN
   7.9000   15.3800   13.7400  90.0000  95.0600  90.0000 231 1

