# MOL2 file generated by ConQuest
# Please check atom types

@<TRIPOS>MOLECULE
TAGBOV
    47    49     1
SMALL
NO_CHARGES
****
Generated from CSD

@<TRIPOS>ATOM
      1 C1        17.4977   17.1332    4.6917 C.ar      1 RES1    0.0000
      2 H1        18.2271   17.1332    5.2997 H         1 RES1    0.0000
      3 C2        16.9618   15.9350    4.2457 C.ar      1 RES1    0.0000
      4 H2        17.3302   15.1114    4.5437 H         1 RES1    0.0000
      5 C3        15.8873   15.9334    3.3643 C.ar      1 RES1    0.0000
      6 H3        15.5315   15.1069    3.0578 H         1 RES1    0.0000
      7 C4        15.3265   17.1332    2.9253 C.ar      1 RES1    0.0000
      8 C5        14.1289   17.1332    1.9844 C.3       1 RES1    0.0000
      9 H4        14.4609   17.1332    1.0404 H         1 RES1    0.0000
     10 C6        12.7234   15.2777    1.1899 C.2       1 RES1    0.0000
     11 C7        11.8667   14.0978    1.5809 C.ar      1 RES1    0.0000
     12 C8        12.1723   13.2928    2.6723 C.ar      1 RES1    0.0000
     13 H5        12.8922   13.5238    3.2473 H         1 RES1    0.0000
     14 C9        11.4236   12.1479    2.9223 C.ar      1 RES1    0.0000
     15 H6        11.6263   11.5866    3.6613 H         1 RES1    0.0000
     16 C10       10.3786   11.8461    2.0724 C.ar      1 RES1    0.0000
     17 C11       10.0243   12.6445    1.0044 C.ar      1 RES1    0.0000
     18 H7         9.2848   12.4227    0.4520 H         1 RES1    0.0000
     19 C12       10.7825   13.7810    0.7630 C.ar      1 RES1    0.0000
     20 H8        10.5606   14.3484    0.0335 H         1 RES1    0.0000
     21 N1        13.3108   15.9409    2.1964 N.am      1 RES1    0.0000
     22 H9        13.0841   15.7556    3.0243 H         1 RES1    0.0000
     23 N2         9.6242   10.5995    2.3174 N.pl3     1 RES1    0.0000
     24 O1        12.8576   15.5638    0.0064 O.2       1 RES1    0.0000
     25 O2         9.8891    9.9516    3.3268 O.2       1 RES1    0.0000
     26 O3         8.7626   10.2778    1.5044 O.2       1 RES1    0.0000
     27 C2G       16.9618   18.3313    4.2457 C.ar      1 RES1    0.0000
     28 H2G       17.3302   19.1549    4.5437 H         1 RES1    0.0000
     29 C3G       15.8873   18.3329    3.3643 C.ar      1 RES1    0.0000
     30 H3G       15.5315   19.1594    3.0578 H         1 RES1    0.0000
     31 C6G       12.7234   18.9886    1.1899 C.2       1 RES1    0.0000
     32 C7G       11.8667   20.1685    1.5809 C.ar      1 RES1    0.0000
     33 C8G       12.1723   20.9735    2.6723 C.ar      1 RES1    0.0000
     34 H5G       12.8922   20.7425    3.2473 H         1 RES1    0.0000
     35 C9G       11.4236   22.1184    2.9223 C.ar      1 RES1    0.0000
     36 H6G       11.6263   22.6797    3.6613 H         1 RES1    0.0000
     37 C10G      10.3786   22.4202    2.0724 C.ar      1 RES1    0.0000
     38 C11G      10.0243   21.6218    1.0044 C.ar      1 RES1    0.0000
     39 H7G        9.2848   21.8436    0.4520 H         1 RES1    0.0000
     40 C12G      10.7825   20.4853    0.7630 C.ar      1 RES1    0.0000
     41 H8G       10.5606   19.9179    0.0335 H         1 RES1    0.0000
     42 N1G       13.3108   18.3254    2.1964 N.am      1 RES1    0.0000
     43 H9G       13.0841   18.5107    3.0243 H         1 RES1    0.0000
     44 N2G        9.6242   23.6668    2.3174 N.pl3     1 RES1    0.0000
     45 O1G       12.8576   18.7025    0.0064 O.2       1 RES1    0.0000
     46 O2G        9.8891   24.3147    3.3268 O.2       1 RES1    0.0000
     47 O3G        8.7626   23.9885    1.5044 O.2       1 RES1    0.0000
@<TRIPOS>BOND
     1    1    2 1
     2    3    1 ar
     3    4    3 1
     4    5    3 ar
     5    6    5 1
     6    7    5 ar
     7    8    7 1
     8    9    8 1
     9   10   11 1
    10   11   12 ar
    11   12   13 1
    12   14   12 ar
    13   15   14 1
    14   16   14 ar
    15   17   16 ar
    16   18   17 1
    17   19   11 ar
    18   20   19 1
    19   21    8 1
    20   22   21 1
    21   23   16 1
    22   24   10 2
    23   25   23 2
    24   26   23 2
    25   27    1 ar
    26   28   27 1
    27   29    7 ar
    28   30   29 1
    29   31   32 1
    30   32   33 ar
    31   33   34 1
    32   35   33 ar
    33   36   35 1
    34   37   35 ar
    35   38   37 ar
    36   39   38 1
    37   40   32 ar
    38   41   40 1
    39   42    8 1
    40   43   42 1
    41   44   37 1
    42   45   31 2
    43   46   44 2
    44   47   44 2
    45   10   21 1
    46   17   19 ar
    47   27   29 ar
    48   31   42 1
    49   38   40 ar
@<TRIPOS>SUBSTRUCTURE
     1 RES1 1

@<TRIPOS>CRYSIN
  16.5475   22.8442    4.9997  90.0000  90.0000  90.0000  62 1

