# MOL2 file generated by ConQuest
# Please check atom types

@<TRIPOS>MOLECULE
TAGYUY
    38    40     1
SMALL
NO_CHARGES
****
Generated from CSD

@<TRIPOS>ATOM
      1 O1         7.6612    1.7971    5.5201 O.3       1 RES1    0.0000
      2 O2         9.2183    2.6044    1.6194 O.3       1 RES1    0.0000
      3 O3        10.9364    3.0071    3.0022 O.2       1 RES1    0.0000
      4 N1         7.8022    1.9095    4.0789 N.3       1 RES1    0.0000
      5 C1         6.6689    2.7509    5.9064 C.3       1 RES1    0.0000
      6 H1         6.7500    2.9715    6.8682 H         1 RES1    0.0000
      7 H2         5.7590    2.4000    5.7343 H         1 RES1    0.0000
      8 C2         6.9424    3.9686    5.0528 C.3       1 RES1    0.0000
      9 H3         6.1062    4.4903    4.8787 H         1 RES1    0.0000
     10 C3         8.0757    4.8753    5.5731 C.3       1 RES1    0.0000
     11 H4         7.8795    5.8259    5.3752 H         1 RES1    0.0000
     12 H5         8.1841    4.7691    6.5512 H         1 RES1    0.0000
     13 C4         9.3311    4.4253    4.8440 C.3       1 RES1    0.0000
     14 H6         9.7353    3.6354    5.2834 H         1 RES1    0.0000
     15 H7        10.0013    5.1527    4.8066 H         1 RES1    0.0000
     16 C5         8.8119    4.0721    3.4293 C.3       1 RES1    0.0000
     17 C6         7.4964    3.3281    3.7490 C.3       1 RES1    0.0000
     18 H8         6.8418    3.3982    2.9967 H         1 RES1    0.0000
     19 C7         8.6148    5.3453    2.6002 C.ar      1 RES1    0.0000
     20 C8         9.7381    6.0326    2.1425 C.ar      1 RES1    0.0000
     21 H9        10.6027    5.6841    2.3261 H         1 RES1    0.0000
     22 C9         9.6195    7.2110    1.4270 C.ar      1 RES1    0.0000
     23 H10       10.3991    7.6667    1.1297 H         1 RES1    0.0000
     24 C10        8.3677    7.7272    1.1447 C.ar      1 RES1    0.0000
     25 H11        8.2826    8.5370    0.6550 H         1 RES1    0.0000
     26 C11        7.2428    7.0551    1.5820 C.ar      1 RES1    0.0000
     27 H12        6.3802    7.4033    1.3861 H         1 RES1    0.0000
     28 C12        7.3608    5.8724    2.3057 C.ar      1 RES1    0.0000
     29 H13        6.5784    5.4207    2.6016 H         1 RES1    0.0000
     30 C13        9.7809    3.1788    2.6941 C.2       1 RES1    0.0000
     31 C14       10.0692    1.6852    0.8917 C.3       1 RES1    0.0000
     32 H14       10.8807    2.1520    0.6019 H         1 RES1    0.0000
     33 H15        9.5889    1.3463    0.1075 H         1 RES1    0.0000
     34 H16       10.3140    0.9350    1.4739 H         1 RES1    0.0000
     35 C15        6.8458    0.9837    3.4749 C.3       1 RES1    0.0000
     36 H17        7.0507    0.0693    3.7626 H         1 RES1    0.0000
     37 H18        6.9097    1.0398    2.4982 H         1 RES1    0.0000
     38 H19        5.9385    1.2200    3.7578 H         1 RES1    0.0000
@<TRIPOS>BOND
     1    1    4 1
     2    2   30 1
     3    3   30 2
     4    4   17 1
     5    5    1 1
     6    6    5 1
     7    7    5 1
     8    8    5 1
     9    9    8 1
    10   10    8 1
    11   11   10 1
    12   12   10 1
    13   13   10 1
    14   14   13 1
    15   15   13 1
    16   16   13 1
    17   17    8 1
    18   18   17 1
    19   19   16 1
    20   20   19 ar
    21   21   20 1
    22   22   20 ar
    23   23   22 1
    24   24   22 ar
    25   25   24 1
    26   26   24 ar
    27   27   26 1
    28   28   19 ar
    29   29   28 1
    30   30   16 1
    31   31    2 1
    32   32   31 1
    33   33   31 1
    34   34   31 1
    35   35    4 1
    36   36   35 1
    37   37   35 1
    38   38   35 1
    39   16   17 1
    40   26   28 ar
@<TRIPOS>SUBSTRUCTURE
     1 RES1 1

@<TRIPOS>CRYSIN
  13.3032   15.4042    6.8015  90.0000  90.0000  90.0000  33 1

