# MOL2 file generated by ConQuest
# Please check atom types

@<TRIPOS>MOLECULE
TAGZEJ
    41    43     1
SMALL
NO_CHARGES
****
Generated from CSD

@<TRIPOS>ATOM
      1 O1        12.2997    1.2483    5.9007 O.3       1 RES1    0.0000
      2 O2        10.3337    5.3148    7.7761 O.2       1 RES1    0.0000
      3 O3        12.1884    5.4517    9.0210 O.3       1 RES1    0.0000
      4 N1        11.1329    1.3081    6.7735 N.3       1 RES1    0.0000
      5 C1        12.3886    2.4625    5.0904 C.3       1 RES1    0.0000
      6 H1        12.3041    2.2338    4.1202 H         1 RES1    0.0000
      7 C2        11.2110    3.3248    5.5266 C.3       1 RES1    0.0000
      8 H2        10.4492    3.2359    4.9000 H         1 RES1    0.0000
      9 H3        11.4701    4.2786    5.5909 H         1 RES1    0.0000
     10 C3        10.8682    2.7453    6.9072 C.3       1 RES1    0.0000
     11 H4         9.8954    2.8843    7.0887 H         1 RES1    0.0000
     12 C4        11.6947    3.3192    8.0901 C.3       1 RES1    0.0000
     13 C5        13.2221    3.1664    7.9087 C.3       1 RES1    0.0000
     14 H5        13.6667    3.5205    8.7191 H         1 RES1    0.0000
     15 H6        13.4325    2.2003    7.8550 H         1 RES1    0.0000
     16 C6        13.8364    3.8624    6.6794 C.3       1 RES1    0.0000
     17 H7        13.3842    4.7354    6.5574 H         1 RES1    0.0000
     18 H8        14.7912    4.0458    6.8690 H         1 RES1    0.0000
     19 C7        13.7473    3.0846    5.3626 C.3       1 RES1    0.0000
     20 H9        13.9695    3.6975    4.6169 H         1 RES1    0.0000
     21 H10       14.4279    2.3661    5.3726 H         1 RES1    0.0000
     22 C8        10.0541    0.5964    6.0850 C.3       1 RES1    0.0000
     23 H11        9.9360    0.9726    5.1875 H         1 RES1    0.0000
     24 H12        9.2220    0.6936    6.5935 H         1 RES1    0.0000
     25 H13       10.2845   -0.3540    6.0124 H         1 RES1    0.0000
     26 C9        11.3198    4.7987    8.2470 C.2       1 RES1    0.0000
     27 C10       11.8775    6.8398    9.2976 C.3       1 RES1    0.0000
     28 H14       11.8196    7.3359    8.4541 H         1 RES1    0.0000
     29 H15       12.5825    7.2275    9.8571 H         1 RES1    0.0000
     30 H16       11.0191    6.8951    9.7683 H         1 RES1    0.0000
     31 C11       11.2070    2.6467    9.3975 C.ar      1 RES1    0.0000
     32 C12       12.0853    2.1005   10.3325 C.ar      1 RES1    0.0000
     33 H17       13.0213    2.1533   10.1793 H         1 RES1    0.0000
     34 C13       11.6153    1.4807   11.4832 C.ar      1 RES1    0.0000
     35 H18       12.2329    1.1177   12.1076 H         1 RES1    0.0000
     36 C14       10.2594    1.3863   11.7298 C.ar      1 RES1    0.0000
     37 H19        9.9372    0.9423   12.5065 H         1 RES1    0.0000
     38 C15        9.3769    1.9518   10.8228 C.ar      1 RES1    0.0000
     39 H20        8.4424    1.9061   10.9876 H         1 RES1    0.0000
     40 C16        9.8402    2.5831    9.6783 C.ar      1 RES1    0.0000
     41 H21        9.2185    2.9776    9.0773 H         1 RES1    0.0000
@<TRIPOS>BOND
     1    1    4 1
     2    2   26 2
     3    3   26 1
     4    4   10 1
     5    5    1 1
     6    6    5 1
     7    7    5 1
     8    8    7 1
     9    9    7 1
    10   10    7 1
    11   11   10 1
    12   12   10 1
    13   13   12 1
    14   14   13 1
    15   15   13 1
    16   16   13 1
    17   17   16 1
    18   18   16 1
    19   19    5 1
    20   20   19 1
    21   21   19 1
    22   22    4 1
    23   23   22 1
    24   24   22 1
    25   25   22 1
    26   26   12 1
    27   27    3 1
    28   28   27 1
    29   29   27 1
    30   30   27 1
    31   31   12 1
    32   32   31 ar
    33   33   32 1
    34   34   32 ar
    35   35   34 1
    36   36   34 ar
    37   37   36 1
    38   38   36 ar
    39   39   38 1
    40   40   31 ar
    41   41   40 1
    42   16   19 1
    43   38   40 ar
@<TRIPOS>SUBSTRUCTURE
     1 RES1 1

@<TRIPOS>CRYSIN
  23.9178    7.9721   16.2844  90.0000 112.4190  90.0000  15 1

