# MOL2 file generated by ConQuest
# Please check atom types

@<TRIPOS>MOLECULE
TAHLET21
    82    88     2
SMALL
NO_CHARGES
****
Generated from CSD

@<TRIPOS>ATOM
      1 C1         9.2787    0.0062   -3.3688 C.3       1 RES1    0.0000
      2 C2         9.8487   -0.9422   -2.3334 C.2       1 RES1    0.0000
      3 C3         9.2544   -1.5314   -1.3187 C.2       1 RES1    0.0000
      4 C4         7.8021   -1.5388   -1.0096 C.3       1 RES1    0.0000
      5 O1         7.0303   -0.8204   -1.9651 O.3       1 RES1    0.0000
      6 N1         7.2679   -1.4394   -3.2581 N.3       1 RES1    0.0000
      7 C5         5.9489   -1.7955   -3.8041 C.3       1 RES1    0.0000
      8 C6         6.1788   -2.6320   -5.0403 C.3       1 RES1    0.0000
      9 C7         7.2315   -1.9813   -5.8877 C.2       1 RES1    0.0000
     10 C8         7.5668   -2.2380   -7.2347 C.ar      1 RES1    0.0000
     11 C9         7.1558   -3.1820   -8.1825 C.ar      1 RES1    0.0000
     12 C10        7.6969   -3.1336   -9.4445 C.ar      1 RES1    0.0000
     13 C11        8.6612   -2.1702   -9.7870 C.ar      1 RES1    0.0000
     14 C12        9.0894   -1.2361   -8.8650 C.ar      1 RES1    0.0000
     15 C13        8.5484   -1.2852   -7.5875 C.ar      1 RES1    0.0000
     16 N2         8.7920   -0.4947   -6.4852 N.pl3     1 RES1    0.0000
     17 C14        7.9925   -0.9459   -5.4473 C.2       1 RES1    0.0000
     18 C15        7.9411   -0.3940   -4.0565 C.3       1 RES1    0.0000
     19 C16        9.6135    0.7191   -6.5650 C.3       1 RES1    0.0000
     20 C17        9.1626    1.4008   -2.7378 C.3       1 RES1    0.0000
     21 O2         8.9655    2.3399   -3.7938 O.3       1 RES1    0.0000
     22 C18        3.4100    1.5115  -10.2249 C.3       2 RES2    0.0000
     23 C19        4.6099    0.5786  -10.0240 C.2       2 RES2    0.0000
     24 C20        5.0476   -0.0112   -8.9371 C.2       2 RES2    0.0000
     25 C21        4.4310   -0.0423   -7.6056 C.3       2 RES2    0.0000
     26 O3         3.1845    0.6787   -7.5437 O.3       2 RES2    0.0000
     27 N3         2.3102    0.0659   -8.5276 N.3       2 RES2    0.0000
     28 C22        1.0748   -0.3226   -7.8090 C.3       2 RES2    0.0000
     29 C23        0.2431   -1.1585   -8.7620 C.3       2 RES2    0.0000
     30 C24        0.1747   -0.4754  -10.0755 C.2       2 RES2    0.0000
     31 C25       -0.7199   -0.6880  -11.1624 C.ar      2 RES2    0.0000
     32 C26       -1.7456   -1.6090  -11.4199 C.ar      2 RES2    0.0000
     33 C27       -2.4403   -1.5077  -12.5944 C.ar      2 RES2    0.0000
     34 C28       -2.1644   -0.5134  -13.5293 C.ar      2 RES2    0.0000
     35 C29       -1.1556    0.4102  -13.3026 C.ar      2 RES2    0.0000
     36 C30       -0.4497    0.2983  -12.1205 C.ar      2 RES2    0.0000
     37 N4         0.5982    1.0808  -11.6492 N.pl3     2 RES2    0.0000
     38 C31        0.9720    0.5879  -10.4077 C.2       2 RES2    0.0000
     39 C32        2.0734    1.1205   -9.5243 C.3       2 RES2    0.0000
     40 C33        1.0414    2.2983  -12.3342 C.3       2 RES2    0.0000
     41 C34        3.8607    2.9123   -9.7870 C.3       2 RES2    0.0000
     42 O4         2.8967    3.8557  -10.2609 O.3       2 RES2    0.0000
     43 H1         9.9248    0.0932   -4.1621 H         1 RES1    0.0000
     44 H2        10.8212   -1.0298   -2.3231 H         1 RES1    0.0000
     45 H3         9.8050   -2.0913   -0.6825 H         1 RES1    0.0000
     46 H4         7.6648   -1.0764    0.0052 H         1 RES1    0.0000
     47 H5         7.4454   -2.4226   -0.8448 H         1 RES1    0.0000
     48 H6         5.4242   -0.9639   -4.0127 H         1 RES1    0.0000
     49 H7         5.4505   -2.2914   -3.0572 H         1 RES1    0.0000
     50 H8         5.3725   -2.7439   -5.6430 H         1 RES1    0.0000
     51 H9         6.5091   -3.5332   -4.8472 H         1 RES1    0.0000
     52 H10        6.4390   -3.8358   -7.8940 H         1 RES1    0.0000
     53 H11        7.3803   -3.7072  -10.1553 H         1 RES1    0.0000
     54 H12        8.9644   -2.0820  -10.8224 H         1 RES1    0.0000
     55 H13        9.7700   -0.5917   -9.1174 H         1 RES1    0.0000
     56 H14        7.3766    0.3903   -4.1028 H         1 RES1    0.0000
     57 H15       10.5285    0.4736   -6.4672 H         1 RES1    0.0000
     58 H16        9.4071    1.3493   -5.6507 H         1 RES1    0.0000
     59 H17        9.4813    1.1522   -7.4871 H         1 RES1    0.0000
     60 H18       10.0632    1.6426   -2.1428 H         1 RES1    0.0000
     61 H19        8.4312    1.4158   -2.0939 H         1 RES1    0.0000
     62 H20        8.5708    3.0161   -3.4821 H         1 RES1    0.0000
     63 H21        3.1596    1.5550  -11.3375 H         2 RES2    0.0000
     64 H22        5.2011    0.4866  -10.9306 H         2 RES2    0.0000
     65 H23        5.9271   -0.5115   -9.0195 H         2 RES2    0.0000
     66 H24        5.0482    0.4375   -6.8509 H         2 RES2    0.0000
     67 H25        4.3456   -0.9223   -7.2244 H         2 RES2    0.0000
     68 H26        0.6125    0.5227   -7.4382 H         2 RES2    0.0000
     69 H27        1.3614   -0.8496   -6.9540 H         2 RES2    0.0000
     70 H28       -0.6697   -1.3878   -8.3628 H         2 RES2    0.0000
     71 H29        0.6200   -2.0323   -8.8624 H         2 RES2    0.0000
     72 H30       -1.8718   -2.2933  -10.7220 H         2 RES2    0.0000
     73 H31       -3.1674   -2.1715  -12.8236 H         2 RES2    0.0000
     74 H32       -2.6535   -0.4263  -14.4204 H         2 RES2    0.0000
     75 H33       -0.9746    1.0994  -14.0135 H         2 RES2    0.0000
     76 H34        1.7270    1.9384   -9.0479 H         2 RES2    0.0000
     77 H35        1.6279    2.0621  -13.0940 H         2 RES2    0.0000
     78 H36        1.5699    2.9577  -11.6672 H         2 RES2    0.0000
     79 H37        0.2792    2.7569  -12.8880 H         2 RES2    0.0000
     80 H38        4.8496    3.1311  -10.2661 H         2 RES2    0.0000
     81 H39        3.9331    2.9167   -8.6487 H         2 RES2    0.0000
     82 H40        2.8048    4.3877   -9.5037 H         2 RES2    0.0000
@<TRIPOS>BOND
     1    1    2 1
     2    2    3 2
     3    3    4 1
     4    4    5 1
     5    5    6 1
     6    6    7 1
     7    7    8 1
     8    8    9 1
     9    9   10 1
    10   10   11 ar
    11   11   12 ar
    12   12   13 ar
    13   13   14 ar
    14   14   15 ar
    15   15   10 ar
    16   16   15 1
    17   17    9 2
    18   18    1 1
    19   19   16 1
    20   20    1 1
    21   21   20 1
    22   22   23 1
    23   23   24 2
    24   24   25 1
    25   25   26 1
    26   26   27 1
    27   27   28 1
    28   28   29 1
    29   29   30 1
    30   30   31 1
    31   31   32 ar
    32   32   33 ar
    33   33   34 ar
    34   34   35 ar
    35   35   36 ar
    36   36   31 ar
    37   37   36 1
    38   38   30 2
    39   39   22 1
    40   40   37 1
    41   41   22 1
    42   42   41 1
    43   43    1 1
    44   44    2 1
    45   45    3 1
    46   46    4 1
    47   47    4 1
    48   48    7 1
    49   49    7 1
    50   50    8 1
    51   51    8 1
    52   52   11 1
    53   53   12 1
    54   54   13 1
    55   55   14 1
    56   56   18 1
    57   57   19 1
    58   58   19 1
    59   59   19 1
    60   60   20 1
    61   61   20 1
    62   62   21 1
    63   63   22 1
    64   64   23 1
    65   65   24 1
    66   66   25 1
    67   67   25 1
    68   68   28 1
    69   69   28 1
    70   70   29 1
    71   71   29 1
    72   72   32 1
    73   73   33 1
    74   74   34 1
    75   75   35 1
    76   76   39 1
    77   77   40 1
    78   78   40 1
    79   79   40 1
    80   80   41 1
    81   81   41 1
    82   82   42 1
    83    6   18 1
    84   16   17 1
    85   17   18 1
    86   27   39 1
    87   37   38 1
    88   38   39 1
@<TRIPOS>SUBSTRUCTURE
     1 RES1 1
     2 RES2 22

@<TRIPOS>CRYSIN
  18.4990    6.2149   26.4500  90.0000 103.1600  90.0000  14 1

