# MOL2 file generated by ConQuest
# Please check atom types

@<TRIPOS>MOLECULE
TAHLET20
   164   176     4
SMALL
NO_CHARGES
****
Generated from CSD

@<TRIPOS>ATOM
      1 C1        15.2742    1.5935    9.2668 C.3       1 RES1    0.0000
      2 C2        15.8672    0.6035   10.3305 C.2       1 RES1    0.0000
      3 C3        15.2857   -0.0044   11.3143 C.2       1 RES1    0.0000
      4 C4        13.7869    0.0124   11.6878 C.3       1 RES1    0.0000
      5 O1        13.0315    0.7340   10.7014 O.3       1 RES1    0.0000
      6 N1        13.2784    0.1088    9.4162 N.3       1 RES1    0.0000
      7 C5        11.9214   -0.2859    8.9062 C.3       1 RES1    0.0000
      8 C6        12.2016   -1.1311    7.6442 C.3       1 RES1    0.0000
      9 C7        13.2256   -0.4270    6.8252 C.2       1 RES1    0.0000
     10 C8        13.5755   -0.6774    5.4473 C.ar      1 RES1    0.0000
     11 C9        13.1218   -1.6358    4.4763 C.ar      1 RES1    0.0000
     12 C10       13.5971   -1.6594    3.2503 C.ar      1 RES1    0.0000
     13 C11       14.6662   -0.6526    2.8872 C.ar      1 RES1    0.0000
     14 C12       15.1240    0.2859    3.8169 C.ar      1 RES1    0.0000
     15 C13       14.5585    0.2511    5.1279 C.ar      1 RES1    0.0000
     16 N2        14.8134    1.0311    6.1658 N.pl3     1 RES1    0.0000
     17 C14       14.0520    0.5966    7.1832 C.2       1 RES1    0.0000
     18 C15       13.9726    1.1827    8.6384 C.3       1 RES1    0.0000
     19 C16       15.6650    2.2560    6.1710 C.3       1 RES1    0.0000
     20 C17       15.1416    2.9838    9.9287 C.3       1 RES1    0.0000
     21 O2        15.0218    3.8943    8.9062 O.3       1 RES1    0.0000
     22 C18       -3.2782    1.5730   16.0147 C.3       2 RES2    0.0000
     23 C19       -3.8290    2.4872   14.9999 C.2       2 RES2    0.0000
     24 C20       -3.2103    3.0639   13.9517 C.2       2 RES2    0.0000
     25 C21       -1.8353    3.1075   13.7044 C.3       2 RES2    0.0000
     26 O3        -1.0205    2.3697   14.6342 O.3       2 RES2    0.0000
     27 N3        -1.2519    2.9912   15.9245 N.3       2 RES2    0.0000
     28 C22        0.0320    3.3125   16.4860 C.3       2 RES2    0.0000
     29 C23       -0.1473    4.1559   17.7120 C.3       2 RES2    0.0000
     30 C24       -1.2314    3.5543   18.5902 C.2       2 RES2    0.0000
     31 C25       -1.5680    3.7973   19.9192 C.ar      2 RES2    0.0000
     32 C26       -1.1787    4.7482   20.8335 C.ar      2 RES2    0.0000
     33 C27       -1.7651    4.6239   22.1625 C.ar      2 RES2    0.0000
     34 C28       -2.6372    3.7165   22.4587 C.ar      2 RES2    0.0000
     35 C29       -3.0807    2.7613   21.5469 C.ar      2 RES2    0.0000
     36 C30       -2.5475    2.8334   20.3030 C.ar      2 RES2    0.0000
     37 N4        -2.7748    2.0174   19.1465 N.pl3     2 RES2    0.0000
     38 C31       -1.9403    2.4804   18.0777 C.2       2 RES2    0.0000
     39 C32       -1.8929    1.9577   16.7358 C.3       2 RES2    0.0000
     40 C33       -3.5873    0.8328   19.2908 C.3       2 RES2    0.0000
     41 C34       -3.1720    0.1989   15.3863 C.3       2 RES2    0.0000
     42 O4        -2.8946   -0.7887   16.4706 O.3       2 RES2    0.0000
     43 C35        9.4118    3.0683    2.4390 C.3       3 RES3    0.0000
     44 C36       10.6451    2.1255    2.6631 C.2       3 RES3    0.0000
     45 C37       11.1200    1.5537    3.6701 C.2       3 RES3    0.0000
     46 C38       10.4835    1.4791    4.9605 C.3       3 RES3    0.0000
     47 O5         9.1751    2.2492    5.1047 O.3       3 RES3    0.0000
     48 N5         8.2566    1.5972    4.1518 N.3       3 RES3    0.0000
     49 C39        7.0329    1.3238    4.8755 C.3       3 RES3    0.0000
     50 C40        6.1888    0.4102    3.8891 C.3       3 RES3    0.0000
     51 C41        6.2142    1.1143    2.6013 C.2       3 RES3    0.0000
     52 C42        5.2941    0.9465    1.4809 C.ar      3 RES3    0.0000
     53 C43        4.2121   -0.0249    1.2903 C.ar      3 RES3    0.0000
     54 C44        3.5719    0.0932    0.0721 C.ar      3 RES3    0.0000
     55 C45        3.8631    1.0192   -0.7933 C.ar      3 RES3    0.0000
     56 C46        4.9062    1.9272   -0.6181 C.ar      3 RES3    0.0000
     57 C47        5.5836    1.8601    0.5512 C.ar      3 RES3    0.0000
     58 N6         6.5771    2.6103    1.0096 N.pl3     3 RES3    0.0000
     59 C48        7.0023    2.1460    2.2690 C.2       3 RES3    0.0000
     60 C49        8.0933    2.6687    3.1808 C.3       3 RES3    0.0000
     61 C50        7.0623    3.8222    0.3348 C.3       3 RES3    0.0000
     62 C51        9.8615    4.4834    2.9129 C.3       3 RES3    0.0000
     63 O6         8.9477    5.4163    2.3669 O.3       3 RES3    0.0000
     64 C52        5.6009   -0.0435   10.0034 C.3       4 RES4    0.0000
     65 C53        4.4537   -0.9571    9.8463 C.2       4 RES4    0.0000
     66 C54        4.0246   -1.5910    8.6512 C.2       4 RES4    0.0000
     67 C55        4.6692   -1.5537    7.2630 C.3       4 RES4    0.0000
     68 O7         5.8010   -0.8925    7.3197 O.3       4 RES4    0.0000
     69 N7         6.6687   -1.4798    8.3319 N.3       4 RES4    0.0000
     70 C56        7.9085   -1.9763    7.6107 C.3       4 RES4    0.0000
     71 C57        8.7251   -2.7346    8.5250 C.3       4 RES4    0.0000
     72 C58        8.8794   -2.0652    9.8746 C.2       4 RES4    0.0000
     73 C59        9.7651   -2.3275   10.9048 C.ar      4 RES4    0.0000
     74 C60       10.7354   -3.2255   11.1856 C.ar      4 RES4    0.0000
     75 C61       11.4901   -3.1199   12.3729 C.ar      4 RES4    0.0000
     76 C62       11.2275   -2.0385   13.3928 C.ar      4 RES4    0.0000
     77 C63       10.1913   -1.0814   13.1249 C.ar      4 RES4    0.0000
     78 C64        9.4865   -1.2554   11.9067 C.ar      4 RES4    0.0000
     79 N8         8.3991   -0.4437   11.4302 N.pl3     4 RES4    0.0000
     80 C65        8.0661   -0.9652   10.2043 C.2       4 RES4    0.0000
     81 C66        6.9673   -0.4183    9.3337 C.3       4 RES4    0.0000
     82 C67        7.9948    0.7557   12.1231 C.3       4 RES4    0.0000
     83 C68        5.1657    1.3300    9.6016 C.3       4 RES4    0.0000
     84 O8         6.1655    2.2939    9.9699 O.3       4 RES4    0.0000
     85 H1        15.9568    1.6780    8.4993 H         1 RES1    0.0000
     86 H2        16.8237    0.4350   10.2506 H         1 RES1    0.0000
     87 H3        15.8898   -0.5656   11.9505 H         1 RES1    0.0000
     88 H4        13.3972   -0.9944   11.6929 H         1 RES1    0.0000
     89 H5        13.6489    0.3729   12.5944 H         1 RES1    0.0000
     90 H6        11.4616   -0.8079    9.6068 H         1 RES1    0.0000
     91 H7        11.3510    0.5531    8.5765 H         1 RES1    0.0000
     92 H8        12.4884   -2.0509    7.9842 H         1 RES1    0.0000
     93 H9        11.3552   -1.2430    7.1342 H         1 RES1    0.0000
     94 H10       12.3352   -2.2374    4.8420 H         1 RES1    0.0000
     95 H11       13.2906   -2.4797    2.5755 H         1 RES1    0.0000
     96 H12       15.0867   -0.6215    1.7771 H         1 RES1    0.0000
     97 H13       15.8611    0.9882    3.5285 H         1 RES1    0.0000
     98 H14       16.6334    1.9266    6.0010 H         1 RES1    0.0000
     99 H15       15.6035    2.7408    7.0827 H         1 RES1    0.0000
    100 H16       15.3540    2.9210    5.4601 H         1 RES1    0.0000
    101 H17       13.3743    2.0509    8.7053 H         1 RES1    0.0000
    102 H18       15.9866    3.1758   10.5082 H         1 RES1    0.0000
    103 H19       14.1164    4.5493    9.0916 H         1 RES1    0.0000
    104 H20       14.3281    2.9210   10.5597 H         1 RES1    0.0000
    105 H21       -3.9753    1.5537   16.8440 H         2 RES2    0.0000
    106 H22       -4.8117    2.6103   15.0411 H         2 RES2    0.0000
    107 H23       -3.7608    3.7289   13.3155 H         2 RES2    0.0000
    108 H24       -1.6734    2.6724   12.7747 H         2 RES2    0.0000
    109 H25       -1.4712    4.1018   13.6503 H         2 RES2    0.0000
    110 H26        0.6116    2.4238   16.6895 H         2 RES2    0.0000
    111 H27        0.5939    3.8595   15.7365 H         2 RES2    0.0000
    112 H28        0.6697    4.2261   18.2606 H         2 RES2    0.0000
    113 H29       -0.3955    5.0962   17.4364 H         2 RES2    0.0000
    114 H30       -0.4892    5.5313   20.5270 H         2 RES2    0.0000
    115 H31       -1.4373    5.1646   22.9995 H         2 RES2    0.0000
    116 H32       -3.7807    2.0509   21.8663 H         2 RES2    0.0000
    117 H33       -3.0686    3.6668   23.4889 H         2 RES2    0.0000
    118 H34       -3.3522    0.3729   20.1922 H         2 RES2    0.0000
    119 H35       -3.3618    0.1243   18.4924 H         2 RES2    0.0000
    120 H36       -4.5534    1.0565   19.3165 H         2 RES2    0.0000
    121 H37       -1.2749    1.1187   16.7667 H         2 RES2    0.0000
    122 H38       -2.4150    0.1802   14.6806 H         2 RES2    0.0000
    123 H39       -4.0726   -0.1243   14.8866 H         2 RES2    0.0000
    124 H40       -3.6570   -1.4294   16.4319 H         2 RES2    0.0000
    125 H41        9.1093    2.9832    1.3908 H         3 RES3    0.0000
    126 H42       11.2389    2.0012    1.7771 H         3 RES3    0.0000
    127 H43       11.9578    1.1125    3.5285 H         3 RES3    0.0000
    128 H44       10.3209    0.4413    5.2283 H         3 RES3    0.0000
    129 H45       11.2050    1.9266    5.6404 H         3 RES3    0.0000
    130 H46        6.4787    2.1752    5.1253 H         3 RES3    0.0000
    131 H47        7.2161    0.8701    5.7692 H         3 RES3    0.0000
    132 H48        6.7179   -0.6215    3.7860 H         3 RES3    0.0000
    133 H49        5.2096    0.2486    4.2239 H         3 RES3    0.0000
    134 H50        3.9455   -0.7396    2.0347 H         3 RES3    0.0000
    135 H51        2.7430   -0.5593   -0.1803 H         3 RES3    0.0000
    136 H52        3.2652    0.9944   -1.6226 H         3 RES3    0.0000
    137 H53        4.9689    2.6724   -1.3135 H         3 RES3    0.0000
    138 H54        7.5385    3.6668   -0.5151 H         3 RES3    0.0000
    139 H55        7.6457    4.4250    1.0045 H         3 RES3    0.0000
    140 H56        6.1791    4.4001    0.0773 H         3 RES3    0.0000
    141 H57        7.8089    3.6046    3.7088 H         3 RES3    0.0000
    142 H58       10.8672    4.7233    2.5755 H         3 RES3    0.0000
    143 H59        9.8515    4.5307    3.9921 H         3 RES3    0.0000
    144 H60        8.4903    6.1030    3.1679 H         3 RES3    0.0000
    145 H61        5.7967   -0.0621   11.0491 H         4 RES4    0.0000
    146 H62        3.9635   -1.2430   10.7400 H         4 RES4    0.0000
    147 H63        3.1318   -2.0509    8.6796 H         4 RES4    0.0000
    148 H64        4.9597   -2.6662    6.9540 H         4 RES4    0.0000
    149 H65        4.0756   -1.1808    6.5419 H         4 RES4    0.0000
    150 H66        7.5302   -2.4860    6.7994 H         4 RES4    0.0000
    151 H67        8.3339   -1.1125    7.1600 H         4 RES4    0.0000
    152 H68        8.3546   -3.7289    8.6538 H         4 RES4    0.0000
    153 H69        9.7639   -2.7967    8.1645 H         4 RES4    0.0000
    154 H70       10.3526   -4.1640   10.8688 H         4 RES4    0.0000
    155 H71       12.2856   -3.8532   12.4914 H         4 RES4    0.0000
    156 H72       11.7840   -1.9266   14.3200 H         4 RES4    0.0000
    157 H73        9.9866   -0.2486   13.7791 H         4 RES4    0.0000
    158 H74        7.5528    0.4350   13.0322 H         4 RES4    0.0000
    159 H75        8.8133    1.2430   12.3883 H         4 RES4    0.0000
    160 H76        7.2796    1.3051   11.5899 H         4 RES4    0.0000
    161 H77        7.3939    0.4910    8.8856 H         4 RES4    0.0000
    162 H78        4.9994    1.3673    8.5250 H         4 RES4    0.0000
    163 H79        4.2685    1.6159   10.1476 H         4 RES4    0.0000
    164 H80        6.3563    2.8589   10.7915 H         4 RES4    0.0000
@<TRIPOS>BOND
     1    1    2 1
     2    2    3 2
     3    3    4 1
     4    4    5 1
     5    5    6 1
     6    6    7 1
     7    7    8 1
     8    8    9 1
     9    9   10 1
    10   10   11 ar
    11   11   12 ar
    12   12   13 ar
    13   13   14 ar
    14   14   15 ar
    15   15   10 ar
    16   16   15 1
    17   17    9 2
    18   18    1 1
    19   19   16 1
    20   20    1 1
    21   21   20 1
    22   22   23 1
    23   23   24 2
    24   24   25 1
    25   25   26 1
    26   26   27 1
    27   27   28 1
    28   28   29 1
    29   29   30 1
    30   30   31 1
    31   31   32 ar
    32   32   33 ar
    33   33   34 ar
    34   34   35 ar
    35   35   36 ar
    36   36   31 ar
    37   37   36 1
    38   38   30 2
    39   39   22 1
    40   40   37 1
    41   41   22 1
    42   42   41 1
    43   43   44 1
    44   44   45 2
    45   45   46 1
    46   46   47 1
    47   47   48 1
    48   48   49 1
    49   49   50 1
    50   50   51 1
    51   51   52 1
    52   52   53 ar
    53   53   54 ar
    54   54   55 ar
    55   55   56 ar
    56   56   57 ar
    57   57   52 ar
    58   58   57 1
    59   59   51 2
    60   60   43 1
    61   61   58 1
    62   62   43 1
    63   63   62 1
    64   64   65 1
    65   65   66 2
    66   66   67 1
    67   67   68 1
    68   68   69 1
    69   69   70 1
    70   70   71 1
    71   71   72 1
    72   72   73 1
    73   73   74 ar
    74   74   75 ar
    75   75   76 ar
    76   76   77 ar
    77   77   78 ar
    78   78   73 ar
    79   79   78 1
    80   80   72 2
    81   81   64 1
    82   82   79 1
    83   83   64 1
    84   84   83 1
    85   85    1 1
    86   86    2 1
    87   87    3 1
    88   88    4 1
    89   89    4 1
    90   90    7 1
    91   91    7 1
    92   92    8 1
    93   93    8 1
    94   94   11 1
    95   95   12 1
    96   96   13 1
    97   97   14 1
    98   98   19 1
    99   99   19 1
   100  100   19 1
   101  101   18 1
   102  102   20 1
   103  103   21 1
   104  104   20 1
   105  105   22 1
   106  106   23 1
   107  107   24 1
   108  108   25 1
   109  109   25 1
   110  110   28 1
   111  111   28 1
   112  112   29 1
   113  113   29 1
   114  114   32 1
   115  115   33 1
   116  116   35 1
   117  117   34 1
   118  118   40 1
   119  119   40 1
   120  120   40 1
   121  121   39 1
   122  122   41 1
   123  123   41 1
   124  124   42 1
   125  125   43 1
   126  126   44 1
   127  127   45 1
   128  128   46 1
   129  129   46 1
   130  130   49 1
   131  131   49 1
   132  132   50 1
   133  133   50 1
   134  134   53 1
   135  135   54 1
   136  136   55 1
   137  137   56 1
   138  138   61 1
   139  139   61 1
   140  140   61 1
   141  141   60 1
   142  142   62 1
   143  143   62 1
   144  144   63 1
   145  145   64 1
   146  146   65 1
   147  147   66 1
   148  148   67 1
   149  149   67 1
   150  150   70 1
   151  151   70 1
   152  152   71 1
   153  153   71 1
   154  154   74 1
   155  155   75 1
   156  156   76 1
   157  157   77 1
   158  158   82 1
   159  159   82 1
   160  160   82 1
   161  161   81 1
   162  162   83 1
   163  163   83 1
   164  164   84 1
   165    6   18 1
   166   16   17 1
   167   17   18 1
   168   27   39 1
   169   37   38 1
   170   38   39 1
   171   48   60 1
   172   58   59 1
   173   59   60 1
   174   69   81 1
   175   79   80 1
   176   80   81 1
@<TRIPOS>SUBSTRUCTURE
     1 RES1 1
     2 RES2 22
     3 RES3 43
     4 RES4 64

@<TRIPOS>CRYSIN
  18.4990    6.2149   26.4500  90.0000 103.1600  90.0000   7 1

