# MOL2 file generated by ConQuest
# Please check atom types

@<TRIPOS>MOLECULE
TAHYEH01
    31    32     1
SMALL
NO_CHARGES
****
Generated from CSD

@<TRIPOS>ATOM
      1 O1         0.4526   13.3362   -0.0215 O.2       1 RES1    0.0000
      2 C1         1.6286   13.3722   -0.3971 C.2       1 RES1    0.0000
      3 C2         2.1076   12.4466   -1.4839 C.ar      1 RES1    0.0000
      4 N1         2.5224   14.2271    0.1151 N.am      1 RES1    0.0000
      5 H1         3.3496   14.2400   -0.1845 H         1 RES1    0.0000
      6 C3         2.8515   10.7199   -3.4830 C.ar      1 RES1    0.0000
      7 C4         1.4638   11.2186   -1.6210 C.ar      1 RES1    0.0000
      8 H2         0.7641   10.9838   -1.0227 H         1 RES1    0.0000
      9 C5         3.1201   12.8047   -2.3673 C.ar      1 RES1    0.0000
     10 H3         3.5545   13.6435   -2.2754 H         1 RES1    0.0000
     11 C6         2.1046   15.1428    1.1848 C.3       1 RES1    0.0000
     12 H4         1.8834   14.6206    1.9952 H         1 RES1    0.0000
     13 H5         1.2889   15.6266    0.9020 H         1 RES1    0.0000
     14 N2         3.2716    9.7822   -4.5428 N.pl3     1 RES1    0.0000
     15 C7         3.1851   16.1394    1.5149 C.ar      1 RES1    0.0000
     16 C8         3.4987   11.9353   -3.3863 C.ar      1 RES1    0.0000
     17 H6         4.1853   12.1724   -3.9996 H         1 RES1    0.0000
     18 C9         3.8553   16.0907    2.7304 C.ar      1 RES1    0.0000
     19 H7         3.6503   15.4041    3.3539 H         1 RES1    0.0000
     20 C10        1.8372   10.3382   -2.6254 C.ar      1 RES1    0.0000
     21 H8         1.4079    9.4971   -2.7207 H         1 RES1    0.0000
     22 O2         4.1023   10.1503   -5.3438 O.2       1 RES1    0.0000
     23 C11        3.4971   17.1555    0.6210 C.ar      1 RES1    0.0000
     24 H9         3.0311   17.2136   -0.2050 H         1 RES1    0.0000
     25 O3         2.7519    8.6820   -4.5767 O.2       1 RES1    0.0000
     26 C12        4.8173   17.0319    3.0418 C.ar      1 RES1    0.0000
     27 H10        5.2612   16.9977    3.8811 H         1 RES1    0.0000
     28 C13        5.1349   18.0226    2.1342 C.ar      1 RES1    0.0000
     29 H11        5.8044   18.6625    2.3437 H         1 RES1    0.0000
     30 C14        4.4749   18.0816    0.9179 C.ar      1 RES1    0.0000
     31 H12        4.6961   18.7582    0.2881 H         1 RES1    0.0000
@<TRIPOS>BOND
     1    1    2 2
     2    2    3 1
     3    3    7 ar
     4    4    2 1
     5    5    4 1
     6    6   14 1
     7    7    8 1
     8    9    3 ar
     9   10    9 1
    10   11    4 1
    11   12   11 1
    12   13   11 1
    13   14   22 2
    14   15   11 1
    15   16    6 ar
    16   17   16 1
    17   18   15 ar
    18   19   18 1
    19   20    6 ar
    20   21   20 1
    21   23   15 ar
    22   24   23 1
    23   25   14 2
    24   26   18 ar
    25   27   26 1
    26   28   26 ar
    27   29   28 1
    28   30   23 ar
    29   31   30 1
    30    7   20 ar
    31    9   16 ar
    32   28   30 ar
@<TRIPOS>SUBSTRUCTURE
     1 RES1 1

@<TRIPOS>CRYSIN
   4.8220   22.2570   11.4080  90.0000  93.3640  90.0000  14 1

