# MOL2 file generated by ConQuest
# Please check atom types

@<TRIPOS>MOLECULE
TAJFAL
    46    47     1
SMALL
NO_CHARGES
****
Generated from CSD

@<TRIPOS>ATOM
      1 C1         5.0908    5.9466    1.6113 C.3       1 RES1    0.0000
      2 C2         6.1968    3.7064    1.4379 C.3       1 RES1    0.0000
      3 C3         5.7421    4.8142    2.3725 C.3       1 RES1    0.0000
      4 C4         4.8415    4.3193    3.5111 C.3       1 RES1    0.0000
      5 C5         5.4008    3.2049    4.4058 C.3       1 RES1    0.0000
      6 C6         4.4645    2.9697    5.5491 C.2       1 RES1    0.0000
      7 C7         3.7712    1.8866    5.7655 C.2       1 RES1    0.0000
      8 C8         6.7952    3.5001    4.9260 C.ar      1 RES1    0.0000
      9 C9         7.1005    4.6801    5.5767 C.ar      1 RES1    0.0000
     10 C10        8.3776    4.8828    6.0985 C.ar      1 RES1    0.0000
     11 C11        9.3344    3.9187    5.9650 C.ar      1 RES1    0.0000
     12 C12        9.0348    2.7388    5.3327 C.ar      1 RES1    0.0000
     13 C13        7.7728    2.5439    4.7987 C.ar      1 RES1    0.0000
     14 O1         3.6325    3.7527    2.9096 O.3       1 RES1    0.0000
     15 O2         2.3483    5.4132    3.7275 O.2       1 RES1    0.0000
     16 C14        2.4706    4.3740    3.1428 C.2       1 RES1    0.0000
     17 C15        1.3218    3.6096    2.5597 C.ar      1 RES1    0.0000
     18 C16        0.0633    4.2128    2.5873 C.ar      1 RES1    0.0000
     19 C17       -1.0293    3.5855    2.0410 C.ar      1 RES1    0.0000
     20 C18       -0.8513    2.3575    1.4793 C.ar      1 RES1    0.0000
     21 C19        0.3733    1.7098    1.4410 C.ar      1 RES1    0.0000
     22 C20        1.4677    2.3623    1.9888 C.ar      1 RES1    0.0000
     23 N1        -2.0067    1.6773    0.8532 N.pl3     1 RES1    0.0000
     24 O3        -3.0314    2.3190    0.6875 O.2       1 RES1    0.0000
     25 O4        -1.8860    0.5076    0.5110 O.2       1 RES1    0.0000
     26 H1         5.6711    6.2317    0.9008 H         1 RES1    0.0000
     27 H2         4.9302    6.6822    2.2067 H         1 RES1    0.0000
     28 H3         4.2563    5.6459    1.2415 H         1 RES1    0.0000
     29 H4         6.6223    3.0130    1.9474 H         1 RES1    0.0000
     30 H5         6.8193    4.0613    0.7995 H         1 RES1    0.0000
     31 H6         5.4356    3.3444    0.9775 H         1 RES1    0.0000
     32 H7         6.5401    5.1510    2.7868 H         1 RES1    0.0000
     33 H8         4.7167    5.0909    4.0682 H         1 RES1    0.0000
     34 H9         5.4729    2.4152    3.8656 H         1 RES1    0.0000
     35 H10        4.3638    3.6836    6.1829 H         1 RES1    0.0000
     36 H11        3.8372    1.1451    5.1608 H         1 RES1    0.0000
     37 H12        3.1941    1.8307    6.5312 H         1 RES1    0.0000
     38 H13        6.4313    5.3621    5.6719 H         1 RES1    0.0000
     39 H14        8.5834    5.7031    6.5512 H         1 RES1    0.0000
     40 H15       10.2181    4.0661    6.3148 H         1 RES1    0.0000
     41 H16        9.6992    2.0496    5.2606 H         1 RES1    0.0000
     42 H17        7.5784    1.7278    4.3322 H         1 RES1    0.0000
     43 H18       -0.0374    5.0770    2.9909 H         1 RES1    0.0000
     44 H19       -1.8938    4.0011    2.0548 H         1 RES1    0.0000
     45 H20        0.4608    0.8378    1.0497 H         1 RES1    0.0000
     46 H21        2.3310    1.9437    1.9689 H         1 RES1    0.0000
@<TRIPOS>BOND
     1    1    3 1
     2    2    3 1
     3    3    4 1
     4    4    5 1
     5    5    6 1
     6    6    7 2
     7    7   36 1
     8    8    5 1
     9    9    8 ar
    10   10    9 ar
    11   11   10 ar
    12   12   11 ar
    13   13    8 ar
    14   14    4 1
    15   15   16 2
    16   16   14 1
    17   17   16 1
    18   18   17 ar
    19   19   18 ar
    20   20   19 ar
    21   21   20 ar
    22   22   17 ar
    23   23   20 1
    24   24   23 2
    25   25   23 2
    26   26    1 1
    27   27    1 1
    28   28    1 1
    29   29    2 1
    30   30    2 1
    31   31    2 1
    32   32    3 1
    33   33    4 1
    34   34    5 1
    35   35    6 1
    36   37    7 1
    37   38    9 1
    38   39   10 1
    39   40   11 1
    40   41   12 1
    41   42   13 1
    42   43   18 1
    43   44   19 1
    44   45   21 1
    45   46   22 1
    46   12   13 ar
    47   21   22 ar
@<TRIPOS>SUBSTRUCTURE
     1 RES1 1

@<TRIPOS>CRYSIN
  19.5210    6.0140   15.4540  90.0000  96.7800  90.0000  14 1

