# MOL2 file generated by ConQuest
# Please check atom types

@<TRIPOS>MOLECULE
TAJFER
    64    64     1
SMALL
NO_CHARGES
****
Generated from CSD

@<TRIPOS>ATOM
      1 C1         4.0610   10.9469   15.9741 C.3       1 RES1    0.0000
      2 H1         4.6252   10.4587   15.3376 H         1 RES1    0.0000
      3 C2         4.7010   12.2853   16.2709 C.3       1 RES1    0.0000
      4 H2         4.1481   12.8036   16.8936 H         1 RES1    0.0000
      5 C3         6.0761   12.0574   16.8412 C.3       1 RES1    0.0000
      6 H3         6.6427   11.6398   16.1588 H         1 RES1    0.0000
      7 C4         5.9938   11.1505   18.0427 C.3       1 RES1    0.0000
      8 H4         5.5452   11.6097   18.7817 H         1 RES1    0.0000
      9 C5         5.2554    9.8711   17.6985 C.3       1 RES1    0.0000
     10 H5         5.7594    9.3933   17.0070 H         1 RES1    0.0000
     11 C6         5.0519    8.9491   18.8655 C.3       1 RES1    0.0000
     12 H6         4.4535    8.2284   18.6142 H         1 RES1    0.0000
     13 H7         5.9002    8.5627   19.1302 H         1 RES1    0.0000
     14 C7         2.3041   10.3939   14.3760 C.2       1 RES1    0.0000
     15 C8         0.8695   10.6403   14.0167 C.3       1 RES1    0.0000
     16 H8         0.3061   10.1175   14.6083 H         1 RES1    0.0000
     17 H9         0.6660   11.5762   14.1680 H         1 RES1    0.0000
     18 C9         0.5284   10.3002   12.6094 C.3       1 RES1    0.0000
     19 H10        0.6872    9.3436   12.4635 H         1 RES1    0.0000
     20 C10       -0.9167   10.6068   12.3150 C.2       1 RES1    0.0000
     21 C11       -2.6428   10.4749   10.7104 C.3       1 RES1    0.0000
     22 H11       -3.1931   10.3546   11.4992 H         1 RES1    0.0000
     23 H12       -2.7852   11.3784   10.3863 H         1 RES1    0.0000
     24 C12       -3.0262    9.6420    9.8028 C.3       1 RES1    0.0000
     25 H13       -3.9568    9.7808    9.6137 H         1 RES1    0.0000
     26 H14       -2.8943    8.7443   10.1161 H         1 RES1    0.0000
     27 H15       -2.5125    9.7797    9.0032 H         1 RES1    0.0000
     28 C13        3.9536   13.9326   14.6920 C.2       1 RES1    0.0000
     29 C14        4.0806   14.3525   13.2820 C.3       1 RES1    0.0000
     30 H16        4.8133   13.8875   12.8741 H         1 RES1    0.0000
     31 H17        4.2401   15.2988   13.2415 H         1 RES1    0.0000
     32 H18        3.2689   14.1466   12.8120 H         1 RES1    0.0000
     33 C15        7.9552   13.5335   17.0124 C.2       1 RES1    0.0000
     34 C16        8.3834   14.8592   17.4608 C.3       1 RES1    0.0000
     35 H19        7.6287   15.3381   17.8093 H         1 RES1    0.0000
     36 H20        8.7563   15.3428   16.7207 H         1 RES1    0.0000
     37 H21        9.0469   14.7644   18.1496 H         1 RES1    0.0000
     38 C17        7.9136   11.3714   19.4678 C.2       1 RES1    0.0000
     39 C18        9.3140   10.8671   19.6893 C.3       1 RES1    0.0000
     40 H22        9.5289   10.2135   19.0194 H         1 RES1    0.0000
     41 H23        9.3759   10.4645   20.5591 H         1 RES1    0.0000
     42 H24        9.9311   11.6005   19.6299 H         1 RES1    0.0000
     43 C19        4.3761    9.0948   21.1075 C.2       1 RES1    0.0000
     44 C20        3.8730   10.0110   22.1529 C.3       1 RES1    0.0000
     45 H25        3.7289   10.8810   21.7747 H         1 RES1    0.0000
     46 H26        4.5178   10.0735   22.8606 H         1 RES1    0.0000
     47 H27        3.0450    9.6732   22.5040 H         1 RES1    0.0000
     48 N1         2.7502   11.0741   15.4271 N.am      1 RES1    0.0000
     49 N2         1.3751   11.0811   11.6559 N.pl3     1 RES1    0.0000
     50 O1         4.8557   12.9840   15.0248 O.3       1 RES1    0.0000
     51 O2         6.6346   13.3369   17.2050 O.3       1 RES1    0.0000
     52 O3         7.3283   10.7630   18.4327 O.3       1 RES1    0.0000
     53 O4         3.9658   10.1950   17.1807 O.3       1 RES1    0.0000
     54 O5         4.4974    9.6813   19.9446 O.3       1 RES1    0.0000
     55 O6         3.1329   14.3340   15.4676 O.2       1 RES1    0.0000
     56 O7         8.6570   12.6902   16.5327 O.2       1 RES1    0.0000
     57 O8         7.3388   12.1847   20.1134 O.2       1 RES1    0.0000
     58 O9         4.6741    7.9450   21.2615 O.2       1 RES1    0.0000
     59 O10        3.0051    9.6189   13.7439 O.2       1 RES1    0.0000
     60 O11       -1.6861   10.9723   13.1658 O.2       1 RES1    0.0000
     61 O12       -1.2180   10.3211   11.0886 O.3       1 RES1    0.0000
     62 O13        1.6536   12.2240   11.9244 O.2       1 RES1    0.0000
     63 O14        1.7610   10.5247   10.6583 O.2       1 RES1    0.0000
     64 H28        2.2552   11.5334   15.7887 H         1 RES1    0.0000
@<TRIPOS>BOND
     1    1    2 1
     2    3    1 1
     3    4    3 1
     4    5    3 1
     5    6    5 1
     6    7    5 1
     7    8    7 1
     8    9    7 1
     9   10    9 1
    10   11    9 1
    11   12   11 1
    12   13   11 1
    13   14   15 1
    14   15   16 1
    15   17   15 1
    16   18   15 1
    17   19   18 1
    18   20   18 1
    19   21   22 1
    20   23   21 1
    21   24   21 1
    22   25   24 1
    23   26   24 1
    24   27   24 1
    25   28   29 1
    26   29   30 1
    27   31   29 1
    28   32   29 1
    29   33   34 1
    30   34   35 1
    31   36   34 1
    32   37   34 1
    33   38   39 1
    34   39   40 1
    35   41   39 1
    36   42   39 1
    37   43   44 1
    38   44   45 1
    39   46   44 1
    40   47   44 1
    41   48    1 1
    42   49   18 1
    43   50    3 1
    44   51    5 1
    45   52    7 1
    46   53    1 1
    47   54   11 1
    48   55   28 2
    49   56   33 2
    50   57   38 2
    51   58   43 2
    52   59   14 2
    53   60   20 2
    54   61   20 1
    55   62   49 2
    56   63   49 2
    57   64   48 1
    58    9   53 1
    59   14   48 1
    60   21   61 1
    61   28   50 1
    62   33   51 1
    63   38   52 1
    64   43   54 1
@<TRIPOS>SUBSTRUCTURE
     1 RES1 1

@<TRIPOS>CRYSIN
   8.1416   11.5681   27.0124  90.0000  90.0000  90.0000  19 1

