# MOL2 file generated by ConQuest
# Please check atom types

@<TRIPOS>MOLECULE
TAJKIY
   124   126     2
SMALL
NO_CHARGES
****
Generated from CSD

@<TRIPOS>ATOM
      1 O1         5.1808    1.6626    9.6797 O.2       1 RES1    0.0000
      2 O2         4.9157    4.1434    9.7553 O.2       1 RES1    0.0000
      3 O3         2.2736    2.3616   17.5333 O.2       2 RES2    0.0000
      4 O4         2.3984    4.4941   17.4243 O.2       2 RES2    0.0000
      5 N1         4.7581    2.8705    9.0427 N.pl3     1 RES1    0.0000
      6 N2        -1.6544    2.4124   -1.3299 N.3       1 RES1    0.0000
      7 N3         2.1544    3.3960   16.9326 N.pl3     2 RES2    0.0000
      8 N4        -4.2419    3.6298    6.6327 N.3       2 RES2    0.0000
      9 C1         4.1806    2.8717    7.7916 C.ar      1 RES1    0.0000
     10 C2         3.8056    4.0360    7.1319 C.ar      1 RES1    0.0000
     11 C3         3.2649    4.0242    5.8717 C.ar      1 RES1    0.0000
     12 C4         3.0147    2.8540    5.1772 C.ar      1 RES1    0.0000
     13 C5         3.4145    1.6779    5.8505 C.ar      1 RES1    0.0000
     14 C6         3.9540    1.6885    7.1107 C.ar      1 RES1    0.0000
     15 C7         2.3394    2.8540    3.8005 C.3       1 RES1    0.0000
     16 C8         2.9142    4.0513    2.9699 C.3       1 RES1    0.0000
     17 C9         4.4372    4.0667    2.8473 C.3       1 RES1    0.0000
     18 C10        2.7317    1.5291    3.0380 C.3       1 RES1    0.0000
     19 C11        2.7388    1.5244    1.5175 C.3       1 RES1    0.0000
     20 C12        0.7280    2.9697    3.9623 C.3       1 RES1    0.0000
     21 C13        0.1670    1.8550    4.8913 C.3       1 RES1    0.0000
     22 C14        0.2270    2.0546    6.4269 C.3       1 RES1    0.0000
     23 C15        0.3215    4.3501    4.5630 C.3       1 RES1    0.0000
     24 C16       -1.1712    4.5437    4.7067 C.3       1 RES1    0.0000
     25 C17        0.0858    2.8138    2.5765 C.ar      1 RES1    0.0000
     26 C18       -0.0682    3.9108    1.7217 C.ar      1 RES1    0.0000
     27 C19       -0.6470    3.7939    0.4614 C.ar      1 RES1    0.0000
     28 C20       -1.0803    2.5493    0.0272 C.ar      1 RES1    0.0000
     29 C21       -0.9588    1.4689    0.8442 C.ar      1 RES1    0.0000
     30 C22       -0.3979    1.5929    2.1015 C.ar      1 RES1    0.0000
     31 C23       -1.8222    3.4149   -1.9698 C.3       1 RES1    0.0000
     32 C24       -1.9191    1.2977   -1.7202 C.3       1 RES1    0.0000
     33 C25        1.5837    3.3877   15.5665 C.ar      2 RES2    0.0000
     34 C26        1.4804    4.5425   14.8584 C.ar      2 RES2    0.0000
     35 C27        0.9491    4.5095   13.5921 C.ar      2 RES2    0.0000
     36 C28        0.4629    3.3098   13.0172 C.ar      2 RES2    0.0000
     37 C29        0.6232    2.1455   13.7873 C.ar      2 RES2    0.0000
     38 C30        1.1656    2.1550   15.0460 C.ar      2 RES2    0.0000
     39 C31       -0.2236    3.2708   11.6450 C.3       2 RES2    0.0000
     40 C32        0.2742    4.4764   10.7871 C.3       2 RES2    0.0000
     41 C33        0.2839    4.3938    9.3015 C.3       2 RES2    0.0000
     42 C34        0.1771    1.9755   10.9082 C.3       2 RES2    0.0000
     43 C35        1.6939    1.7606   10.7508 C.3       2 RES2    0.0000
     44 C36       -1.8335    3.3310   11.8704 C.3       2 RES2    0.0000
     45 C37       -2.2330    4.5969   12.7267 C.3       2 RES2    0.0000
     46 C38       -2.2112    4.4752   14.2563 C.3       2 RES2    0.0000
     47 C39       -2.3557    2.0912   12.6072 C.3       2 RES2    0.0000
     48 C40       -3.8561    2.0310   12.7328 C.3       2 RES2    0.0000
     49 C41       -2.5226    3.4574   10.4891 C.ar      2 RES2    0.0000
     50 C42       -2.8881    4.6217    9.9263 C.ar      2 RES2    0.0000
     51 C43       -3.4643    4.7114    8.6524 C.ar      2 RES2    0.0000
     52 C44       -3.6886    3.5542    7.8717 C.ar      2 RES2    0.0000
     53 C45       -3.3219    2.3616    8.4603 C.ar      2 RES2    0.0000
     54 C46       -2.7539    2.2931    9.7145 C.ar      2 RES2    0.0000
     55 C47       -4.6184    4.8436    6.0351 C.3       2 RES2    0.0000
     56 C48       -4.4618    2.4679    5.8626 C.3       2 RES2    0.0000
     57 H1         3.9420    4.8684    7.5888 H         1 RES1    0.0000
     58 H2         3.0258    4.8531    5.4571 H         1 RES1    0.0000
     59 H3         3.2919    0.8466    5.3981 H         1 RES1    0.0000
     60 H4         4.1881    0.8691    7.5162 H         1 RES1    0.0000
     61 H5         0.2461    4.7539    2.0228 H         1 RES1    0.0000
     62 H6        -0.7637    4.5567   -0.0847 H         1 RES1    0.0000
     63 H7        -1.2617    0.6117    0.5447 H         1 RES1    0.0000
     64 H8        -0.3423    0.8395    2.6870 H         1 RES1    0.0000
     65 H9         1.7681    5.3726   15.2412 H         2 RES2    0.0000
     66 H10        0.9034    5.3171   13.0959 H         2 RES2    0.0000
     67 H11        0.3406    1.3237   13.4196 H         2 RES2    0.0000
     68 H12        1.2651    1.3449   15.5513 H         2 RES2    0.0000
     69 H13       -2.7619    5.4458   10.4044 H         2 RES2    0.0000
     70 H14       -3.6894    5.5687    8.2969 H         2 RES2    0.0000
     71 H15       -3.4529    1.5551    8.0049 H         2 RES2    0.0000
     72 H16       -2.5244    1.4500   10.0776 H         2 RES2    0.0000
     73 H17        2.6331    4.8755    3.3632 H         1 RES1    0.0000
     74 H18        2.5607    4.0147    2.0742 H         1 RES1    0.0000
     75 H19        3.5940    1.2894    3.3042 H         1 RES1    0.0000
     76 H20        2.1029    0.8632    3.2982 H         1 RES1    0.0000
     77 H21        0.6891    1.0840    4.7037 H         1 RES1    0.0000
     78 H22       -0.7214    1.7299    4.6568 H         1 RES1    0.0000
     79 H23        0.7239    4.4445    5.4132 H         1 RES1    0.0000
     80 H24        0.6646    5.0349    3.9790 H         1 RES1    0.0000
     81 H25       -0.2689    5.2463   10.9959 H         2 RES2    0.0000
     82 H26        1.1757    4.6831   11.0504 H         2 RES2    0.0000
     83 H27       -0.2027    1.2387   11.3590 H         2 RES2    0.0000
     84 H28       -0.2096    2.0203   10.0186 H         2 RES2    0.0000
     85 H29       -1.6556    5.3230   12.4862 H         2 RES2    0.0000
     86 H30       -3.1315    4.8472   12.4680 H         2 RES2    0.0000
     87 H31       -2.0586    1.3331   12.1412 H         2 RES2    0.0000
     88 H32       -1.9813    2.1065   13.4847 H         2 RES2    0.0000
     89 H33        4.7300    4.8188    2.3481 H         1 RES1    0.0000
     90 H34        4.8162    4.1316    3.7354 H         1 RES1    0.0000
     91 H35        4.7437    3.2708    2.4464 H         1 RES1    0.0000
     92 H36        2.9753    0.6672    1.2028 H         1 RES1    0.0000
     93 H37        1.8602    1.7452    1.1952 H         1 RES1    0.0000
     94 H38        3.3519    2.1727    1.2028 H         1 RES1    0.0000
     95 H39       -0.1352    1.3001    6.8399 H         1 RES1    0.0000
     96 H40        1.1292    2.1868    6.6917 H         1 RES1    0.0000
     97 H41       -0.2800    2.8327    6.6448 H         1 RES1    0.0000
     98 H42       -1.3651    5.4104    5.0577 H         1 RES1    0.0000
     99 H43       -1.5979    4.4752    3.8413 H         1 RES1    0.0000
    100 H44       -1.5397    3.8848    5.2756 H         1 RES1    0.0000
    101 H45       -1.5641    4.1694   -1.4615 H         1 RES1    0.0000
    102 H46       -1.3030    3.3606   -2.7596 H         1 RES1    0.0000
    103 H47       -2.7462    3.4893   -2.2013 H         1 RES1    0.0000
    104 H48       -2.2873    1.3721   -2.6083 H         1 RES1    0.0000
    105 H49       -1.1292    0.7923   -1.7550 H         1 RES1    0.0000
    106 H50       -2.5546    0.9021   -1.1544 H         1 RES1    0.0000
    107 H51        0.6258    5.2061    8.9338 H         2 RES2    0.0000
    108 H52        0.8574    3.6770    9.0488 H         2 RES2    0.0000
    109 H53       -0.5860    4.2391    8.9943 H         2 RES2    0.0000
    110 H54        1.8528    0.9541   10.2849 H         2 RES2    0.0000
    111 H55        2.0708    2.4903   10.2818 H         2 RES2    0.0000
    112 H56        2.0778    1.7086   11.6223 H         2 RES2    0.0000
    113 H57       -2.4927    5.3112   14.6345 H         2 RES2    0.0000
    114 H58       -2.8193    3.7998   14.5120 H         2 RES2    0.0000
    115 H59       -1.3434    4.2757   14.5301 H         2 RES2    0.0000
    116 H60       -4.1072    1.2540   13.2033 H         2 RES2    0.0000
    117 H61       -4.1732    2.8032   13.2108 H         2 RES2    0.0000
    118 H62       -4.2511    2.0298   11.8689 H         2 RES2    0.0000
    119 H63       -4.4005    5.5663    6.6039 H         2 RES2    0.0000
    120 H64       -4.1628    4.9393    5.2045 H         2 RES2    0.0000
    121 H65       -5.5536    4.8200    5.8822 H         2 RES2    0.0000
    122 H66       -4.8618    2.7229    5.0350 H         2 RES2    0.0000
    123 H67       -3.6838    1.9920    5.7310 H         2 RES2    0.0000
    124 H68       -5.1084    1.9247    6.3422 H         2 RES2    0.0000
@<TRIPOS>BOND
     1    1    5 2
     2    2    5 2
     3    3    7 2
     4    4    7 2
     5    5    9 1
     6    6   28 1
     7    7   33 1
     8    8   52 1
     9    9   10 ar
    10   10   11 ar
    11   11   12 ar
    12   12   13 ar
    13   13   14 ar
    14   14    9 ar
    15   15   12 1
    16   16   15 1
    17   17   16 1
    18   18   15 1
    19   19   18 1
    20   20   15 1
    21   21   20 1
    22   22   21 1
    23   23   20 1
    24   24   23 1
    25   25   20 1
    26   26   25 ar
    27   27   26 ar
    28   28   27 ar
    29   29   28 ar
    30   30   25 ar
    31   31    6 1
    32   32    6 1
    33   33   34 ar
    34   34   35 ar
    35   35   36 ar
    36   36   37 ar
    37   37   38 ar
    38   38   33 ar
    39   39   36 1
    40   40   39 1
    41   41   40 1
    42   42   39 1
    43   43   42 1
    44   44   39 1
    45   45   44 1
    46   46   45 1
    47   47   44 1
    48   48   47 1
    49   49   44 1
    50   50   49 ar
    51   51   50 ar
    52   52   51 ar
    53   53   52 ar
    54   54   49 ar
    55   55    8 1
    56   56    8 1
    57   57   10 1
    58   58   11 1
    59   59   13 1
    60   60   14 1
    61   61   26 1
    62   62   27 1
    63   63   29 1
    64   64   30 1
    65   65   34 1
    66   66   35 1
    67   67   37 1
    68   68   38 1
    69   69   50 1
    70   70   51 1
    71   71   53 1
    72   72   54 1
    73   73   16 1
    74   74   16 1
    75   75   18 1
    76   76   18 1
    77   77   21 1
    78   78   21 1
    79   79   23 1
    80   80   23 1
    81   81   40 1
    82   82   40 1
    83   83   42 1
    84   84   42 1
    85   85   45 1
    86   86   45 1
    87   87   47 1
    88   88   47 1
    89   89   17 1
    90   90   17 1
    91   91   17 1
    92   92   19 1
    93   93   19 1
    94   94   19 1
    95   95   22 1
    96   96   22 1
    97   97   22 1
    98   98   24 1
    99   99   24 1
   100  100   24 1
   101  101   31 1
   102  102   31 1
   103  103   31 1
   104  104   32 1
   105  105   32 1
   106  106   32 1
   107  107   41 1
   108  108   41 1
   109  109   41 1
   110  110   43 1
   111  111   43 1
   112  112   43 1
   113  113   46 1
   114  114   46 1
   115  115   46 1
   116  116   48 1
   117  117   48 1
   118  118   48 1
   119  119   55 1
   120  120   55 1
   121  121   55 1
   122  122   56 1
   123  123   56 1
   124  124   56 1
   125   29   30 ar
   126   53   54 ar
@<TRIPOS>SUBSTRUCTURE
     1 RES1 1
     2 RES2 3

@<TRIPOS>CRYSIN
  11.9180   11.8080   16.1270  90.0000 110.2600  90.0000   4 1

