# MOL2 file generated by ConQuest
# Please check atom types

@<TRIPOS>MOLECULE
TAJKOE
    80    81     1
SMALL
NO_CHARGES
****
Generated from CSD

@<TRIPOS>ATOM
      1 O1         5.5967    4.5322    3.3219 O.2       1 RES1    0.0000
      2 O2         5.4431    6.7198    3.3434 O.2       1 RES1    0.0000
      3 N1         4.9233    5.6303    3.2683 N.2       1 RES1    0.0000
      4 C1         0.8671    5.2867    2.9896 C.2       1 RES1    0.0000
      5 C2         1.4722    6.5231    2.7951 C.2       1 RES1    0.0000
      6 C3         2.8224    6.6775    2.8318 C.2       1 RES1    0.0000
      7 C4         3.6261    5.5743    3.0524 C.2       1 RES1    0.0000
      8 C5         3.0659    4.3392    3.2086 C.2       1 RES1    0.0000
      9 C6         1.7017    4.2047    3.1519 C.2       1 RES1    0.0000
     10 C7        -0.6544    5.1360    3.0447 C.3       1 RES1    0.0000
     11 C8        -1.3070    6.3151    2.2636 C.3       1 RES1    0.0000
     12 C9        -2.6958    6.1757    1.6755 C.3       1 RES1    0.0000
     13 C10       -3.0974    7.4370    0.9082 C.3       1 RES1    0.0000
     14 C11       -4.5101    7.4868    0.4886 C.3       1 RES1    0.0000
     15 C12       -1.0583    3.8187    2.3433 C.3       1 RES1    0.0000
     16 C13       -0.6224    3.6730    0.9006 C.3       1 RES1    0.0000
     17 C14       -1.1220    2.4018    0.2696 C.3       1 RES1    0.0000
     18 C15       -0.7603    2.1864   -1.1150 C.3       1 RES1    0.0000
     19 H1         0.9300    7.2739    2.6174 H         1 RES1    0.0000
     20 H2         3.1765    7.5677    2.6925 H         1 RES1    0.0000
     21 H3         3.6067    3.5635    3.3740 H         1 RES1    0.0000
     22 H4         1.3566    3.3306    3.2331 H         1 RES1    0.0000
     23 H5        -0.7199    6.4920    1.5224 H         1 RES1    0.0000
     24 H6        -1.3040    7.0585    2.8441 H         1 RES1    0.0000
     25 H7        -3.3270    6.0649    2.4015 H         1 RES1    0.0000
     26 H8        -2.7486    5.4286    1.1104 H         1 RES1    0.0000
     27 H9        -2.5286    7.4992    0.1271 H         1 RES1    0.0000
     28 H10       -2.9322    8.2052    1.4488 H         1 RES1    0.0000
     29 H11       -4.7032    8.2301   -0.0153 H         1 RES1    0.0000
     30 H12       -4.6707    6.6812   -0.0873 H         1 RES1    0.0000
     31 H13       -5.0739    7.3872    1.2329 H         1 RES1    0.0000
     32 H14       -2.0025    3.7453    2.3617 H         1 RES1    0.0000
     33 H15       -0.6785    3.0916    2.8364 H         1 RES1    0.0000
     34 H16        0.3408    3.6457    0.8684 H         1 RES1    0.0000
     35 H17       -0.9189    4.4214    0.4028 H         1 RES1    0.0000
     36 H18       -2.1066    2.4603    0.2941 H         1 RES1    0.0000
     37 H19       -0.8748    1.6722    0.8117 H         1 RES1    0.0000
     38 H20       -1.1105    1.3460   -1.4427 H         1 RES1    0.0000
     39 H21       -1.0087    2.8749   -1.6832 H         1 RES1    0.0000
     40 H22        0.2227    2.0868   -1.1640 H         1 RES1    0.0000
     41 C7B       -1.1149    5.1360    4.6130 C.3       1 RES1    0.0000
     42 C1B       -2.6364    5.2867    4.6682 C.2       1 RES1    0.0000
     43 C2B       -3.2416    6.5231    4.8627 C.2       1 RES1    0.0000
     44 C3B       -4.5917    6.6775    4.8259 C.2       1 RES1    0.0000
     45 C4B       -5.3955    5.5743    4.6054 C.2       1 RES1    0.0000
     46 N1B       -6.6927    5.6303    4.3894 N.2       1 RES1    0.0000
     47 O1B       -7.3661    4.5322    4.3358 O.2       1 RES1    0.0000
     48 O2B       -7.2124    6.7198    4.3144 O.2       1 RES1    0.0000
     49 C5B       -4.8353    4.3392    4.4492 C.2       1 RES1    0.0000
     50 C6B       -3.4710    4.2047    4.5058 C.2       1 RES1    0.0000
     51 H4B       -3.1259    3.3306    4.4246 H         1 RES1    0.0000
     52 H3B       -5.3760    3.5635    4.2837 H         1 RES1    0.0000
     53 H2B       -4.9459    7.5677    4.9653 H         1 RES1    0.0000
     54 H1B       -2.6993    7.2739    5.0403 H         1 RES1    0.0000
     55 C8B       -0.4623    6.3151    5.3941 C.3       1 RES1    0.0000
     56 C9B        0.9264    6.1757    5.9822 C.3       1 RES1    0.0000
     57 C10B       1.3281    7.4370    6.7495 C.3       1 RES1    0.0000
     58 C11B       2.7408    7.4868    7.1692 C.3       1 RES1    0.0000
     59 H11B       2.9339    8.2301    7.6731 H         1 RES1    0.0000
     60 H12B       2.9014    6.6812    7.7451 H         1 RES1    0.0000
     61 H13B       3.3046    7.3872    6.4249 H         1 RES1    0.0000
     62 H9B        0.7592    7.4992    7.5306 H         1 RES1    0.0000
     63 H10B       1.1628    8.2052    6.2089 H         1 RES1    0.0000
     64 H7B        1.5576    6.0649    5.2563 H         1 RES1    0.0000
     65 H8B        0.9792    5.4286    6.5474 H         1 RES1    0.0000
     66 H5B       -1.0494    6.4920    6.1354 H         1 RES1    0.0000
     67 H6B       -0.4654    7.0585    4.8137 H         1 RES1    0.0000
     68 C12B      -0.7110    3.8187    5.3145 C.3       1 RES1    0.0000
     69 C13B      -1.1469    3.6730    6.7572 C.3       1 RES1    0.0000
     70 C14B      -0.6473    2.4018    7.3882 C.3       1 RES1    0.0000
     71 C15B      -1.0091    2.1864    8.7727 C.3       1 RES1    0.0000
     72 H20B      -0.6589    1.3460    9.1005 H         1 RES1    0.0000
     73 H21B      -0.7606    2.8749    9.3409 H         1 RES1    0.0000
     74 H22B      -1.9921    2.0868    8.8217 H         1 RES1    0.0000
     75 H18B       0.3372    2.4603    7.3637 H         1 RES1    0.0000
     76 H19B      -0.8945    1.6722    6.8460 H         1 RES1    0.0000
     77 H16B      -2.1101    3.6457    6.7894 H         1 RES1    0.0000
     78 H17B      -0.8504    4.4214    7.2550 H         1 RES1    0.0000
     79 H14B       0.2331    3.7453    5.2961 H         1 RES1    0.0000
     80 H15B      -1.0909    3.0916    4.8213 H         1 RES1    0.0000
@<TRIPOS>BOND
     1    1    3 1
     2    2    3 1
     3    3    7 1
     4    4    5 1
     5    5    6 1
     6    6    7 1
     7    7    8 1
     8    8    9 1
     9    9    4 1
    10   10    4 1
    11   11   10 1
    12   12   11 1
    13   13   12 1
    14   14   13 1
    15   15   10 1
    16   16   15 1
    17   17   16 1
    18   18   17 1
    19   19    5 1
    20   20    6 1
    21   21    8 1
    22   22    9 1
    23   23   11 1
    24   24   11 1
    25   25   12 1
    26   26   12 1
    27   27   13 1
    28   28   13 1
    29   29   14 1
    30   30   14 1
    31   31   14 1
    32   32   15 1
    33   33   15 1
    34   34   16 1
    35   35   16 1
    36   36   17 1
    37   37   17 1
    38   38   18 1
    39   39   18 1
    40   40   18 1
    41   41   10 1
    42   42   41 1
    43   43   42 1
    44   44   43 1
    45   45   44 1
    46   46   45 1
    47   47   46 1
    48   48   46 1
    49   49   45 1
    50   50   42 1
    51   51   50 1
    52   52   49 1
    53   53   44 1
    54   54   43 1
    55   55   41 1
    56   56   55 1
    57   57   56 1
    58   58   57 1
    59   59   58 1
    60   60   58 1
    61   61   58 1
    62   62   57 1
    63   63   57 1
    64   64   56 1
    65   65   56 1
    66   66   55 1
    67   67   55 1
    68   68   41 1
    69   69   68 1
    70   70   69 1
    71   71   70 1
    72   72   71 1
    73   73   71 1
    74   74   71 1
    75   75   70 1
    76   76   70 1
    77   77   69 1
    78   78   69 1
    79   79   68 1
    80   80   68 1
    81   49   50 1
@<TRIPOS>SUBSTRUCTURE
     1 RES1 1

@<TRIPOS>CRYSIN
  14.4380   12.4510   15.7190  90.0000 103.0100  90.0000  15 1

