# MOL2 file generated by ConQuest
# Please check atom types

@<TRIPOS>MOLECULE
TAJKEU
    56    57     1
SMALL
NO_CHARGES
****
Generated from CSD

@<TRIPOS>ATOM
      1 O1         3.8633    1.7378    1.8366 O.2       1 RES1    0.0000
      2 O2         5.4145    3.1653    1.4315 O.2       1 RES1    0.0000
      3 N1         5.0269    2.0235    1.6570 N.pl3     1 RES1    0.0000
      4 C1         6.0129    0.9383    1.6975 C.ar      1 RES1    0.0000
      5 C2         7.2840    1.1747    1.2181 C.ar      1 RES1    0.0000
      6 C3         8.1903    0.1346    1.2228 C.ar      1 RES1    0.0000
      7 C4         7.8697   -1.1418    1.7040 C.ar      1 RES1    0.0000
      8 C5         6.5726   -1.3052    2.2050 C.ar      1 RES1    0.0000
      9 C6         5.6466   -0.2888    2.1984 C.ar      1 RES1    0.0000
     10 C7         8.8741   -2.3144    1.6589 C.3       1 RES1    0.0000
     11 C8         9.7533   -2.0945    0.3750 C.3       1 RES1    0.0000
     12 C9        10.5934   -3.2331   -0.2030 C.3       1 RES1    0.0000
     13 C10        8.1194   -3.6607    1.4944 C.3       1 RES1    0.0000
     14 C11        7.2123   -3.7645    0.2660 C.3       1 RES1    0.0000
     15 H1         7.4937    2.0451    0.8647 H         1 RES1    0.0000
     16 H2         9.0866    0.2775    0.9305 H         1 RES1    0.0000
     17 H3         6.2863   -2.1171    2.5377 H         1 RES1    0.0000
     18 H4         4.7908   -0.4111    2.5189 H         1 RES1    0.0000
     19 H5        10.3675   -1.3874    0.5075 H         1 RES1    0.0000
     20 H6         9.1026   -1.7882   -0.3290 H         1 RES1    0.0000
     21 H7        11.4202   -3.4428    0.3666 H         1 RES1    0.0000
     22 H8        10.9057   -2.9598   -1.0903 H         1 RES1    0.0000
     23 H9        10.0575   -4.0080   -0.3102 H         1 RES1    0.0000
     24 H10        7.5785   -3.8539    2.2840 H         1 RES1    0.0000
     25 H11        8.7718   -4.3574    1.4662 H         1 RES1    0.0000
     26 H12        6.5921   -3.0523    0.2538 H         1 RES1    0.0000
     27 H13        7.7348   -3.7614   -0.5639 H         1 RES1    0.0000
     28 H14        6.8157   -4.5630    0.2820 H         1 RES1    0.0000
     29 C7B        9.7390   -2.3144    3.0406 C.3       1 RES1    0.0000
     30 C4B       10.7434   -1.1418    2.9955 C.ar      1 RES1    0.0000
     31 C8B        8.8597   -2.0945    4.3245 C.3       1 RES1    0.0000
     32 C10B      10.4937   -3.6607    3.2051 C.3       1 RES1    0.0000
     33 C3B       10.4228    0.1346    3.4767 C.ar      1 RES1    0.0000
     34 C5B       12.0405   -1.3052    2.4945 C.ar      1 RES1    0.0000
     35 C9B        8.0197   -3.2331    4.9025 C.3       1 RES1    0.0000
     36 H5B        8.2455   -1.3874    4.1920 H         1 RES1    0.0000
     37 H6B        9.5105   -1.7882    5.0285 H         1 RES1    0.0000
     38 C11B      11.4007   -3.7645    4.4335 C.3       1 RES1    0.0000
     39 H10B      11.0346   -3.8539    2.4155 H         1 RES1    0.0000
     40 H11B       9.8412   -4.3574    3.2333 H         1 RES1    0.0000
     41 C2B       11.3291    1.1747    3.4814 C.ar      1 RES1    0.0000
     42 H2B        9.5265    0.2775    3.7690 H         1 RES1    0.0000
     43 C6B       12.9665   -0.2888    2.5011 C.ar      1 RES1    0.0000
     44 H3B       12.3268   -2.1171    2.1618 H         1 RES1    0.0000
     45 H7B        7.1929   -3.4428    4.3329 H         1 RES1    0.0000
     46 H8B        7.7074   -2.9598    5.7898 H         1 RES1    0.0000
     47 H9B        8.5556   -4.0080    5.0097 H         1 RES1    0.0000
     48 H12B      12.0209   -3.0523    4.4457 H         1 RES1    0.0000
     49 H13B      10.8782   -3.7614    5.2634 H         1 RES1    0.0000
     50 H14B      11.7973   -4.5630    4.4175 H         1 RES1    0.0000
     51 C1B       12.6001    0.9383    3.0020 C.ar      1 RES1    0.0000
     52 H1B       11.1194    2.0451    3.8348 H         1 RES1    0.0000
     53 H4B       13.8223   -0.4111    2.1806 H         1 RES1    0.0000
     54 N1B       13.5862    2.0235    3.0425 N.pl3     1 RES1    0.0000
     55 O1B       14.7498    1.7378    2.8629 O.2       1 RES1    0.0000
     56 O2B       13.1986    3.1653    3.2680 O.2       1 RES1    0.0000
@<TRIPOS>BOND
     1    1    3 2
     2    2    3 2
     3    3    4 1
     4    4    5 ar
     5    5    6 ar
     6    6    7 ar
     7    7    8 ar
     8    8    9 ar
     9    9    4 ar
    10   10    7 1
    11   11   10 1
    12   12   11 1
    13   13   10 1
    14   14   13 1
    15   15    5 1
    16   16    6 1
    17   17    8 1
    18   18    9 1
    19   19   11 1
    20   20   11 1
    21   21   12 1
    22   22   12 1
    23   23   12 1
    24   24   13 1
    25   25   13 1
    26   26   14 1
    27   27   14 1
    28   28   14 1
    29   29   10 1
    30   30   29 1
    31   31   29 1
    32   32   29 1
    33   33   30 ar
    34   34   30 ar
    35   35   31 1
    36   36   31 1
    37   37   31 1
    38   38   32 1
    39   39   32 1
    40   40   32 1
    41   41   33 ar
    42   42   33 1
    43   43   34 ar
    44   44   34 1
    45   45   35 1
    46   46   35 1
    47   47   35 1
    48   48   38 1
    49   49   38 1
    50   50   38 1
    51   51   41 ar
    52   52   41 1
    53   53   43 1
    54   54   51 1
    55   55   54 2
    56   56   54 2
    57   43   51 ar
@<TRIPOS>SUBSTRUCTURE
     1 RES1 1

@<TRIPOS>CRYSIN
  21.1150   10.2770   10.6480  90.0000 118.0300  90.0000  15 1

