# MOL2 file generated by ConQuest
# Please check atom types

@<TRIPOS>MOLECULE
TAJLAR
    54    55     1
SMALL
NO_CHARGES
****
Generated from CSD

@<TRIPOS>ATOM
      1 O1        10.0067    2.9010   12.4731 O.2       1 RES1    0.0000
      2 O2         9.2360    4.2118   10.9616 O.2       1 RES1    0.0000
      3 N1         9.2303    3.1570   11.5770 N.pl3     1 RES1    0.0000
      4 C1         8.2751    2.1242   11.1815 C.ar      1 RES1    0.0000
      5 C2         7.2888    2.4327   10.2739 C.ar      1 RES1    0.0000
      6 C3         6.4108    1.4572    9.9014 C.ar      1 RES1    0.0000
      7 C4         6.4823    0.1512   10.3970 C.ar      1 RES1    0.0000
      8 C5         7.5203   -0.1134   11.2750 C.ar      1 RES1    0.0000
      9 C6         8.4021    0.8524   11.6903 C.ar      1 RES1    0.0000
     10 C7         5.4894   -0.9463    9.9588 C.3       1 RES1    0.0000
     11 C8         6.1586   -2.3242   10.1787 C.3       1 RES1    0.0000
     12 C9         5.2504   -0.7865    8.4062 C.3       1 RES1    0.0000
     13 C10        6.5350   -0.6695    7.6070 C.3       1 RES1    0.0000
     14 C11        4.4128   -1.8767    7.7481 C.3       1 RES1    0.0000
     15 C12        4.0957   -0.8353   10.8303 C.3       1 RES1    0.0000
     16 C13        3.4962   -2.2364   11.0387 C.3       1 RES1    0.0000
     17 C14        4.3121   -0.2219   12.2713 C.3       1 RES1    0.0000
     18 C15        3.0143    0.1536   12.9655 C.3       1 RES1    0.0000
     19 C16        5.1008   -1.0889   13.2445 C.3       1 RES1    0.0000
     20 C17        3.0793    0.0610   10.1049 C.ar      1 RES1    0.0000
     21 C18        3.1960    1.4584   10.0999 C.ar      1 RES1    0.0000
     22 C19        2.2878    2.2717    9.4664 C.ar      1 RES1    0.0000
     23 C20        1.2140    1.7230    8.8132 C.ar      1 RES1    0.0000
     24 C21        1.0427    0.3768    8.8280 C.ar      1 RES1    0.0000
     25 C22        1.9594   -0.4475    9.4648 C.ar      1 RES1    0.0000
     26 H1         7.1994    3.3290    9.9457 H         1 RES1    0.0000
     27 H2         5.8254    1.6462    9.3220 H         1 RES1    0.0000
     28 H3         7.5947   -0.9389   11.6197 H         1 RES1    0.0000
     29 H4         9.1569    0.5853   12.2926 H         1 RES1    0.0000
     30 H5         5.6654   -2.9631    9.7487 H         1 RES1    0.0000
     31 H6         6.2771   -2.5607   11.1602 H         1 RES1    0.0000
     32 H7         7.0771   -2.2193    9.7816 H         1 RES1    0.0000
     33 H8         4.8373    0.0610    8.2388 H         1 RES1    0.0000
     34 H9         7.2276    0.0488    7.9434 H         1 RES1    0.0000
     35 H10        6.3242   -0.5975    6.5648 H         1 RES1    0.0000
     36 H11        6.8606   -1.3535    7.6480 H         1 RES1    0.0000
     37 H12        4.4043   -1.6706    6.8766 H         1 RES1    0.0000
     38 H13        4.9408   -2.7802    7.7957 H         1 RES1    0.0000
     39 H14        3.7738   -2.0242    8.1075 H         1 RES1    0.0000
     40 H15        4.0561   -2.8534   11.5869 H         1 RES1    0.0000
     41 H16        2.7386   -2.2315   11.5212 H         1 RES1    0.0000
     42 H17        3.4538   -2.8168   10.2247 H         1 RES1    0.0000
     43 H18        4.7620    0.5731   12.1449 H         1 RES1    0.0000
     44 H19        2.4280    0.9024   12.4731 H         1 RES1    0.0000
     45 H20        2.5127   -0.5609   13.0804 H         1 RES1    0.0000
     46 H21        3.0962    0.4146   13.8189 H         1 RES1    0.0000
     47 H22        5.3831   -0.6097   14.0158 H         1 RES1    0.0000
     48 H23        5.8913   -1.4145   12.9491 H         1 RES1    0.0000
     49 H24        4.7620   -1.8535   13.4743 H         1 RES1    0.0000
     50 H25        3.8491    1.8901   10.6022 H         1 RES1    0.0000
     51 H26        2.3904    3.2558    9.4697 H         1 RES1    0.0000
     52 H27        0.6305    2.3778    8.4194 H         1 RES1    0.0000
     53 H28        0.2635   -0.0610    8.4358 H         1 RES1    0.0000
     54 H29        1.7881   -1.3657    9.4861 H         1 RES1    0.0000
@<TRIPOS>BOND
     1    1    3 2
     2    2    3 2
     3    3    4 1
     4    4    5 ar
     5    5    6 ar
     6    6    7 ar
     7    7    8 ar
     8    8    9 ar
     9    9    4 ar
    10   10    7 1
    11   11   10 1
    12   12   10 1
    13   13   12 1
    14   14   12 1
    15   15   10 1
    16   16   15 1
    17   17   15 1
    18   18   17 1
    19   19   17 1
    20   20   15 1
    21   21   20 ar
    22   22   21 ar
    23   23   22 ar
    24   24   23 ar
    25   25   20 ar
    26   26    5 1
    27   27    6 1
    28   28    8 1
    29   29    9 1
    30   30   11 1
    31   31   11 1
    32   32   11 1
    33   33   12 1
    34   34   13 1
    35   35   13 1
    36   36   13 1
    37   37   14 1
    38   38   14 1
    39   39   14 1
    40   40   16 1
    41   41   16 1
    42   42   16 1
    43   43   17 1
    44   44   18 1
    45   45   18 1
    46   46   18 1
    47   47   19 1
    48   48   19 1
    49   49   19 1
    50   50   21 1
    51   51   22 1
    52   52   23 1
    53   53   24 1
    54   54   25 1
    55   24   25 ar
@<TRIPOS>SUBSTRUCTURE
     1 RES1 1

@<TRIPOS>CRYSIN
   9.4110   12.1940   16.4120  90.0000  90.0000  90.0000  19 1

