# MOL2 file generated by ConQuest
# Please check atom types

@<TRIPOS>MOLECULE
TAJSIG
    42    44     1
SMALL
NO_CHARGES
****
Generated from CSD

@<TRIPOS>ATOM
      1 O1        -0.0276    5.1651    5.3793 O.2       1 RES1    0.0000
      2 O2         2.1630    9.1389    5.4652 O.2       1 RES1    0.0000
      3 O3         2.8789    0.3892    1.2101 O.2       1 RES1    0.0000
      4 O4         3.5188    1.7669   -0.3014 O.2       1 RES1    0.0000
      5 O5         7.7471    9.9577    1.7945 O.2       1 RES1    0.0000
      6 O6         8.6390    8.0759    2.3408 O.2       1 RES1    0.0000
      7 O7        -0.3883    8.6907    8.5156 O.3       1 RES1    0.0000
      8 O8         1.3339    7.2664    8.2196 O.2       1 RES1    0.0000
      9 N1         0.7920    7.3078    5.5904 N.am      1 RES1    0.0000
     10 N2        -0.0923    7.8119    6.5263 N.am      1 RES1    0.0000
     11 N3         3.0421    1.5195    0.7944 N.pl3     1 RES1    0.0000
     12 N4         7.6827    8.8284    2.2636 N.pl3     1 RES1    0.0000
     13 C1         0.7922    6.0108    5.1181 C.2       1 RES1    0.0000
     14 C2         1.9950    5.9146    4.2105 C.2       1 RES1    0.0000
     15 C3         2.6753    7.0708    4.2725 C.2       1 RES1    0.0000
     16 C4         1.9183    8.0148    5.1638 C.2       1 RES1    0.0000
     17 C5         2.2162    4.7552    3.3442 C.ar      1 RES1    0.0000
     18 C6         2.0147    3.4521    3.7860 C.ar      1 RES1    0.0000
     19 C7         2.2534    2.3880    2.9503 C.ar      1 RES1    0.0000
     20 C8         2.6997    2.6468    1.6694 C.ar      1 RES1    0.0000
     21 C9         2.8816    3.9179    1.1884 C.ar      1 RES1    0.0000
     22 C10        2.6371    4.9830    2.0252 C.ar      1 RES1    0.0000
     23 C11        3.9533    7.4889    3.6827 C.ar      1 RES1    0.0000
     24 C12        4.1025    8.7890    3.2147 C.ar      1 RES1    0.0000
     25 C13        5.3249    9.2279    2.7381 C.ar      1 RES1    0.0000
     26 C14        6.3814    8.3522    2.7315 C.ar      1 RES1    0.0000
     27 C15        6.2559    7.0439    3.1592 C.ar      1 RES1    0.0000
     28 C16        5.0397    6.6133    3.6326 C.ar      1 RES1    0.0000
     29 C17        0.3894    7.8688    7.8148 C.2       1 RES1    0.0000
     30 C18       -0.0811    8.7776    9.9205 C.3       1 RES1    0.0000
     31 H1        -0.5836    8.5292    6.3228 H         1 RES1    0.0000
     32 H2         1.7217    3.2606    4.6577 H         1 RES1    0.0000
     33 H3         2.1549    1.4905    3.2648 H         1 RES1    0.0000
     34 H4         3.1927    4.0679    0.2829 H         1 RES1    0.0000
     35 H5         2.7582    6.0450    1.7521 H         1 RES1    0.0000
     36 H6         3.3491    9.4608    3.1886 H         1 RES1    0.0000
     37 H7         5.4396   10.0922    2.4703 H         1 RES1    0.0000
     38 H8         7.0041    6.5004    3.1015 H         1 RES1    0.0000
     39 H9         4.9195    5.6309    4.0374 H         1 RES1    0.0000
     40 H10        0.8695    9.1192   10.0446 H         1 RES1    0.0000
     41 H11        0.0515    7.7425   10.3167 H         1 RES1    0.0000
     42 H12       -0.7451    9.2848   10.3493 H         1 RES1    0.0000
@<TRIPOS>BOND
     1    1   13 2
     2    2   16 2
     3    3   11 2
     4    4   11 2
     5    5   12 2
     6    6   12 2
     7    7   29 1
     8    8   29 2
     9    9   10 1
    10   10   29 1
    11   11   20 1
    12   12   26 1
    13   13    9 1
    14   14   13 1
    15   15   14 2
    16   16    9 1
    17   17   14 1
    18   18   17 ar
    19   19   18 ar
    20   20   19 ar
    21   21   20 ar
    22   22   17 ar
    23   23   15 1
    24   24   23 ar
    25   25   24 ar
    26   26   25 ar
    27   27   26 ar
    28   28   23 ar
    29   30    7 1
    30   31   10 1
    31   32   18 1
    32   33   19 1
    33   34   21 1
    34   35   22 1
    35   36   24 1
    36   37   25 1
    37   38   27 1
    38   39   28 1
    39   40   30 1
    40   41   30 1
    41   42   30 1
    42   15   16 1
    43   21   22 ar
    44   27   28 ar
@<TRIPOS>SUBSTRUCTURE
     1 RES1 1

@<TRIPOS>CRYSIN
   8.1710   10.3510   10.9650  90.0000  97.0300  90.0000   4 1

