# MOL2 file generated by ConQuest
# Please check atom types

@<TRIPOS>MOLECULE
TAKJEU
    60    62     1
SMALL
NO_CHARGES
****
Generated from CSD

@<TRIPOS>ATOM
      1 O1         5.3786   14.4198   23.1504 O.2       1 RES1    0.0000
      2 C1         4.7377   13.4095   22.9977 C.2       1 RES1    0.0000
      3 C2         4.8527   12.1633   23.8606 C.3       1 RES1    0.0000
      4 C3         5.7833   11.1112   23.1657 C.3       1 RES1    0.0000
      5 O2         7.0510   11.0142   23.8224 O.3       1 RES1    0.0000
      6 C4         5.1545    9.7204   23.1199 C.3       1 RES1    0.0000
      7 C5         6.0134    8.7367   22.2926 C.3       1 RES1    0.0000
      8 O3         6.0679    7.4373   22.9315 O.3       1 RES1    0.0000
      9 C6         5.5481    8.4685   20.8392 C.3       1 RES1    0.0000
     10 O4         6.5251    7.6199   20.2105 O.3       1 RES1    0.0000
     11 C7         5.5481    9.7965   20.0578 C.3       1 RES1    0.0000
     12 C8         5.8741    9.7090   18.5356 C.3       1 RES1    0.0000
     13 C9         5.8115   11.0884   17.8865 C.2       1 RES1    0.0000
     14 N1         6.7018   11.5792   17.1204 N.2       1 RES1    0.0000
     15 O5         7.8160   10.7440   16.9727 O.3       1 RES1    0.0000
     16 C10        4.5530   11.9274   18.0469 C.3       1 RES1    0.0000
     17 C11        4.6983   12.9491   19.1898 C.3       1 RES1    0.0000
     18 O6         5.5461   14.0260   18.8003 O.3       1 RES1    0.0000
     19 C12        3.3801   13.5770   19.6912 C.3       1 RES1    0.0000
     20 O7         2.9058   14.5473   18.7520 O.3       1 RES1    0.0000
     21 C13        3.6294   14.2771   21.0326 C.3       1 RES1    0.0000
     22 O8         3.8656   13.2231   22.0152 O.3       1 RES1    0.0000
     23 C14        2.4809   15.1504   21.4883 C.3       1 RES1    0.0000
     24 C15        2.6646   15.9400   22.6210 C.3       1 RES1    0.0000
     25 C16        5.2786   12.5210   25.2758 C.3       1 RES1    0.0000
     26 C17        8.0058   11.9388   23.3388 C.3       1 RES1    0.0000
     27 O9         8.5145   11.5792   22.0992 O.3       1 RES1    0.0000
     28 C18        9.0877   12.1500   24.3875 C.3       1 RES1    0.0000
     29 C19       10.1737   11.1169   24.4104 C.3       1 RES1    0.0000
     30 O10        9.7105    9.8079   24.8507 O.3       1 RES1    0.0000
     31 C20       10.6219   10.8049   22.9850 C.3       1 RES1    0.0000
     32 O11        6.4111    6.1397   25.4693 O.3       1 RES1    0.0000
     33 C21        9.4289   10.4700   22.1195 C.3       1 RES1    0.0000
     34 C22        9.1564    9.6976   26.1693 C.3       1 RES1    0.0000
     35 C23       11.3466   11.5697   25.2809 C.3       1 RES1    0.0000
     36 C24        9.7801   10.1713   20.6814 C.3       1 RES1    0.0000
     37 C25        7.3285    7.0586   23.4355 C.3       1 RES1    0.0000
     38 O12        8.1410    6.7999   22.3053 O.3       1 RES1    0.0000
     39 C26        7.1347    5.8162   24.2958 C.3       1 RES1    0.0000
     40 O13       11.5878    9.7641   22.9442 O.3       1 RES1    0.0000
     41 C27        8.5013    5.2417   24.6777 C.3       1 RES1    0.0000
     42 N2         8.5195    4.0335   25.5202 N.3       1 RES1    0.0000
     43 C28        9.3088    5.0229   23.3973 C.3       1 RES1    0.0000
     44 C29        9.4440    6.3052   22.6184 C.3       1 RES1    0.0000
     45 C30       10.1697    6.1245   21.2846 C.3       1 RES1    0.0000
     46 C31        7.5708    3.0232   25.0569 C.3       1 RES1    0.0000
     47 C32        8.3600    4.2980   26.9431 C.3       1 RES1    0.0000
     48 C33        4.1987    7.7721   20.8239 C.3       1 RES1    0.0000
     49 C34        4.9466    8.7843   17.7440 C.3       1 RES1    0.0000
     50 C35        8.7526   11.4118   16.0997 C.3       1 RES1    0.0000
     51 C36        4.1442   12.5933   16.7309 C.3       1 RES1    0.0000
     52 C37        2.2659   12.5762   19.8083 C.3       1 RES1    0.0000
     53 C38        6.8875   13.9651   19.2000 C.3       1 RES1    0.0000
     54 O14        7.0015   14.8536   20.2512 O.3       1 RES1    0.0000
     55 C39        8.2480   15.0077   20.6941 C.3       1 RES1    0.0000
     56 C40        8.4246   16.0180   21.6868 C.3       1 RES1    0.0000
     57 N3         8.3954   17.3669   21.3483 N.3       1 RES1    0.0000
     58 C41        8.3701   18.1584   22.5242 C.3       1 RES1    0.0000
     59 C42        9.5137   17.7684   20.5490 C.3       1 RES1    0.0000
     60 C43        4.8749    9.1934   24.5249 C.3       1 RES1    0.0000
@<TRIPOS>BOND
     1    1    2 2
     2    2    3 1
     3    3    4 1
     4    4    5 1
     5    5   26 1
     6    6    4 1
     7    7    6 1
     8    8    7 1
     9    9    7 1
    10   10    9 1
    11   11    9 1
    12   12   11 1
    13   13   12 1
    14   14   13 2
    15   15   14 1
    16   16   13 1
    17   17   16 1
    18   18   17 1
    19   19   17 1
    20   20   19 1
    21   21   19 1
    22   22    2 1
    23   23   21 1
    24   24   23 1
    25   25    3 1
    26   26   27 1
    27   27   33 1
    28   28   26 1
    29   29   28 1
    30   30   29 1
    31   31   29 1
    32   32   39 1
    33   33   31 1
    34   34   30 1
    35   35   29 1
    36   36   33 1
    37   37    8 1
    38   38   37 1
    39   39   37 1
    40   40   31 1
    41   41   39 1
    42   42   41 1
    43   43   41 1
    44   44   38 1
    45   45   44 1
    46   46   42 1
    47   47   42 1
    48   48    9 1
    49   49   12 1
    50   50   15 1
    51   51   16 1
    52   52   19 1
    53   53   18 1
    54   54   53 1
    55   55   54 1
    56   56   55 1
    57   57   56 1
    58   58   57 1
    59   59   57 1
    60   60    6 1
    61   21   22 1
    62   43   44 1
@<TRIPOS>SUBSTRUCTURE
     1 RES1 1

@<TRIPOS>CRYSIN
  10.0930   19.0260   25.4540  90.0000  90.0000  90.0000  19 1

