# MOL2 file generated by ConQuest
# Please check atom types

@<TRIPOS>MOLECULE
TAKJIZ
    36    38     1
SMALL
NO_CHARGES
****
Generated from CSD

@<TRIPOS>ATOM
      1 O1         4.3640    0.8902    1.6011 O.3       1 RES1    0.0000
      2 O2         4.7878    5.7102    0.8115 O.3       1 RES1    0.0000
      3 O3         4.5203    4.6888    4.5761 O.3       1 RES1    0.0000
      4 O4         3.9686    0.2648    6.2180 O.3       1 RES1    0.0000
      5 N1         4.6658    4.9896    2.0150 N.2       1 RES1    0.0000
      6 C1         3.8515    1.7596    0.5446 C.3       1 RES1    0.0000
      7 C2         4.6790    3.0305    0.5038 C.3       1 RES1    0.0000
      8 C3         4.6216    3.7119    1.8285 C.2       1 RES1    0.0000
      9 C4         4.4166    3.3597    4.3201 C.ar      1 RES1    0.0000
     10 C5         4.2712    2.5255    5.4134 C.ar      1 RES1    0.0000
     11 C6         4.1576    1.1664    5.2132 C.ar      1 RES1    0.0000
     12 C7         4.2005    0.6285    3.9239 C.ar      1 RES1    0.0000
     13 C8         4.3446    1.4650    2.8565 C.ar      1 RES1    0.0000
     14 C9         4.4633    2.8655    3.0062 C.ar      1 RES1    0.0000
     15 C10        3.8610    0.7797    7.5564 C.3       1 RES1    0.0000
     16 C11        3.8338    0.9654   -0.7311 C.ar      1 RES1    0.0000
     17 C12        2.6382    0.7367   -1.3670 C.ar      1 RES1    0.0000
     18 C13        2.5910    0.0207   -2.5351 C.ar      1 RES1    0.0000
     19 C14        3.7322   -0.4934   -3.0879 C.ar      1 RES1    0.0000
     20 C15        4.9379   -0.2778   -2.4752 C.ar      1 RES1    0.0000
     21 C16        5.0004    0.4620   -1.3057 C.ar      1 RES1    0.0000
     22 H1         4.5826    6.6227    1.0484 H         1 RES1    0.0000
     23 H2         4.5833    5.0802    3.7578 H         1 RES1    0.0000
     24 H3         2.8637    2.0336    0.8169 H         1 RES1    0.0000
     25 H4         4.3498    3.6068   -0.2315 H         1 RES1    0.0000
     26 H5         5.6438    2.7012    0.3131 H         1 RES1    0.0000
     27 H6         4.2452    2.8931    6.3038 H         1 RES1    0.0000
     28 H7         4.1394   -0.3070    3.7714 H         1 RES1    0.0000
     29 H8         3.7230   -0.0077    8.1010 H         1 RES1    0.0000
     30 H9         4.7004    1.3430    7.8287 H         1 RES1    0.0000
     31 H10        3.0226    1.4427    7.5836 H         1 RES1    0.0000
     32 H11        1.8370    1.1127   -1.0484 H         1 RES1    0.0000
     33 H12        1.7303   -0.1458   -2.9817 H         1 RES1    0.0000
     34 H13        3.7003   -1.0820   -3.8803 H         1 RES1    0.0000
     35 H14        5.7207   -0.6676   -2.8183 H         1 RES1    0.0000
     36 H15        5.8207    0.6139   -0.9258 H         1 RES1    0.0000
@<TRIPOS>BOND
     1    1    6 1
     2    2    5 1
     3    3    9 1
     4    4   11 1
     5    5    8 2
     6    6    7 1
     7    7    8 1
     8    8   14 1
     9    9   10 ar
    10   10   11 ar
    11   11   12 ar
    12   12   13 ar
    13   13    1 1
    14   14    9 ar
    15   15    4 1
    16   16    6 1
    17   17   16 ar
    18   18   17 ar
    19   19   18 ar
    20   20   19 ar
    21   21   16 ar
    22   22    2 1
    23   23    3 1
    24   24    6 1
    25   25    7 1
    26   26    7 1
    27   27   10 1
    28   28   12 1
    29   29   15 1
    30   30   15 1
    31   31   15 1
    32   32   17 1
    33   33   18 1
    34   34   19 1
    35   35   20 1
    36   36   21 1
    37   13   14 ar
    38   20   21 ar
@<TRIPOS>SUBSTRUCTURE
     1 RES1 1

@<TRIPOS>CRYSIN
  12.9950    7.6740   13.7740  90.0000  98.7100  90.0000 231 1

