# MOL2 file generated by ConQuest
# Please check atom types

@<TRIPOS>MOLECULE
TAKMUQ
    44    45     1
SMALL
NO_CHARGES
****
Generated from CSD

@<TRIPOS>ATOM
      1 O1         2.0249    1.5888   13.8233 O.3       1 RES1    0.0000
      2 O2         8.0900   -1.7815    7.3458 O.3       1 RES1    0.0000
      3 O3         0.1601   -0.2947   13.7190 O.3       1 RES1    0.0000
      4 N1         6.3107   -2.1395    5.3078 N.pl3     1 RES1    0.0000
      5 C1         5.8602   -2.0569    6.6887 C.ar      1 RES1    0.0000
      6 C2         4.9497   -1.8597    9.2330 C.ar      1 RES1    0.0000
      7 H1         4.6469   -1.7838   10.1082 H         1 RES1    0.0000
      8 C3         6.7855   -1.8545    7.7095 C.ar      1 RES1    0.0000
      9 O4         3.7057    2.0093   11.7497 O.3       1 RES1    0.0000
     10 C4         4.0059   -2.0666    8.2184 C.ar      1 RES1    0.0000
     11 C5         0.9985   -0.2069   12.6418 C.ar      1 RES1    0.0000
     12 C6         4.5171   -2.1760    6.9324 C.ar      1 RES1    0.0000
     13 H2         3.9387   -2.3345    6.2213 H         1 RES1    0.0000
     14 C7         6.2956   -1.7652    8.9970 C.ar      1 RES1    0.0000
     15 H3         6.8831   -1.6402    9.7066 H         1 RES1    0.0000
     16 C8         0.9729   -1.0567   11.5413 C.ar      1 RES1    0.0000
     17 H4         0.3474   -1.7443   11.5137 H         1 RES1    0.0000
     18 C9         2.8148    0.9927   11.6103 C.ar      1 RES1    0.0000
     19 C10        1.9349    0.8111   12.6924 C.ar      1 RES1    0.0000
     20 C11        1.8533   -0.9057   10.4899 C.ar      1 RES1    0.0000
     21 C12        2.7672    0.1392   10.5312 C.ar      1 RES1    0.0000
     22 H5         3.3535    0.2642    9.8201 H         1 RES1    0.0000
     23 C13        1.7195   -1.8314    9.3495 C.2       1 RES1    0.0000
     24 H6         0.8652   -2.1841    9.2530 H         1 RES1    0.0000
     25 O5         6.8382   -1.1847    4.8066 O.2       1 RES1    0.0000
     26 C14        9.0625   -1.6201    8.3671 C.3       1 RES1    0.0000
     27 H7         9.9420   -1.6625    7.9823 H         1 RES1    0.0000
     28 H8         8.9648   -2.3203    9.0169 H         1 RES1    0.0000
     29 H9         8.9418   -0.7687    8.7947 H         1 RES1    0.0000
     30 C15        2.5786   -2.2615    8.4360 C.2       1 RES1    0.0000
     31 H10        2.1834   -2.8063    7.7938 H         1 RES1    0.0000
     32 O6         6.1294   -3.1136    4.6809 O.2       1 RES1    0.0000
     33 C16       -0.8213   -1.3313   13.7315 C.3       1 RES1    0.0000
     34 H11       -1.4027   -1.2309   12.9744 H         1 RES1    0.0000
     35 H12       -1.3348   -1.2755   14.5393 H         1 RES1    0.0000
     36 H13       -0.3850   -2.1856   13.6886 H         1 RES1    0.0000
     37 C17        4.6540    2.2109   10.7152 C.3       1 RES1    0.0000
     38 H14        4.1974    2.4572    9.9074 H         1 RES1    0.0000
     39 H15        5.1469    1.4005   10.5696 H         1 RES1    0.0000
     40 H16        5.2583    2.9127   10.9681 H         1 RES1    0.0000
     41 C18        1.5869    2.9067   13.6901 C.3       1 RES1    0.0000
     42 H17        2.1051    3.3503   13.0142 H         1 RES1    0.0000
     43 H18        1.6913    3.3659   14.5270 H         1 RES1    0.0000
     44 H19        0.6603    2.9127   13.4373 H         1 RES1    0.0000
@<TRIPOS>BOND
     1    1   19 1
     2    2    8 1
     3    3   11 1
     4    4    5 1
     5    5    8 ar
     6    6    7 1
     7    8   14 ar
     8    9   18 1
     9   10    6 ar
    10   11   16 ar
    11   12    5 ar
    12   13   12 1
    13   14    6 ar
    14   15   14 1
    15   16   17 1
    16   18   19 ar
    17   19   11 ar
    18   20   16 ar
    19   21   18 ar
    20   22   21 1
    21   23   20 1
    22   24   23 1
    23   25    4 2
    24   26    2 1
    25   27   26 1
    26   28   26 1
    27   29   26 1
    28   30   10 1
    29   31   30 1
    30   32    4 2
    31   33    3 1
    32   34   33 1
    33   35   33 1
    34   36   33 1
    35   37    9 1
    36   38   37 1
    37   39   37 1
    38   40   37 1
    39   41    1 1
    40   42   41 1
    41   43   41 1
    42   44   41 1
    43   10   12 ar
    44   20   21 ar
    45   23   30 2
@<TRIPOS>SUBSTRUCTURE
     1 RES1 1

@<TRIPOS>CRYSIN
  15.2043    7.4417   15.3356  90.0000  91.9100  90.0000  14 1

