# MOL2 file generated by ConQuest
# Please check atom types

@<TRIPOS>MOLECULE
TAKNAX
    44    45     1
SMALL
NO_CHARGES
****
Generated from CSD

@<TRIPOS>ATOM
      1 O1         3.8251   11.3315    4.8118 O.3       1 RES1    0.0000
      2 O2         9.3802    2.0763   -0.7589 O.3       1 RES1    0.0000
      3 C1         4.3900   10.3530    4.0647 C.ar      1 RES1    0.0000
      4 C2         5.0838    9.3166    4.6880 C.ar      1 RES1    0.0000
      5 C3         8.6627    3.0583   -0.1053 C.ar      1 RES1    0.0000
      6 C4         8.2693    4.2095   -0.7690 C.ar      1 RES1    0.0000
      7 O3         8.8019    1.7511    1.8369 O.3       1 RES1    0.0000
      8 C5         4.3467   10.3395    2.6733 C.ar      1 RES1    0.0000
      9 H1         3.9077   11.0283    2.2278 H         1 RES1    0.0000
     10 C6         5.5889    8.2962    2.5343 C.ar      1 RES1    0.0000
     11 C7         7.5786    5.2170   -0.0817 C.ar      1 RES1    0.0000
     12 H2         7.3237    5.9936   -0.5247 H         1 RES1    0.0000
     13 C8         7.6706    3.8899    1.9220 C.ar      1 RES1    0.0000
     14 H3         7.4637    3.7760    2.8215 H         1 RES1    0.0000
     15 C9         8.3637    2.9119    1.2507 C.ar      1 RES1    0.0000
     16 C10        7.2757    5.0501    1.2701 C.ar      1 RES1    0.0000
     17 C11        6.5897    6.0771    2.0787 C.2       1 RES1    0.0000
     18 H4         6.4118    5.8588    2.9647 H         1 RES1    0.0000
     19 O4         8.6336    4.2750   -2.0837 O.3       1 RES1    0.0000
     20 C12        5.6794    8.3037    3.9274 C.ar      1 RES1    0.0000
     21 H5         6.1436    7.6219    4.3586 H         1 RES1    0.0000
     22 C13        6.2057    7.2633    1.6803 C.2       1 RES1    0.0000
     23 H6         6.3324    7.4721    0.7825 H         1 RES1    0.0000
     24 C14        4.9297    9.3446    1.9439 C.ar      1 RES1    0.0000
     25 H7         4.8777    9.3800    1.0158 H         1 RES1    0.0000
     26 N1         5.2475    9.2517    6.1324 N.pl3     1 RES1    0.0000
     27 C15        2.9565   12.2465    4.1405 C.3       1 RES1    0.0000
     28 H8         3.4687   12.7864    3.5349 H         1 RES1    0.0000
     29 H9         2.5238   12.8114    4.7865 H         1 RES1    0.0000
     30 H10        2.2941   11.7575    3.6486 H         1 RES1    0.0000
     31 C16        8.0923    5.3224   -2.8695 C.3       1 RES1    0.0000
     32 H11        8.4314    5.2594   -3.7657 H         1 RES1    0.0000
     33 H12        8.3441    6.1685   -2.4922 H         1 RES1    0.0000
     34 H13        7.1349    5.2494   -2.8839 H         1 RES1    0.0000
     35 O5         5.9083    8.3586    6.6083 O.2       1 RES1    0.0000
     36 C17        8.6344    1.6248    3.2427 C.3       1 RES1    0.0000
     37 H14        7.7005    1.6782    3.4591 H         1 RES1    0.0000
     38 H15        9.1064    2.3325    3.6857 H         1 RES1    0.0000
     39 H16        8.9821    0.7792    3.5316 H         1 RES1    0.0000
     40 O6         4.7920   10.0968    6.8357 O.2       1 RES1    0.0000
     41 C18        8.5706    1.2387   -1.5725 C.3       1 RES1    0.0000
     42 H17        8.0475    1.7781   -2.1680 H         1 RES1    0.0000
     43 H18        7.9869    0.7192   -1.0158 H         1 RES1    0.0000
     44 H19        9.1316    0.6493   -2.0837 H         1 RES1    0.0000
@<TRIPOS>BOND
     1    1    3 1
     2    2    5 1
     3    3    4 ar
     4    4   20 ar
     5    5    6 ar
     6    6   11 ar
     7    7   15 1
     8    8    3 ar
     9    9    8 1
    10   10   20 ar
    11   11   12 1
    12   13   14 1
    13   15    5 ar
    14   16   11 ar
    15   17   16 1
    16   18   17 1
    17   19    6 1
    18   20   21 1
    19   22   10 1
    20   23   22 1
    21   24    8 ar
    22   25   24 1
    23   26    4 1
    24   27    1 1
    25   28   27 1
    26   29   27 1
    27   30   27 1
    28   31   19 1
    29   32   31 1
    30   33   31 1
    31   34   31 1
    32   35   26 2
    33   36    7 1
    34   37   36 1
    35   38   36 1
    36   39   36 1
    37   40   26 2
    38   41    2 1
    39   42   41 1
    40   43   41 1
    41   44   41 1
    42   10   24 ar
    43   13   15 ar
    44   13   16 ar
    45   17   22 2
@<TRIPOS>SUBSTRUCTURE
     1 RES1 1

@<TRIPOS>CRYSIN
   7.8673   49.9470    8.4225  90.0000  90.0000  90.0000  61 1

