# MOL2 file generated by ConQuest
# Please check atom types

@<TRIPOS>MOLECULE
TAKQOM
    44    46     1
SMALL
NO_CHARGES
****
Generated from CSD

@<TRIPOS>ATOM
      1 O1         4.8418    1.6363    6.7936 O.3       1 RES1    0.0000
      2 O2         5.9517    6.9979    9.7714 O.2       1 RES1    0.0000
      3 O3         3.8060    6.8368   10.0632 O.2       1 RES1    0.0000
      4 O4         0.5640    0.4176    5.3885 O.3       1 RES1    0.0000
      5 O5         4.3423    0.2003   12.0648 O.3       1 RES1    0.0000
      6 N1         4.8729    6.4086    9.6302 N.pl3     1 RES1    0.0000
      7 N2         2.3454    1.3184    7.4504 N.3       1 RES1    0.0000
      8 N3         2.9538    1.1711    9.7857 N.3       1 RES1    0.0000
      9 C1         4.8365    2.7671    7.5291 C.ar      1 RES1    0.0000
     10 C2         5.9271    3.6277    7.4245 C.ar      1 RES1    0.0000
     11 C3         5.9733    4.7998    8.1353 C.ar      1 RES1    0.0000
     12 C4         4.8850    5.1326    8.9221 C.ar      1 RES1    0.0000
     13 C5         3.7894    4.3017    9.0445 C.ar      1 RES1    0.0000
     14 C6         3.7591    3.0851    8.3876 C.ar      1 RES1    0.0000
     15 C7         2.6454    2.0804    8.6816 C.3       1 RES1    0.0000
     16 C8         1.7464    2.2277    6.4405 C.3       1 RES1    0.0000
     17 C9         1.4890    1.4699    5.1671 C.3       1 RES1    0.0000
     18 C10        1.1257   -0.4769    6.3413 C.3       1 RES1    0.0000
     19 C11        1.4134    0.1982    7.6637 C.3       1 RES1    0.0000
     20 C12        4.2326    0.4642    9.6737 C.3       1 RES1    0.0000
     21 C13        4.3840   -0.4907   10.8248 C.3       1 RES1    0.0000
     22 C14        3.0821    0.8436   12.1934 C.3       1 RES1    0.0000
     23 C15        2.8398    1.8282   11.0885 C.3       1 RES1    0.0000
     24 H1         3.9445    1.2824    6.9040 H         1 RES1    0.0000
     25 H2         6.6995    3.3384    6.8360 H         1 RES1    0.0000
     26 H3         6.6760    5.4156    8.0320 H         1 RES1    0.0000
     27 H4         3.0686    4.5889    9.5962 H         1 RES1    0.0000
     28 H5         1.8408    2.5647    8.9847 H         1 RES1    0.0000
     29 H6         2.4221    2.9356    6.2557 H         1 RES1    0.0000
     30 H7         0.8742    2.5965    6.8224 H         1 RES1    0.0000
     31 H8         1.0425    2.0666    4.4957 H         1 RES1    0.0000
     32 H9         2.3691    1.0704    4.8654 H         1 RES1    0.0000
     33 H10        0.4728   -1.1552    6.4691 H         1 RES1    0.0000
     34 H11        1.9664   -0.8902    5.9119 H         1 RES1    0.0000
     35 H12        1.8396   -0.4133    8.2494 H         1 RES1    0.0000
     36 H13        0.5763    0.5193    8.0999 H         1 RES1    0.0000
     37 H14        4.2285   -0.0318    8.8610 H         1 RES1    0.0000
     38 H15        5.0419    1.1234    9.6764 H         1 RES1    0.0000
     39 H16        3.6218   -1.2082   10.7772 H         1 RES1    0.0000
     40 H17        5.1584   -0.9856   10.7501 H         1 RES1    0.0000
     41 H18        3.1129    1.2930   13.1012 H         1 RES1    0.0000
     42 H19        2.4049    0.1590   12.1907 H         1 RES1    0.0000
     43 H20        1.9370    2.2468   11.1156 H         1 RES1    0.0000
     44 H21        3.4946    2.5541   11.1985 H         1 RES1    0.0000
@<TRIPOS>BOND
     1    1    9 1
     2    2    6 2
     3    3    6 2
     4    4   17 1
     5    5   21 1
     6    6   12 1
     7    7   15 1
     8    8   15 1
     9    9   10 ar
    10   10   11 ar
    11   11   12 ar
    12   12   13 ar
    13   13   14 ar
    14   14    9 ar
    15   15   14 1
    16   16    7 1
    17   17   16 1
    18   18    4 1
    19   19    7 1
    20   20    8 1
    21   21   20 1
    22   22    5 1
    23   23    8 1
    24   24    1 1
    25   25   10 1
    26   26   11 1
    27   27   13 1
    28   28   15 1
    29   29   16 1
    30   30   16 1
    31   31   17 1
    32   32   17 1
    33   33   18 1
    34   34   18 1
    35   35   19 1
    36   36   19 1
    37   37   20 1
    38   38   20 1
    39   39   21 1
    40   40   21 1
    41   41   22 1
    42   42   22 1
    43   43   23 1
    44   44   23 1
    45   18   19 1
    46   22   23 1
@<TRIPOS>SUBSTRUCTURE
     1 RES1 1

@<TRIPOS>CRYSIN
  10.6520   10.5980   13.6580  90.0000  95.7000  90.0000 231 1

