# MOL2 file generated by ConQuest
# Please check atom types

@<TRIPOS>MOLECULE
TAKRON
    31    32     1
SMALL
NO_CHARGES
****
Generated from CSD

@<TRIPOS>ATOM
      1 O1        10.4382    4.2843    0.4330 O.3       1 RES1    0.0000
      2 O2        11.3424    3.5262   -1.4665 O.2       1 RES1    0.0000
      3 O3         5.1529   10.3699   -3.6724 O.2       1 RES1    0.0000
      4 O4         4.8418   10.8990   -1.5929 O.2       1 RES1    0.0000
      5 N1         5.3648   10.2170   -2.4692 N.pl3     1 RES1    0.0000
      6 C1        10.6171    4.3233   -0.8846 C.2       1 RES1    0.0000
      7 C2         9.8653    5.3793   -1.6025 C.2       1 RES1    0.0000
      8 C3         9.0570    6.1904   -0.8882 C.2       1 RES1    0.0000
      9 C4         8.1250    7.2148   -1.3586 C.ar      1 RES1    0.0000
     10 C5         7.7757    8.2398   -0.4658 C.ar      1 RES1    0.0000
     11 C6         6.8738    9.2275   -0.8138 C.ar      1 RES1    0.0000
     12 C7         6.3144    9.1757   -2.0706 C.ar      1 RES1    0.0000
     13 C8         6.6060    8.1631   -2.9766 C.ar      1 RES1    0.0000
     14 C9         7.5192    7.1990   -2.6120 C.ar      1 RES1    0.0000
     15 C10       10.0786    5.4627   -3.0791 C.ar      1 RES1    0.0000
     16 C11       10.7137    6.5746   -3.6237 C.ar      1 RES1    0.0000
     17 C12       10.9348    6.6490   -4.9986 C.ar      1 RES1    0.0000
     18 C13       10.4933    5.6466   -5.8203 C.ar      1 RES1    0.0000
     19 C14        9.8525    4.5393   -5.2905 C.ar      1 RES1    0.0000
     20 C15        9.6560    4.4429   -3.9276 C.ar      1 RES1    0.0000
     21 H1        10.9027    3.5820    0.7634 H         1 RES1    0.0000
     22 H2         9.1481    6.1261    0.0606 H         1 RES1    0.0000
     23 H3         8.1979    8.2810    0.4319 H         1 RES1    0.0000
     24 H4         6.6411    9.9902   -0.2122 H         1 RES1    0.0000
     25 H5         6.1437    8.1512   -3.8207 H         1 RES1    0.0000
     26 H6         7.7602    6.4759   -3.1918 H         1 RES1    0.0000
     27 H7        10.9960    7.3051   -3.0365 H         1 RES1    0.0000
     28 H8        11.3733    7.4066   -5.3475 H         1 RES1    0.0000
     29 H9        10.6667    5.6354   -6.7720 H         1 RES1    0.0000
     30 H10        9.5256    3.8528   -5.8874 H         1 RES1    0.0000
     31 H11        9.1618    3.7118   -3.5896 H         1 RES1    0.0000
@<TRIPOS>BOND
     1    1    6 1
     2    2    6 2
     3    3    5 2
     4    4    5 2
     5    5   12 1
     6    6    7 1
     7    7    8 2
     8    8    9 1
     9    9   10 ar
    10   10   11 ar
    11   11   12 ar
    12   12   13 ar
    13   13   14 ar
    14   14    9 ar
    15   15    7 1
    16   16   15 ar
    17   17   16 ar
    18   18   17 ar
    19   19   18 ar
    20   20   15 ar
    21   21    1 1
    22   22    8 1
    23   23   10 1
    24   24   11 1
    25   25   13 1
    26   26   14 1
    27   27   16 1
    28   28   17 1
    29   29   18 1
    30   30   19 1
    31   31   20 1
    32   19   20 ar
@<TRIPOS>SUBSTRUCTURE
     1 RES1 1

@<TRIPOS>CRYSIN
  11.4750    5.6410   19.1500  90.0000  98.4390  90.0000  14 1

