# MOL2 file generated by ConQuest
# Please check atom types

@<TRIPOS>MOLECULE
TALBIU
    24    23     1
SMALL
NO_CHARGES
****
Generated from CSD

@<TRIPOS>ATOM
      1 C1        -0.3354    4.4891    2.3176 C.2       1 RES1    0.0000
      2 C2         0.8550    6.5133    2.5003 C.3       1 RES1    0.0000
      3 C3         1.6094    7.1761    3.5570 C.1       1 RES1    0.0000
      4 N1        -1.3549    2.2932    2.6134 N.pl3     1 RES1    0.0000
      5 N2        -0.5861    3.3488    3.0558 N.am      1 RES1    0.0000
      6 O1        -1.1080    1.2274    3.1452 O.2       1 RES1    0.0000
      7 O2        -2.2108    2.5062    1.7893 O.2       1 RES1    0.0000
      8 O3        -0.8177    4.7964    1.2769 O.2       1 RES1    0.0000
      9 O4         0.5579    5.1835    3.0010 O.3       1 RES1    0.0000
     10 H1        -0.0996    3.1411    3.6950 H         1 RES1    0.0000
     11 H2         0.0206    6.9469    2.3064 H         1 RES1    0.0000
     12 H3         1.4173    6.3996    1.6839 H         1 RES1    0.0000
     13 C1B        4.1677   10.3834    5.6631 C.2       1 RES1    0.0000
     14 C2B        2.9773    8.3592    5.4803 C.3       1 RES1    0.0000
     15 C3B        2.2230    7.6964    4.4237 C.1       1 RES1    0.0000
     16 N1B        5.1873   12.5793    5.3672 N.pl3     1 RES1    0.0000
     17 N2B        4.4185   11.5237    4.9249 N.am      1 RES1    0.0000
     18 O1B        4.9403   13.6451    4.8355 O.2       1 RES1    0.0000
     19 O2B        6.0432   12.3663    6.1914 O.2       1 RES1    0.0000
     20 O3B        4.6501   10.0761    6.7038 O.2       1 RES1    0.0000
     21 O4B        3.2745    9.6890    4.9797 O.3       1 RES1    0.0000
     22 H1B        3.9319   11.7314    4.2856 H         1 RES1    0.0000
     23 H2B        3.8118    7.9256    5.6743 H         1 RES1    0.0000
     24 H3B        2.4150    8.4729    6.2967 H         1 RES1    0.0000
@<TRIPOS>BOND
     1    1    5 1
     2    2    3 1
     3    3   15 3
     4    4    5 1
     5    5   10 1
     6    6    4 2
     7    7    4 2
     8    8    1 2
     9    9    1 1
    10   11    2 1
    11   12    2 1
    12   13   17 1
    13   14   15 1
    14   16   17 1
    15   17   22 1
    16   18   16 2
    17   19   16 2
    18   20   13 2
    19   21   13 1
    20   23   14 1
    21   24   14 1
    22    2    9 1
    23   14   21 1
@<TRIPOS>SUBSTRUCTURE
     1 RES1 1

@<TRIPOS>CRYSIN
   4.3479   14.8725    7.9973  90.0000  93.6960  90.0000 231 1

