# MOL2 file generated by ConQuest
# Please check atom types

@<TRIPOS>MOLECULE
TALDAO
    24    24     1
SMALL
NO_CHARGES
****
Generated from CSD

@<TRIPOS>ATOM
      1 C1         1.5498    2.1424    0.4809 C.3       1 RES1    0.0000
      2 H1         1.5221    2.4342   -0.4752 H         1 RES1    0.0000
      3 C2         2.7563    2.7922    1.1600 C.3       1 RES1    0.0000
      4 H2         2.7095    3.7841    1.0428 H         1 RES1    0.0000
      5 C3         2.7305    2.4568    2.6409 C.3       1 RES1    0.0000
      6 H3         2.8387    1.4699    2.7628 H         1 RES1    0.0000
      7 C4         1.4099    2.9092    3.2723 C.3       1 RES1    0.0000
      8 H4         1.3886    2.6617    4.2304 H         1 RES1    0.0000
      9 H5         1.3177    3.8926    3.2009 H         1 RES1    0.0000
     10 C5         0.2724    2.2202    2.5266 C.3       1 RES1    0.0000
     11 H6         0.3698    1.2304    2.6276 H         1 RES1    0.0000
     12 C6        -1.0938    2.6330    3.0228 C.3       1 RES1    0.0000
     13 H7        -1.7936    2.2212    2.4562 H         1 RES1    0.0000
     14 H8        -1.2211    2.3161    3.9523 H         1 RES1    0.0000
     15 N1         3.8687    3.1794    3.3270 N.pl3     1 RES1    0.0000
     16 O1         0.3409    2.5577    1.1236 O.3       1 RES1    0.0000
     17 O2         1.7075    0.7583    0.5231 O.3       1 RES1    0.0000
     18 H9         1.1759    0.4369   -0.0571 H         1 RES1    0.0000
     19 O3         3.9625    2.3041    0.5832 O.3       1 RES1    0.0000
     20 H10        4.3088    2.9278    0.2286 H         1 RES1    0.0000
     21 O4         4.3734    2.6371    4.3015 O.2       1 RES1    0.0000
     22 O5         4.2312    4.2667    2.8912 O.2       1 RES1    0.0000
     23 O6        -1.2122    4.0553    2.9781 O.3       1 RES1    0.0000
     24 H11       -2.0463    4.1482    3.0285 H         1 RES1    0.0000
@<TRIPOS>BOND
     1    1    2 1
     2    3    1 1
     3    4    3 1
     4    5    3 1
     5    6    5 1
     6    7    5 1
     7    8    7 1
     8    9    7 1
     9   10    7 1
    10   11   10 1
    11   12   10 1
    12   13   12 1
    13   14   12 1
    14   15    5 1
    15   16    1 1
    16   17    1 1
    17   18   17 1
    18   19    3 1
    19   20   19 1
    20   21   15 2
    21   22   15 2
    22   23   12 1
    23   24   23 1
    24   10   16 1
@<TRIPOS>SUBSTRUCTURE
     1 RES1 1

@<TRIPOS>CRYSIN
   8.3913    5.0220    9.6538  90.0000  99.4170  90.0000   4 1

