# MOL2 file generated by ConQuest
# Please check atom types

@<TRIPOS>MOLECULE
TALKIA
    51    54     1
SMALL
NO_CHARGES
****
Generated from CSD

@<TRIPOS>ATOM
      1 O1        12.8698   -2.6432    6.8458 O.2       1 RES1    0.0000
      2 O2        14.1318   -0.8783    7.3253 O.3       1 RES1    0.0000
      3 O3        17.3576    3.8609    4.2137 O.2       1 RES1    0.0000
      4 O4        17.2475    2.3352    2.6976 O.2       1 RES1    0.0000
      5 N1        10.9213    1.3692    5.9730 N.pl3     1 RES1    0.0000
      6 N2        16.8450    2.8774    3.7153 N.pl3     1 RES1    0.0000
      7 C1         9.9478    0.5281    6.4681 C.ar      1 RES1    0.0000
      8 C2        10.5617   -0.6258    6.8993 C.ar      1 RES1    0.0000
      9 C3        11.9460   -0.4661    6.6612 C.ar      1 RES1    0.0000
     10 C4        12.1459    0.7740    6.0903 C.ar      1 RES1    0.0000
     11 C5        10.6787    2.7218    5.4642 C.3       1 RES1    0.0000
     12 C6        12.9972   -1.4553    6.9476 C.2       1 RES1    0.0000
     13 C7        15.2589   -1.7417    7.5702 C.3       1 RES1    0.0000
     14 C8        13.3660    1.3477    5.5177 C.ar      1 RES1    0.0000
     15 C9        14.0466    0.6250    4.5501 C.ar      1 RES1    0.0000
     16 C10       15.1865    1.1117    3.9619 C.ar      1 RES1    0.0000
     17 C11       15.6511    2.3261    4.3569 C.ar      1 RES1    0.0000
     18 C12       15.0181    3.0761    5.3193 C.ar      1 RES1    0.0000
     19 C13       13.8652    2.5836    5.9058 C.ar      1 RES1    0.0000
     20 C14        8.5241    0.9131    6.5146 C.ar      1 RES1    0.0000
     21 C15        7.8018    1.1564    5.3573 C.ar      1 RES1    0.0000
     22 C16        6.4741    1.5041    5.4435 C.ar      1 RES1    0.0000
     23 C17        5.8558    1.6092    6.6509 C.ar      1 RES1    0.0000
     24 C18        6.5559    1.3659    7.7875 C.ar      1 RES1    0.0000
     25 C19        7.8928    1.0157    7.7427 C.ar      1 RES1    0.0000
     26 C20        9.8795   -1.7831    7.5219 C.ar      1 RES1    0.0000
     27 C21       10.3003   -2.2905    8.7396 C.ar      1 RES1    0.0000
     28 C22        9.6592   -3.3675    9.3175 C.ar      1 RES1    0.0000
     29 C23        8.5976   -3.9577    8.6983 C.ar      1 RES1    0.0000
     30 C24        8.1637   -3.4693    7.4909 C.ar      1 RES1    0.0000
     31 C25        8.7897   -2.3857    6.9044 C.ar      1 RES1    0.0000
     32 H1         9.7614    2.9718    5.5539 H         1 RES1    0.0000
     33 H2        11.3802    3.2119    5.5194 H         1 RES1    0.0000
     34 H3        10.4925    2.6572    4.5708 H         1 RES1    0.0000
     35 H4        15.6114   -2.0447    6.7095 H         1 RES1    0.0000
     36 H5        15.9660   -1.2086    7.9169 H         1 RES1    0.0000
     37 H6        15.0165   -2.3758    8.1066 H         1 RES1    0.0000
     38 H7        13.6321   -0.2318    4.2430 H         1 RES1    0.0000
     39 H8        15.6400    0.6126    3.2599 H         1 RES1    0.0000
     40 H9        15.3650    3.8907    5.5712 H         1 RES1    0.0000
     41 H10       13.4531    3.0629    6.6060 H         1 RES1    0.0000
     42 H11        8.2857    1.0927    4.5018 H         1 RES1    0.0000
     43 H12        5.9782    1.6390    4.6398 H         1 RES1    0.0000
     44 H13        4.9641    1.8543    6.6578 H         1 RES1    0.0000
     45 H14        6.2563    1.4073    8.6586 H         1 RES1    0.0000
     46 H15        8.3955    0.8526    8.5723 H         1 RES1    0.0000
     47 H16       11.0648   -1.8791    9.1415 H         1 RES1    0.0000
     48 H17        9.9453   -3.6754   10.1764 H         1 RES1    0.0000
     49 H18        8.1174   -4.7433    9.1243 H         1 RES1    0.0000
     50 H19        7.3920   -3.8741    7.0545 H         1 RES1    0.0000
     51 H20        8.4403   -2.0198    6.0024 H         1 RES1    0.0000
@<TRIPOS>BOND
     1    1   12 2
     2    2   12 1
     3    3    6 2
     4    4    6 2
     5    5    7 ar
     6    6   17 1
     7    7    8 ar
     8    8    9 ar
     9    9   10 ar
    10   10    5 ar
    11   11    5 1
    12   12    9 1
    13   13    2 1
    14   14   10 1
    15   15   14 ar
    16   16   15 ar
    17   17   16 ar
    18   18   17 ar
    19   19   14 ar
    20   20    7 1
    21   21   20 ar
    22   22   21 ar
    23   23   22 ar
    24   24   23 ar
    25   25   20 ar
    26   26    8 1
    27   27   26 ar
    28   28   27 ar
    29   29   28 ar
    30   30   29 ar
    31   31   26 ar
    32   32   11 1
    33   33   11 1
    34   34   11 1
    35   35   13 1
    36   36   13 1
    37   37   13 1
    38   38   15 1
    39   39   16 1
    40   40   18 1
    41   41   19 1
    42   42   21 1
    43   43   22 1
    44   44   23 1
    45   45   24 1
    46   46   25 1
    47   47   27 1
    48   48   28 1
    49   49   29 1
    50   50   30 1
    51   51   31 1
    52   18   19 ar
    53   24   25 ar
    54   30   31 ar
@<TRIPOS>SUBSTRUCTURE
     1 RES1 1

@<TRIPOS>CRYSIN
  14.6750    8.2780   17.3970  90.0000  97.5000  90.0000 231 1

