# MOL2 file generated by ConQuest
# Please check atom types

@<TRIPOS>MOLECULE
TALVAG
    72    60     3
SMALL
NO_CHARGES
****
Generated from CSD

@<TRIPOS>ATOM
      1 O1        10.4158    9.3217   -1.0196 O.2       1 RES1    0.0000
      2 O2         9.8355    7.6170    0.3447 O.3       1 RES1    0.0000
      3 O3         8.1453   13.5693    3.1237 O.2       1 RES1    0.0000
      4 O4         8.3160   15.4804    2.1250 O.2       1 RES1    0.0000
      5 N1         7.6788   10.2393   -2.2226 N.2       1 RES1    0.0000
      6 N2         7.8637   10.3500   -0.8757 N.3       1 RES1    0.0000
      7 N3         8.1852   14.2605    2.1102 N.pl3     1 RES1    0.0000
      8 C1         7.9297   11.6550   -0.4868 C.ar      1 RES1    0.0000
      9 C2         8.0834   12.2202    0.7834 C.ar      1 RES1    0.0000
     10 H1         8.1710   11.6945    1.5463 H         1 RES1    0.0000
     11 C3         8.0753   13.5961    0.8050 C.ar      1 RES1    0.0000
     12 C4         7.9486   14.4175   -0.3376 C.ar      1 RES1    0.0000
     13 H2         8.0581   15.3397   -0.2442 H         1 RES1    0.0000
     14 C5         7.7817   13.8347   -1.5710 C.ar      1 RES1    0.0000
     15 H3         7.7186   14.3980   -2.3520 H         1 RES1    0.0000
     16 C6         7.7548   12.4314   -1.6549 C.ar      1 RES1    0.0000
     17 C7         7.6019   11.4707   -2.6926 C.2       1 RES1    0.0000
     18 H4         7.4360   11.5684   -3.6054 H         1 RES1    0.0000
     19 C8         8.1778    9.1775   -0.1126 C.3       1 RES1    0.0000
     20 H5         8.0335    9.3848    0.8301 H         1 RES1    0.0000
     21 H6         7.5862    8.4452   -0.3418 H         1 RES1    0.0000
     22 C9         9.6142    8.7421   -0.3364 C.2       1 RES1    0.0000
     23 C10       11.1956    7.1009    0.2759 C.3       1 RES1    0.0000
     24 H7        11.4421    6.6640    1.1288 H         1 RES1    0.0000
     25 H8        11.8353    7.8362    0.1025 H         1 RES1    0.0000
     26 C11       11.2288    6.0972   -0.8586 C.3       1 RES1    0.0000
     27 H9        12.1310    5.7244   -0.9392 H         1 RES1    0.0000
     28 H10       10.5923    5.3742   -0.6747 H         1 RES1    0.0000
     29 H11       10.9842    6.5422   -1.6969 H         1 RES1    0.0000
     30 C12       11.0322    6.8488    0.0130 Du        3 SUP3    0.0000
     31 H12       11.8096    7.4382   -0.1538 Du        3 SUP3    0.0000
     32 H13       10.8855    6.2659   -0.7732 Du        3 SUP3    0.0000
     33 C13       11.2003    6.0441    1.2859 Du        3 SUP3    0.0000
     34 H14       11.9879    5.4656    1.2053 Du        3 SUP3    0.0000
     35 H15       11.3182    6.6531    2.0452 Du        3 SUP3    0.0000
     36 H16       10.4028    5.4917    1.4316 Du        3 SUP3    0.0000
     37 O5         8.4589    9.3358    3.0671 O.2       2 RES2    0.0000
     38 O6         9.0051    7.6164    4.4201 O.3       2 RES2    0.0000
     39 O7        10.8774   13.5002    7.2032 O.2       2 RES2    0.0000
     40 O8        11.1424   15.4134    6.2455 O.2       2 RES2    0.0000
     41 N4        11.2557   10.1730    1.8521 N.2       2 RES2    0.0000
     42 N5        11.0540   10.2937    3.1934 N.3       2 RES2    0.0000
     43 N6        11.0107   14.1979    6.2039 N.pl3     2 RES2    0.0000
     44 C14       11.0706   11.5980    3.5896 C.ar      2 RES2    0.0000
     45 C15       10.9387   12.1689    4.8595 C.ar      2 RES2    0.0000
     46 H17       10.7798   11.6467    5.6563 H         2 RES2    0.0000
     47 C16       11.0564   13.5411    4.8885 C.ar      2 RES2    0.0000
     48 C17       11.2467   14.3553    3.7525 C.ar      2 RES2    0.0000
     49 H18       11.2518   15.2919    3.8658 H         2 RES2    0.0000
     50 C18       11.3812   13.7651    2.5156 C.ar      2 RES2    0.0000
     51 H19       11.5012   14.3175    1.7335 H         2 RES2    0.0000
     52 C19       11.3172   12.3672    2.4270 C.ar      2 RES2    0.0000
     53 C20       11.4203   11.4016    1.3880 C.2       2 RES2    0.0000
     54 H20       11.5657   11.5401    0.4313 H         2 RES2    0.0000
     55 C21       10.7008    9.1321    3.9569 C.3       2 RES2    0.0000
     56 H21       11.2579    8.4061    3.6949 H         2 RES2    0.0000
     57 H22       10.8233    9.3522    4.8750 H         2 RES2    0.0000
     58 C22        9.2513    8.7382    3.7430 C.2       2 RES2    0.0000
     59 C23        7.6334    7.1359    4.4038 C.3       2 RES2    0.0000
     60 H23        7.3861    6.8379    3.4931 H         2 RES2    0.0000
     61 H24        7.0136    7.8580    4.6772 H         2 RES2    0.0000
     62 C24        7.5511    6.0154    5.3430 C.3       2 RES2    0.0000
     63 H25        6.6353    5.6657    5.3560 H         2 RES2    0.0000
     64 H26        8.1667    5.3068    5.0606 H         2 RES2    0.0000
     65 H27        7.7956    6.3225    6.2406 H         2 RES2    0.0000
     66 C25        7.6431    7.1577    4.1914 Du        3 SUP3    0.0000
     67 H28        7.0855    7.9058    3.8642 Du        3 SUP3    0.0000
     68 H29        7.2523    6.8292    5.0435 Du        3 SUP3    0.0000
     69 C26        7.6728    6.0789    3.2066 Du        3 SUP3    0.0000
     70 H30        6.7616    5.7592    3.0446 Du        3 SUP3    0.0000
     71 H31        8.0558    6.4138    2.3691 Du        3 SUP3    0.0000
     72 H32        8.2227    5.3416    3.5452 Du        3 SUP3    0.0000
@<TRIPOS>BOND
     1    1   22 2
     2    2   22 1
     3    3    7 2
     4    4    7 2
     5    5    6 1
     6    6    8 1
     7    7   11 1
     8    8    9 ar
     9    9   10 1
    10   11    9 ar
    11   12   11 ar
    12   13   12 1
    13   14   12 ar
    14   15   14 1
    15   16    8 ar
    16   17    5 2
    17   18   17 1
    18   19    6 1
    19   20   19 1
    20   21   19 1
    21   22   19 1
    22   23    2 1
    23   24   23 1
    24   25   23 1
    25   26   23 1
    26   27   26 1
    27   28   26 1
    28   29   26 1
    29   37   58 2
    30   38   58 1
    31   39   43 2
    32   40   43 2
    33   41   42 1
    34   42   44 1
    35   43   47 1
    36   44   45 ar
    37   45   46 1
    38   47   45 ar
    39   48   47 ar
    40   49   48 1
    41   50   48 ar
    42   51   50 1
    43   52   44 ar
    44   53   41 2
    45   54   53 1
    46   55   42 1
    47   56   55 1
    48   57   55 1
    49   58   55 1
    50   59   38 1
    51   60   59 1
    52   61   59 1
    53   62   59 1
    54   63   62 1
    55   64   62 1
    56   65   62 1
    57   14   16 ar
    58   16   17 1
    59   50   52 ar
    60   52   53 1
@<TRIPOS>SUBSTRUCTURE
     1 RES1 1
     2 RES2 37
     3 SUP3 30

@<TRIPOS>CRYSIN
  12.6867   21.7492    8.1393  90.0000  90.7720  90.0000  14 1

