# MOL2 file generated by ConQuest
# Please check atom types

@<TRIPOS>MOLECULE
TAMCAM
    49    50     1
SMALL
NO_CHARGES
****
Generated from CSD

@<TRIPOS>ATOM
      1 C1         2.0063    1.8578    5.6826 C.3       1 RES1    0.0000
      2 H1         2.7852    1.6919    6.2527 H         1 RES1    0.0000
      3 C2         0.7800    2.0980    6.5922 C.3       1 RES1    0.0000
      4 H2         1.0481    2.5355    7.4270 H         1 RES1    0.0000
      5 C3        -0.3126    2.9126    5.8763 C.3       1 RES1    0.0000
      6 H3        -0.7802    2.3278    5.2442 H         1 RES1    0.0000
      7 O1        -1.2629    3.4278    6.8242 O.3       1 RES1    0.0000
      8 C4         0.2946    4.0730    5.1134 C.3       1 RES1    0.0000
      9 H4        -0.4103    4.5755    4.6531 H         1 RES1    0.0000
     10 O2         1.0291    4.9479    5.9916 O.3       1 RES1    0.0000
     11 C5         1.2658    3.4986    4.0999 C.3       1 RES1    0.0000
     12 H5         0.7922    2.8766    3.5088 H         1 RES1    0.0000
     13 C6         1.9309    4.5697    3.2741 C.3       1 RES1    0.0000
     14 H6         1.2724    5.2090    2.9586 H         1 RES1    0.0000
     15 H7         2.5901    5.0443    3.8053 H         1 RES1    0.0000
     16 O3         2.5711    3.9140    2.1508 O.3       1 RES1    0.0000
     17 C7         0.3598    0.6904    6.8458 C.2       1 RES1    0.0000
     18 N1         0.8491   -0.1114    5.9242 N.pl3     1 RES1    0.0000
     19 O4         0.7708   -1.3054    5.7235 O.2       1 RES1    0.0000
     20 O5         1.6639    0.6069    4.9946 O.3       1 RES1    0.0000
     21 O6         2.3418    2.8058    4.7649 O.3       1 RES1    0.0000
     22 C8        -0.4289    0.1474    7.9512 C.2       1 RES1    0.0000
     23 O7        -0.7488   -0.9910    8.0790 O.2       1 RES1    0.0000
     24 O8        -0.7106    1.1117    8.8059 O.3       1 RES1    0.0000
     25 C9        -1.5269    0.7125    9.9223 C.3       1 RES1    0.0000
     26 H8        -2.3394    0.3017    9.5878 H         1 RES1    0.0000
     27 H9        -1.0487    0.0441   10.4385 H         1 RES1    0.0000
     28 C10       -1.8488    1.7139   10.7141 C.3       1 RES1    0.0000
     29 H10       -2.2767    1.3739   11.5039 H         1 RES1    0.0000
     30 H11       -2.4500    2.3046   10.2548 H         1 RES1    0.0000
     31 H12       -1.0553    2.1943   10.9617 H         1 RES1    0.0000
     32 C11       -2.4837    2.8511    6.8329 C.2       1 RES1    0.0000
     33 O9        -2.7384    1.8265    6.2956 O.2       1 RES1    0.0000
     34 C12       -3.4613    3.6727    7.6107 C.3       1 RES1    0.0000
     35 H13       -4.1778    3.1122    7.9172 H         1 RES1    0.0000
     36 H14       -3.8148    4.3654    7.0485 H         1 RES1    0.0000
     37 H15       -3.0181    4.0672    8.3656 H         1 RES1    0.0000
     38 C13        0.4010    6.0759    6.4055 C.2       1 RES1    0.0000
     39 O10       -0.7340    6.3277    6.1678 O.2       1 RES1    0.0000
     40 C14        1.3419    6.9531    7.1674 C.3       1 RES1    0.0000
     41 H16        0.8482    7.4707    7.8074 H         1 RES1    0.0000
     42 H17        1.7946    7.5414    6.5593 H         1 RES1    0.0000
     43 H18        1.9866    6.4089    7.6257 H         1 RES1    0.0000
     44 C15        3.1829    4.7193    1.2741 C.2       1 RES1    0.0000
     45 O11        3.2536    5.8832    1.3959 O.2       1 RES1    0.0000
     46 C16        3.8072    3.9314    0.1528 C.3       1 RES1    0.0000
     47 H19        3.9726    4.5128   -0.5941 H         1 RES1    0.0000
     48 H20        3.2117    3.2282   -0.1148 H         1 RES1    0.0000
     49 H21        4.6369    3.5520    0.4513 H         1 RES1    0.0000
@<TRIPOS>BOND
     1    1    2 1
     2    3    1 1
     3    4    3 1
     4    5    3 1
     5    6    5 1
     6    7    5 1
     7    8    5 1
     8    9    8 1
     9   10    8 1
    10   11    8 1
    11   12   11 1
    12   13   11 1
    13   14   13 1
    14   15   13 1
    15   16   13 1
    16   17    3 1
    17   18   17 2
    18   19   18 1
    19   20    1 1
    20   21    1 1
    21   22   17 1
    22   23   22 2
    23   24   22 1
    24   25   24 1
    25   26   25 1
    26   27   25 1
    27   28   25 1
    28   29   28 1
    29   30   28 1
    30   31   28 1
    31   32    7 1
    32   33   32 2
    33   34   32 1
    34   35   34 1
    35   36   34 1
    36   37   34 1
    37   38   10 1
    38   39   38 2
    39   40   38 1
    40   41   40 1
    41   42   40 1
    42   43   40 1
    43   44   16 1
    44   45   44 2
    45   46   44 1
    46   47   46 1
    47   48   46 1
    48   49   46 1
    49   11   21 1
    50   18   20 1
@<TRIPOS>SUBSTRUCTURE
     1 RES1 1

@<TRIPOS>CRYSIN
   8.1810   11.6040   10.1930  90.0000 101.5900  90.0000   4 1

