# MOL2 file generated by ConQuest
# Please check atom types

@<TRIPOS>MOLECULE
TAMLID
    55    58     1
SMALL
NO_CHARGES
****
Generated from CSD

@<TRIPOS>ATOM
      1 C1        -3.4633   -1.8286   -7.4803 C.ar      1 RES1    0.0000
      2 C2        -2.2933   -2.2080   -8.1287 C.ar      1 RES1    0.0000
      3 H1        -1.7444   -2.8582   -7.7540 H         1 RES1    0.0000
      4 C3        -1.9448   -1.6153   -9.3369 C.ar      1 RES1    0.0000
      5 H2        -1.1623   -1.8689   -9.7705 H         1 RES1    0.0000
      6 C4        -2.7664   -0.6431   -9.8963 C.ar      1 RES1    0.0000
      7 H3        -2.5328   -0.2466  -10.7039 H         1 RES1    0.0000
      8 C5        -3.9349   -0.2637   -9.2480 C.ar      1 RES1    0.0000
      9 H4        -4.4853    0.3870   -9.6223 H         1 RES1    0.0000
     10 C6        -4.2848   -0.8564   -8.0400 C.ar      1 RES1    0.0000
     11 H5        -5.0675   -0.6028   -7.6058 H         1 RES1    0.0000
     12 C7        -3.8213   -2.4687   -6.1647 C.3       1 RES1    0.0000
     13 H6        -4.6640   -2.9417   -6.2420 H         1 RES1    0.0000
     14 H7        -3.1353   -3.1032   -5.9045 H         1 RES1    0.0000
     15 O1        -3.9275   -1.4135   -5.1783 O.3       1 RES1    0.0000
     16 C8        -3.7328   -1.7879   -3.9054 C.2       1 RES1    0.0000
     17 O2        -3.5568   -2.9347   -3.5790 O.2       1 RES1    0.0000
     18 N1        -3.7664   -0.7387   -3.0883 N.am      1 RES1    0.0000
     19 H8        -4.0023    0.0262   -3.4024 H         1 RES1    0.0000
     20 C9        -3.4198   -0.8434   -1.6974 C.3       1 RES1    0.0000
     21 H9        -3.4677   -1.7869   -1.4363 H         1 RES1    0.0000
     22 C10       -1.9880   -0.3336   -1.4254 C.3       1 RES1    0.0000
     23 H10       -1.9178    0.5832   -1.7327 H         1 RES1    0.0000
     24 H11       -1.8289   -0.3371   -0.4683 H         1 RES1    0.0000
     25 N2         0.6113   -2.7389   -2.4353 N.pl3     1 RES1    0.0000
     26 H12        1.1322   -3.4062   -2.2846 H         1 RES1    0.0000
     27 C11       -0.2636   -2.2050   -1.5404 C.2       1 RES1    0.0000
     28 H13       -0.3903   -2.5130   -0.6717 H         1 RES1    0.0000
     29 C12       -0.9251   -1.1569   -2.0985 C.2       1 RES1    0.0000
     30 C13       -0.4319   -1.0205   -3.4387 C.ar      1 RES1    0.0000
     31 C14       -0.6941   -0.1610   -4.4934 C.ar      1 RES1    0.0000
     32 H14       -1.3157    0.5248   -4.4036 H         1 RES1    0.0000
     33 C15       -0.0142   -0.3457   -5.6807 C.ar      1 RES1    0.0000
     34 H15       -0.1887    0.2184   -6.3996 H         1 RES1    0.0000
     35 C16        0.9263   -1.3556   -5.8226 C.ar      1 RES1    0.0000
     36 H16        1.3696   -1.4522   -6.6345 H         1 RES1    0.0000
     37 C17        1.2117   -2.2101   -4.8009 C.ar      1 RES1    0.0000
     38 H17        1.8478   -2.8813   -4.9034 H         1 RES1    0.0000
     39 C18        0.5307   -2.0495   -3.6058 C.ar      1 RES1    0.0000
     40 C19       -4.3953   -0.0710   -0.8681 C.2       1 RES1    0.0000
     41 O3        -5.2220    0.6994   -1.2582 O.2       1 RES1    0.0000
     42 O4        -4.2274   -0.3351    0.4564 O.3       1 RES1    0.0000
     43 C20       -5.0619    0.3452    1.3413 C.ar      1 RES1    0.0000
     44 C21       -4.6266    1.4386    2.0809 C.ar      1 RES1    0.0000
     45 C22       -5.4622    2.0103    3.0332 C.ar      1 RES1    0.0000
     46 H18       -5.1706    2.7419    3.5285 H         1 RES1    0.0000
     47 C23       -6.7330    1.4890    3.2458 C.ar      1 RES1    0.0000
     48 H19       -7.2921    1.8719    3.8833 H         1 RES1    0.0000
     49 C24       -7.1683    0.3955    2.5061 C.ar      1 RES1    0.0000
     50 H20       -8.0183    0.0468    2.6488 H         1 RES1    0.0000
     51 C25       -6.3327   -0.1761    1.5538 C.ar      1 RES1    0.0000
     52 H21       -6.6244   -0.9078    1.0595 H         1 RES1    0.0000
     53 N3        -3.3424    2.0651    1.8545 N.pl3     1 RES1    0.0000
     54 O5        -2.7864    1.9101    0.7861 O.2       1 RES1    0.0000
     55 O6        -2.9019    2.7822    2.7408 O.2       1 RES1    0.0000
@<TRIPOS>BOND
     1    1    2 ar
     2    2    3 1
     3    4    2 ar
     4    5    4 1
     5    6    4 ar
     6    7    6 1
     7    8    6 ar
     8    9    8 1
     9   10    1 ar
    10   11   10 1
    11   12    1 1
    12   13   12 1
    13   14   12 1
    14   15   12 1
    15   16   15 1
    16   17   16 2
    17   18   16 1
    18   19   18 1
    19   20   18 1
    20   21   20 1
    21   22   20 1
    22   23   22 1
    23   24   22 1
    24   25   26 1
    25   27   25 1
    26   28   27 1
    27   29   22 1
    28   30   29 1
    29   31   30 ar
    30   32   31 1
    31   33   31 ar
    32   34   33 1
    33   35   33 ar
    34   36   35 1
    35   37   35 ar
    36   38   37 1
    37   39   25 1
    38   40   20 1
    39   41   40 2
    40   42   40 1
    41   43   42 1
    42   44   43 ar
    43   45   44 ar
    44   46   45 1
    45   47   45 ar
    46   48   47 1
    47   49   47 ar
    48   50   49 1
    49   51   43 ar
    50   52   51 1
    51   53   44 1
    52   54   53 2
    53   55   53 2
    54    8   10 ar
    55   27   29 2
    56   30   39 ar
    57   37   39 ar
    58   49   51 ar
@<TRIPOS>SUBSTRUCTURE
     1 RES1 1

@<TRIPOS>CRYSIN
  14.2270    5.0320   15.9230  90.0000  98.0400  90.0000   4 1

