# MOL2 file generated by ConQuest
# Please check atom types

@<TRIPOS>MOLECULE
TAMQEG
    45    46     1
SMALL
NO_CHARGES
****
Generated from CSD

@<TRIPOS>ATOM
      1 O1        -0.5311    1.0565    2.9159 O.3       1 RES1    0.0000
      2 C1         2.3470    4.6055    6.0261 C.3       1 RES1    0.0000
      3 H1         1.3559    4.6817    5.9168 H         1 RES1    0.0000
      4 N1         0.0453    2.1317    5.2516 N.pl3     1 RES1    0.0000
      5 C2         2.7400    3.1127    5.8727 C.3       1 RES1    0.0000
      6 H2         3.7167    3.0260    6.0092 H         1 RES1    0.0000
      7 H3         2.2906    2.5914    6.5843 H         1 RES1    0.0000
      8 C3         2.7270    5.1680    7.4187 C.3       1 RES1    0.0000
      9 C4         2.3835    2.5123    4.5349 C.ar      1 RES1    0.0000
     10 C5         0.7553    1.4799    3.0141 C.ar      1 RES1    0.0000
     11 C6         3.0068    5.4190    4.9398 C.2       1 RES1    0.0000
     12 C7         1.1120    2.0626    4.2350 C.ar      1 RES1    0.0000
     13 O2        -0.8144    2.9761    5.1239 O.2       1 RES1    0.0000
     14 C8        -0.9091    0.3464    1.7321 C.3       1 RES1    0.0000
     15 H4        -0.7711    0.9192    0.9492 H         1 RES1    0.0000
     16 H5        -1.8548    0.0950    1.7901 H         1 RES1    0.0000
     17 H6        -0.3613   -0.4615    1.6467 H         1 RES1    0.0000
     18 O3         0.0846    1.3139    6.1559 O.2       1 RES1    0.0000
     19 C9         1.7348    1.3647    2.0410 C.ar      1 RES1    0.0000
     20 H7         1.5321    0.9727    1.1997 H         1 RES1    0.0000
     21 C10        2.2166    6.6122    7.5189 C.3       1 RES1    0.0000
     22 H8         2.4641    6.9866    8.3903 H         1 RES1    0.0000
     23 H9         1.2409    6.6212    7.4253 H         1 RES1    0.0000
     24 H10        2.6180    7.1512    6.8059 H         1 RES1    0.0000
     25 C11        4.4029    5.7694    5.1804 C.2       1 RES1    0.0000
     26 H11        4.9057    6.1264    4.4332 H         1 RES1    0.0000
     27 C12        4.2512    5.1616    7.5669 C.3       1 RES1    0.0000
     28 H12        4.4958    5.7290    8.3405 H         1 RES1    0.0000
     29 H13        4.5449    4.2381    7.7691 H         1 RES1    0.0000
     30 C13        3.0101    1.8257    2.3072 C.ar      1 RES1    0.0000
     31 H14        3.6774    1.7542    1.6357 H         1 RES1    0.0000
     32 C14        3.3377    2.3885    3.5268 C.ar      1 RES1    0.0000
     33 H15        4.2245    2.6942    3.6793 H         1 RES1    0.0000
     34 C15        6.4439    5.9699    6.5961 C.3       1 RES1    0.0000
     35 H16        6.8608    6.2251    5.7463 H         1 RES1    0.0000
     36 H17        6.9009    5.1829    6.9601 H         1 RES1    0.0000
     37 H18        6.5162    6.7125    7.2312 H         1 RES1    0.0000
     38 C16        4.9964    5.6465    6.3660 C.2       1 RES1    0.0000
     39 C17        2.0933    4.3579    8.5526 C.3       1 RES1    0.0000
     40 H19        2.2814    4.7935    9.4103 H         1 RES1    0.0000
     41 H20        2.4692    3.4527    8.5571 H         1 RES1    0.0000
     42 H21        1.1241    4.3084    8.4171 H         1 RES1    0.0000
     43 C18        2.3748    5.7495    3.8149 C.2       1 RES1    0.0000
     44 H22        2.8126    6.2976    3.0879 H         1 RES1    0.0000
     45 H23        1.4479    5.4936    3.7013 H         1 RES1    0.0000
@<TRIPOS>BOND
     1    1   10 1
     2    2    3 1
     3    4   12 1
     4    5    2 1
     5    6    5 1
     6    7    5 1
     7    8    2 1
     8    9    5 1
     9   10   12 ar
    10   11    2 1
    11   12    9 ar
    12   13    4 2
    13   14    1 1
    14   15   14 1
    15   16   14 1
    16   17   14 1
    17   18    4 2
    18   19   10 ar
    19   20   19 1
    20   21    8 1
    21   22   21 1
    22   23   21 1
    23   24   21 1
    24   25   11 1
    25   26   25 1
    26   27    8 1
    27   28   27 1
    28   29   27 1
    29   30   19 ar
    30   31   30 1
    31   32    9 ar
    32   33   32 1
    33   34   35 1
    34   36   34 1
    35   37   34 1
    36   38   25 2
    37   39    8 1
    38   40   39 1
    39   41   39 1
    40   42   39 1
    41   43   11 2
    42   44   43 1
    43   45   43 1
    44   27   38 1
    45   30   32 ar
    46   34   38 1
@<TRIPOS>SUBSTRUCTURE
     1 RES1 1

@<TRIPOS>CRYSIN
   7.8310   30.5710    7.9209  90.0000 118.3580  90.0000 231 1

