# MOL2 file generated by ConQuest
# Please check atom types

@<TRIPOS>MOLECULE
TAMTUW
    41    42     1
SMALL
NO_CHARGES
****
Generated from CSD

@<TRIPOS>ATOM
      1 O1         0.3726    4.5597    7.3047 O.2       1 RES1    0.0000
      2 O2         1.5817    4.6133    9.0922 O.2       1 RES1    0.0000
      3 O3         5.9600    1.3591    6.0952 O.2       1 RES1    0.0000
      4 O4         5.1251    2.9697    4.9002 O.2       1 RES1    0.0000
      5 N1         1.2274    4.1067    8.0417 N.pl3     1 RES1    0.0000
      6 N2         5.0602    2.1347    5.7917 N.pl3     1 RES1    0.0000
      7 C1         1.9279    2.8781    7.6015 C.ar      1 RES1    0.0000
      8 C2         3.1552    3.1567    7.0012 C.ar      1 RES1    0.0000
      9 C3         3.8024    2.0226    6.5399 C.ar      1 RES1    0.0000
     10 C4         3.3178    0.7492    6.7088 C.ar      1 RES1    0.0000
     11 C5         2.0886    0.5193    7.3169 C.ar      1 RES1    0.0000
     12 C6         1.3367    1.6222    7.7771 C.ar      1 RES1    0.0000
     13 C7        -0.0651    1.4137    8.3841 C.3       1 RES1    0.0000
     14 C8        -0.1351   -0.0166    8.9599 C.3       1 RES1    0.0000
     15 C9         0.2304   -1.0747    7.9494 C.3       1 RES1    0.0000
     16 C10        1.6736   -0.9490    7.4714 C.3       1 RES1    0.0000
     17 C11        3.7218    4.5539    6.9167 C.3       1 RES1    0.0000
     18 C12       -0.4179    2.3490    9.5536 C.3       1 RES1    0.0000
     19 C13       -1.1066    1.5871    7.2780 C.3       1 RES1    0.0000
     20 C14        2.6209   -1.5881    8.4986 C.3       1 RES1    0.0000
     21 C15        1.7925   -1.6963    6.1430 C.3       1 RES1    0.0000
     22 H1         3.8315    0.0107    6.4042 H         1 RES1    0.0000
     23 H2        -1.0214   -0.1773    9.2612 H         1 RES1    0.0000
     24 H3         0.4647   -0.0770    9.6936 H         1 RES1    0.0000
     25 H4        -0.3490   -0.9928    7.1991 H         1 RES1    0.0000
     26 H5         0.1133   -1.9291    8.3474 H         1 RES1    0.0000
     27 H6         4.5602    4.5285    6.4721 H         1 RES1    0.0000
     28 H7         3.1219    5.1083    6.4298 H         1 RES1    0.0000
     29 H8         3.8363    4.9017    7.7916 H         1 RES1    0.0000
     30 H9         0.2246    2.2467   10.2450 H         1 RES1    0.0000
     31 H10       -0.4174    3.2483    9.2501 H         1 RES1    0.0000
     32 H11       -1.2810    2.1269    9.8871 H         1 RES1    0.0000
     33 H12       -0.8961    1.0123    6.5510 H         1 RES1    0.0000
     34 H13       -1.9666    1.3669    7.6159 H         1 RES1    0.0000
     35 H14       -1.1060    2.4893    6.9801 H         1 RES1    0.0000
     36 H15        2.5486   -1.1253    9.3246 H         1 RES1    0.0000
     37 H16        2.3829   -2.4991    8.6220 H         1 RES1    0.0000
     38 H17        3.5137   -1.5326    8.1807 H         1 RES1    0.0000
     39 H18        1.2072   -1.3036    5.5049 H         1 RES1    0.0000
     40 H19        2.6874   -1.6407    5.8284 H         1 RES1    0.0000
     41 H20        1.5566   -2.6072    6.2697 H         1 RES1    0.0000
@<TRIPOS>BOND
     1    1    5 2
     2    2    5 2
     3    3    6 2
     4    4    6 2
     5    5    7 1
     6    6    9 1
     7    7    8 ar
     8    8    9 ar
     9    9   10 ar
    10   10   11 ar
    11   11   12 ar
    12   12    7 ar
    13   13   12 1
    14   14   13 1
    15   15   14 1
    16   16   11 1
    17   17    8 1
    18   18   13 1
    19   19   13 1
    20   20   16 1
    21   21   16 1
    22   22   10 1
    23   23   14 1
    24   24   14 1
    25   25   15 1
    26   26   15 1
    27   27   17 1
    28   28   17 1
    29   29   17 1
    30   30   18 1
    31   31   18 1
    32   32   18 1
    33   33   19 1
    34   34   19 1
    35   35   19 1
    36   36   20 1
    37   37   20 1
    38   38   20 1
    39   39   21 1
    40   40   21 1
    41   41   21 1
    42   15   16 1
@<TRIPOS>SUBSTRUCTURE
     1 RES1 1

@<TRIPOS>CRYSIN
  13.8280    9.7430   11.3940  90.0000 102.6700  90.0000  14 1

