# MOL2 file generated by ConQuest
# Please check atom types

@<TRIPOS>MOLECULE
TAMWAF
    84    90     2
SMALL
NO_CHARGES
****
Generated from CSD

@<TRIPOS>ATOM
      1 O1        -9.4178    5.4567   14.3406 O.2       1 RES1    0.0000
      2 O2        -7.7585    4.0297   14.4050 O.2       1 RES1    0.0000
      3 N1        -8.6975    4.6399   13.8523 N.pl3     1 RES1    0.0000
      4 N2        -9.2541    3.4461    8.3605 N.pl3     1 RES1    0.0000
      5 N3       -10.3598    3.8004    6.3983 N.2       1 RES1    0.0000
      6 N4        -9.0980    4.0401    5.9684 N.3       1 RES1    0.0000
      7 N5        -8.1522    2.8662    7.7201 N.2       1 RES1    0.0000
      8 C1       -10.5017    3.4868    7.6558 C.2       1 RES1    0.0000
      9 C2        -8.0529    3.2575    6.5036 C.2       1 RES1    0.0000
     10 C3        -8.7912    4.2638   12.3843 C.ar      1 RES1    0.0000
     11 C4        -7.9800    3.4186   11.7994 C.ar      1 RES1    0.0000
     12 C5        -8.0581    3.0775   10.4221 C.ar      1 RES1    0.0000
     13 C6        -9.1511    3.7265    9.7408 C.ar      1 RES1    0.0000
     14 C7        -9.9816    4.5812   10.3607 C.ar      1 RES1    0.0000
     15 C8        -9.8825    4.8929   11.7117 C.ar      1 RES1    0.0000
     16 C9        -6.9637    2.9050    5.6877 C.ar      1 RES1    0.0000
     17 C10       -5.7386    2.4843    6.2609 C.ar      1 RES1    0.0000
     18 C11       -4.6630    2.2067    5.5240 C.ar      1 RES1    0.0000
     19 C12       -4.6533    2.2892    4.1291 C.ar      1 RES1    0.0000
     20 C13       -5.8225    2.7042    3.5530 C.ar      1 RES1    0.0000
     21 C14       -6.9628    2.9704    4.2694 C.ar      1 RES1    0.0000
     22 C15      -11.7328    3.1628    8.1967 C.ar      1 RES1    0.0000
     23 C16      -12.9077    3.7654    7.7639 C.ar      1 RES1    0.0000
     24 C17      -14.1354    3.4034    8.2318 C.ar      1 RES1    0.0000
     25 C18      -14.2661    2.3744    9.1384 C.ar      1 RES1    0.0000
     26 C19      -13.1182    1.7548    9.5799 C.ar      1 RES1    0.0000
     27 C20      -11.9094    2.1101    9.1588 C.ar      1 RES1    0.0000
     28 O3        -4.8579    1.2441    9.5770 O.2       2 RES2    0.0000
     29 O4        -4.0033   -0.7286    9.7963 O.2       2 RES2    0.0000
     30 N6        -4.3870    0.3155   10.2057 N.pl3     2 RES2    0.0000
     31 N7        -4.0812    1.0802   15.8349 N.pl3     2 RES2    0.0000
     32 N8        -3.2180    0.5628   17.8819 N.2       2 RES2    0.0000
     33 N9        -4.4508    0.9826   18.2913 N.3       2 RES2    0.0000
     34 N10       -4.7323    2.2257   16.3262 N.2       2 RES2    0.0000
     35 C21       -2.9746    0.5410   16.5923 C.2       2 RES2    0.0000
     36 C22       -4.9584    2.0940   17.5924 C.2       2 RES2    0.0000
     37 C23       -4.3617    0.5211   11.7205 C.ar      2 RES2    0.0000
     38 C24       -4.7710    1.6704   12.2322 C.ar      2 RES2    0.0000
     39 C25       -4.7137    1.8997   13.6096 C.ar      2 RES2    0.0000
     40 C26       -4.1637    0.8461   14.4167 C.ar      2 RES2    0.0000
     41 C27       -3.8094   -0.3402   13.8669 C.ar      2 RES2    0.0000
     42 C28       -3.8451   -0.5306   12.4750 C.ar      2 RES2    0.0000
     43 C29       -5.7258    3.0841   18.2884 C.ar      2 RES2    0.0000
     44 C30       -5.5860    3.3390   19.6482 C.ar      2 RES2    0.0000
     45 C31       -6.3859    4.2173   20.3149 C.ar      2 RES2    0.0000
     46 C32       -7.4328    4.8408   19.6745 C.ar      2 RES2    0.0000
     47 C33       -7.5990    4.6049   18.3089 C.ar      2 RES2    0.0000
     48 C34       -6.7738    3.7786   17.6246 C.ar      2 RES2    0.0000
     49 C35       -1.7304    0.1336   16.0835 C.ar      2 RES2    0.0000
     50 C36       -1.0652    0.8594   15.0980 C.ar      2 RES2    0.0000
     51 C37        0.2150    0.4918   14.7003 C.ar      2 RES2    0.0000
     52 C38        0.7986   -0.6424   15.2238 C.ar      2 RES2    0.0000
     53 C39        0.1343   -1.3682   16.2005 C.ar      2 RES2    0.0000
     54 C40       -1.1388   -1.0347   16.6128 C.ar      2 RES2    0.0000
     55 H1        -8.6485    4.6049    5.1760 H         1 RES1    0.0000
     56 H2        -7.2343    2.9373   12.3989 H         1 RES1    0.0000
     57 H3        -7.3649    2.3972    9.9425 H         1 RES1    0.0000
     58 H4       -10.7961    5.0312    9.7963 H         1 RES1    0.0000
     59 H5       -10.5757    5.5618   12.2235 H         1 RES1    0.0000
     60 H6        -5.6654    2.4161    7.3399 H         1 RES1    0.0000
     61 H7        -3.7549    1.8666    6.0240 H         1 RES1    0.0000
     62 H8        -3.7694    2.0561    3.5384 H         1 RES1    0.0000
     63 H9        -5.8718    2.8046    2.4856 H         1 RES1    0.0000
     64 H10       -7.8630    3.2499    3.7431 H         1 RES1    0.0000
     65 H11      -12.8287    4.5480    7.0183 H         1 RES1    0.0000
     66 H12      -15.0053    3.9321    7.8955 H         1 RES1    0.0000
     67 H13      -15.2246    2.0561    9.4747 H         1 RES1    0.0000
     68 H14      -13.1960    0.9665   10.3227 H         1 RES1    0.0000
     69 H15      -11.0287    1.6013    9.5331 H         1 RES1    0.0000
     70 H16       -5.0848    0.8433   19.1540 H         2 RES2    0.0000
     71 H17       -5.1855    2.4351   11.5801 H         2 RES2    0.0000
     72 H18       -5.0550    2.8236   14.0365 H         2 RES2    0.0000
     73 H19       -3.4605   -1.1559   14.4752 H         2 RES2    0.0000
     74 H20       -3.5390   -1.4591   12.0188 H         2 RES2    0.0000
     75 H21       -4.8316    2.8046   20.2067 H         2 RES2    0.0000
     76 H22       -6.1766    4.4343   21.3472 H         2 RES2    0.0000
     77 H23       -8.0874    5.5050   20.2067 H         2 RES2    0.0000
     78 H24       -8.4120    5.0786   17.7796 H         2 RES2    0.0000
     79 H25       -6.8754    3.6289   16.5514 H         2 RES2    0.0000
     80 H26       -1.5517    1.7150   14.6506 H         2 RES2    0.0000
     81 H27        0.7651    1.0991   14.0073 H         2 RES2    0.0000
     82 H28        1.7779   -0.9759   14.8553 H         2 RES2    0.0000
     83 H29        0.6165   -2.2266   16.6391 H         2 RES2    0.0000
     84 H30       -1.6717   -1.6297   17.3410 H         2 RES2    0.0000
@<TRIPOS>BOND
     1    1    3 2
     2    2    3 2
     3    3   10 1
     4    4    7 1
     5    5    6 1
     6    6    9 1
     7    7    9 2
     8    8    4 1
     9    9   16 1
    10   10   11 ar
    11   11   12 ar
    12   12   13 ar
    13   13    4 1
    14   14   13 ar
    15   15   10 ar
    16   16   17 ar
    17   17   18 ar
    18   18   19 ar
    19   19   20 ar
    20   20   21 ar
    21   21   16 ar
    22   22    8 1
    23   23   22 ar
    24   24   23 ar
    25   25   24 ar
    26   26   25 ar
    27   27   22 ar
    28   28   30 2
    29   29   30 2
    30   30   37 1
    31   31   34 1
    32   32   33 1
    33   33   36 1
    34   34   36 2
    35   35   31 1
    36   36   43 1
    37   37   38 ar
    38   38   39 ar
    39   39   40 ar
    40   40   31 1
    41   41   40 ar
    42   42   37 ar
    43   43   44 ar
    44   44   45 ar
    45   45   46 ar
    46   46   47 ar
    47   47   48 ar
    48   48   43 ar
    49   49   35 1
    50   50   49 ar
    51   51   50 ar
    52   52   51 ar
    53   53   52 ar
    54   54   49 ar
    55   55    6 1
    56   56   11 1
    57   57   12 1
    58   58   14 1
    59   59   15 1
    60   60   17 1
    61   61   18 1
    62   62   19 1
    63   63   20 1
    64   64   21 1
    65   65   23 1
    66   66   24 1
    67   67   25 1
    68   68   26 1
    69   69   27 1
    70   70   33 1
    71   71   38 1
    72   72   39 1
    73   73   41 1
    74   74   42 1
    75   75   44 1
    76   76   45 1
    77   77   46 1
    78   78   47 1
    79   79   48 1
    80   80   50 1
    81   81   51 1
    82   82   52 1
    83   83   53 1
    84   84   54 1
    85    5    8 2
    86   14   15 ar
    87   26   27 ar
    88   32   35 2
    89   41   42 ar
    90   53   54 ar
@<TRIPOS>SUBSTRUCTURE
     1 RES1 1
     2 RES2 28

@<TRIPOS>CRYSIN
  26.0460    9.4750   31.5260  90.0000 111.9400  90.0000  15 1

