# MOL2 file generated by ConQuest
# Please check atom types

@<TRIPOS>MOLECULE
TANDIY
    85    88     1
SMALL
NO_CHARGES
****
Generated from CSD

@<TRIPOS>ATOM
      1 O1         5.9896   15.8309    1.7276 O.2       1 RES1    0.0000
      2 C1         5.0757   15.1511    1.2704 C.2       1 RES1    0.0000
      3 N1         4.8247   13.9250    1.7726 N.am      1 RES1    0.0000
      4 O2         3.7318   13.2168    1.2594 O.3       1 RES1    0.0000
      5 C2         4.1482   15.6114    0.1809 C.3       1 RES1    0.0000
      6 H1         4.5069   16.4252   -0.2323 H         1 RES1    0.0000
      7 H2         3.2654   15.8002    0.5616 H         1 RES1    0.0000
      8 H3         4.0674   14.9086   -0.4980 H         1 RES1    0.0000
      9 N2         3.5196   10.9101   -1.5254 N.am      1 RES1    0.0000
     10 O3         5.9300    9.4871    1.0521 O.2       1 RES1    0.0000
     11 C3         3.9551   14.5646    4.4916 C.ar      1 RES1    0.0000
     12 H4         3.6465   15.1069    3.7753 H         1 RES1    0.0000
     13 O4         3.8716    6.6827    0.9687 O.3       1 RES1    0.0000
     14 C4         3.4755   14.7771    5.7822 C.ar      1 RES1    0.0000
     15 H5         2.8422   15.4674    5.9422 H         1 RES1    0.0000
     16 O5         2.5232   12.8923   -1.1519 O.2       1 RES1    0.0000
     17 C5         5.5223   13.3288    2.8975 C.3       1 RES1    0.0000
     18 H6         6.4448   13.6873    2.9210 H         1 RES1    0.0000
     19 H7         5.5859   12.3530    2.7444 H         1 RES1    0.0000
     20 N3         4.7876    7.6134    1.4720 N.am      1 RES1    0.0000
     21 O6         4.6093   10.0942   -1.1711 O.3       1 RES1    0.0000
     22 C6         4.8826   13.5627    4.2518 C.ar      1 RES1    0.0000
     23 N4         1.9994    5.3780    3.8496 N.am      1 RES1    0.0000
     24 O7         3.8115    4.6337    2.7061 O.2       1 RES1    0.0000
     25 C7         3.9149   13.9905    6.8314 C.ar      1 RES1    0.0000
     26 H8         3.5876   14.1392    7.7114 H         1 RES1    0.0000
     27 C8         4.8353   12.9851    6.5899 C.ar      1 RES1    0.0000
     28 H9         5.1378   12.4385    7.3057 H         1 RES1    0.0000
     29 C9         5.3176   12.7739    5.3103 C.ar      1 RES1    0.0000
     30 H10        5.9505   12.0839    5.1531 H         1 RES1    0.0000
     31 C10        4.9861   12.8829   -5.0901 C.ar      1 RES1    0.0000
     32 H11        5.6192   13.5887   -5.0306 H         1 RES1    0.0000
     33 C11        4.4941   12.2957   -3.9295 C.ar      1 RES1    0.0000
     34 H12        4.7930   12.5996   -3.0801 H         1 RES1    0.0000
     35 C12        3.5685   11.2679   -4.0111 C.ar      1 RES1    0.0000
     36 C13        2.8916   10.6485   -2.8049 C.3       1 RES1    0.0000
     37 H13        1.9588   10.9789   -2.7667 H         1 RES1    0.0000
     38 H14        2.8536    9.6683   -2.9385 H         1 RES1    0.0000
     39 C14        3.3338   12.0389   -0.8033 C.2       1 RES1    0.0000
     40 C15        4.1954   12.1211    0.4442 C.3       1 RES1    0.0000
     41 H15        4.1346   11.2736    0.9530 H         1 RES1    0.0000
     42 H16        5.1420   12.2653    0.1909 H         1 RES1    0.0000
     43 C16        4.5561   12.4428   -6.3339 C.ar      1 RES1    0.0000
     44 H17        4.8864   12.8536   -7.1243 H         1 RES1    0.0000
     45 C17        3.6488   11.4099   -6.4205 C.ar      1 RES1    0.0000
     46 H18        3.3631   11.0986   -7.2707 H         1 RES1    0.0000
     47 C18        3.1534   10.8254   -5.2651 C.ar      1 RES1    0.0000
     48 H19        2.5249   10.1160   -5.3297 H         1 RES1    0.0000
     49 C19        4.1695    8.8884   -0.5069 C.3       1 RES1    0.0000
     50 H20        4.2587    8.1110   -1.1121 H         1 RES1    0.0000
     51 H21        3.2201    8.9710   -0.2386 H         1 RES1    0.0000
     52 C20        5.0524    8.7058    0.7229 C.2       1 RES1    0.0000
     53 C21        5.6192    7.2176    2.6034 C.3       1 RES1    0.0000
     54 H22        6.5170    7.6210    2.4994 H         1 RES1    0.0000
     55 H23        5.7275    6.2337    2.5949 H         1 RES1    0.0000
     56 C22        5.0408    7.6384    3.9414 C.ar      1 RES1    0.0000
     57 C23        3.7863    9.1647    5.3303 C.ar      1 RES1    0.0000
     58 H24        3.2426    9.9397    5.4172 H         1 RES1    0.0000
     59 C24        4.1092    8.4147    6.4512 C.ar      1 RES1    0.0000
     60 H25        3.7950    8.6802    7.3073 H         1 RES1    0.0000
     61 C25        4.8899    7.2781    6.3191 C.ar      1 RES1    0.0000
     62 H26        5.1091    6.7625    7.0861 H         1 RES1    0.0000
     63 C26        5.3524    6.8920    5.0699 C.ar      1 RES1    0.0000
     64 H27        5.8861    6.1103    4.9861 H         1 RES1    0.0000
     65 C27        2.7165    6.5628    1.8166 C.3       1 RES1    0.0000
     66 H28        1.9204    6.3649    1.2616 H         1 RES1    0.0000
     67 H29        2.5597    7.4223    2.2814 H         1 RES1    0.0000
     68 C28        2.9037    5.4518    2.8516 C.2       1 RES1    0.0000
     69 C29        0.8277    6.2510    4.0281 C.3       1 RES1    0.0000
     70 H30        0.0108    5.7732    3.7372 H         1 RES1    0.0000
     71 H31        0.9282    7.0594    3.4667 H         1 RES1    0.0000
     72 C30        0.6879    6.6590    5.4883 C.3       1 RES1    0.0000
     73 H32       -0.1386    7.1918    5.6034 H         1 RES1    0.0000
     74 H33        1.4564    7.2266    5.7465 H         1 RES1    0.0000
     75 C31        0.6332    5.4376    6.3987 C.3       1 RES1    0.0000
     76 H34       -0.1832    4.9127    6.2063 H         1 RES1    0.0000
     77 H35        0.5989    5.7270    7.3455 H         1 RES1    0.0000
     78 C32        1.8700    4.5691    6.1702 C.3       1 RES1    0.0000
     79 H36        2.6800    5.0647    6.4497 H         1 RES1    0.0000
     80 H37        1.8051    3.7497    6.7218 H         1 RES1    0.0000
     81 C33        1.9893    4.1880    4.7057 C.3       1 RES1    0.0000
     82 H38        2.8242    3.6750    4.5661 H         1 RES1    0.0000
     83 H39        1.2277    3.6080    4.4531 H         1 RES1    0.0000
     84 C34        4.2580    8.7825    4.0829 C.ar      1 RES1    0.0000
     85 H40        4.0460    9.3047    3.3187 H         1 RES1    0.0000
@<TRIPOS>BOND
     1    1    2 2
     2    2    3 1
     3    3    4 1
     4    4   40 1
     5    5    2 1
     6    6    5 1
     7    7    5 1
     8    8    5 1
     9    9   21 1
    10   10   52 2
    11   11   12 1
    12   13   20 1
    13   14   11 ar
    14   15   14 1
    15   16   39 2
    16   17    3 1
    17   18   17 1
    18   19   17 1
    19   20   52 1
    20   21   49 1
    21   22   11 ar
    22   23   68 1
    23   24   68 2
    24   25   14 ar
    25   26   25 1
    26   27   25 ar
    27   28   27 1
    28   29   22 ar
    29   30   29 1
    30   31   32 1
    31   33   31 ar
    32   34   33 1
    33   35   33 ar
    34   36    9 1
    35   37   36 1
    36   38   36 1
    37   39    9 1
    38   40   39 1
    39   41   40 1
    40   42   40 1
    41   43   31 ar
    42   44   43 1
    43   45   43 ar
    44   46   45 1
    45   47   35 ar
    46   48   47 1
    47   49   50 1
    48   51   49 1
    49   52   49 1
    50   53   20 1
    51   54   53 1
    52   55   53 1
    53   56   53 1
    54   57   58 1
    55   59   57 ar
    56   60   59 1
    57   61   59 ar
    58   62   61 1
    59   63   56 ar
    60   64   63 1
    61   65   13 1
    62   66   65 1
    63   67   65 1
    64   68   65 1
    65   69   23 1
    66   70   69 1
    67   71   69 1
    68   72   69 1
    69   73   72 1
    70   74   72 1
    71   75   72 1
    72   76   75 1
    73   77   75 1
    74   78   75 1
    75   79   78 1
    76   80   78 1
    77   81   23 1
    78   82   81 1
    79   83   81 1
    80   84   56 ar
    81   85   84 1
    82   17   22 1
    83   27   29 ar
    84   35   36 1
    85   45   47 ar
    86   57   84 ar
    87   61   63 ar
    88   78   81 1
@<TRIPOS>SUBSTRUCTURE
     1 RES1 1

@<TRIPOS>CRYSIN
   8.4756   11.6611   16.0272  93.3160  95.3780 100.6130   2 1

