# MOL2 file generated by ConQuest
# Please check atom types

@<TRIPOS>MOLECULE
TANDEU
    35    33     2
SMALL
NO_CHARGES
****
Generated from CSD

@<TRIPOS>ATOM
      1 O1         8.6254    0.9908   10.5081 O.2       1 RES1    0.0000
      2 O2         7.3151    1.9589    8.5221 O.3       1 RES1    0.0000
      3 O3         5.4569    2.6610    5.6932 O.2       1 RES1    0.0000
      4 N1        10.1095    2.6996   10.6962 N.am      1 RES1    0.0000
      5 N2         7.0531    2.1216    7.0919 N.am      1 RES1    0.0000
      6 C1        10.8415    3.8043   10.0621 C.3       1 RES1    0.0000
      7 H1        11.1539    4.4395   10.7535 H         1 RES1    0.0000
      8 H2        10.2403    4.2914    9.4433 H         1 RES1    0.0000
      9 C2        12.0356    3.2568    9.2920 C.3       1 RES1    0.0000
     10 H3        12.5611    4.0077    8.9183 H         1 RES1    0.0000
     11 H4        11.7159    2.7006    8.5388 H         1 RES1    0.0000
     12 C3        12.9250    2.4150   10.2070 C.3       1 RES1    0.0000
     13 H5        13.6337    1.9833    9.6676 H         1 RES1    0.0000
     14 H6        13.3642    3.0058   10.8680 H         1 RES1    0.0000
     15 C4        12.1276    1.3409   10.9425 C.3       1 RES1    0.0000
     16 H7        11.8107    0.6620   10.2953 H         1 RES1    0.0000
     17 H8        12.7116    0.8877   11.6007 H         1 RES1    0.0000
     18 C5        10.9333    1.9545   11.6603 C.3       1 RES1    0.0000
     19 H9        10.3918    1.2401   12.0804 H         1 RES1    0.0000
     20 H10       11.2486    2.5650   12.3739 H         1 RES1    0.0000
     21 C6         9.0665    2.0683   10.1110 C.2       1 RES1    0.0000
     22 C7         8.4390    2.7637    8.9123 C.3       1 RES1    0.0000
     23 H11        8.1436    3.6758    9.1569 H         1 RES1    0.0000
     24 H12        9.0909    2.8309    8.1713 H         1 RES1    0.0000
     25 C8         5.3981    3.5883    8.0921 C.3       1 RES1    0.0000
     26 C9         7.5413    1.1670    6.1063 C.3       1 RES1    0.0000
     27 C10        5.8816    2.7640    6.8661 C.2       1 RES1    0.0000
     28 H13        5.7996    3.9434    8.8896 H         1 RES1    0.0000
     29 H14        4.6312    3.0959    8.1737 H         1 RES1    0.0000
     30 H15        5.1259    4.3003    7.5675 H         1 RES1    0.0000
     31 H16        7.4499    1.3204    5.1548 H         1 RES1    0.0000
     32 H17        7.2237    0.3123    6.3433 H         1 RES1    0.0000
     33 H18        8.5046    1.2758    6.3075 H         1 RES1    0.0000
     34 N3         6.5300    2.7791    7.6229 Du        2 SUP2    0.0000
     35 C11        6.4184    2.1787    6.4010 Du        2 SUP2    0.0000
@<TRIPOS>BOND
     1    1   21 2
     2    2    5 1
     3    3   27 2
     4    4    6 1
     5    5   26 1
     6    6    7 1
     7    8    6 1
     8    9    6 1
     9   10    9 1
    10   11    9 1
    11   12    9 1
    12   13   12 1
    13   14   12 1
    14   15   12 1
    15   16   15 1
    16   17   15 1
    17   18    4 1
    18   19   18 1
    19   20   18 1
    20   21    4 1
    21   22    2 1
    22   23   22 1
    23   24   22 1
    24   25   27 1
    25   26   31 1
    26   27    5 1
    27   28   25 1
    28   29   25 1
    29   30   25 1
    30   32   26 1
    31   33   26 1
    32   15   18 1
    33   21   22 1
@<TRIPOS>SUBSTRUCTURE
     1 RES1 1
     2 SUP2 34

@<TRIPOS>CRYSIN
  10.5255    8.9218   23.8648  90.0000  90.0000  90.0000  61 1

