# MOL2 file generated by ConQuest
# Please check atom types

@<TRIPOS>MOLECULE
TANPEE
    10     9     1
SMALL
NO_CHARGES
****
Generated from CSD

@<TRIPOS>ATOM
      1 O1        -0.2839    5.5089    6.6609 O.2       1 RES1    0.0000
      2 N1         0.2792    4.9773    5.6675 N.2       1 RES1    0.0000
      3 N2         0.2735    3.6758    5.7030 N.2       1 RES1    0.0000
      4 N3         1.3533    3.8593    3.5695 N.3       1 RES1    0.0000
      5 N4         0.9757    1.8418    4.5498 N.3       1 RES1    0.0000
      6 C1         0.8893    3.1476    4.5726 C.2       1 RES1    0.0000
      7 H1         1.7847    3.4639    2.8773 H         1 RES1    0.0000
      8 H2         1.3765    4.6984    3.5774 H         1 RES1    0.0000
      9 H3         1.3834    1.3860    3.8506 H         1 RES1    0.0000
     10 H4         0.6121    1.3743    5.2422 H         1 RES1    0.0000
@<TRIPOS>BOND
     1    1    2 2
     2    2    3 1
     3    3    6 2
     4    4    6 1
     5    5    6 1
     6    7    4 1
     7    8    4 1
     8    9    5 1
     9   10    5 1
@<TRIPOS>SUBSTRUCTURE
     1 RES1 1

@<TRIPOS>CRYSIN
   3.6451   11.7460    8.6483  90.0000  99.1670  90.0000 231 1

