# MOL2 file generated by ConQuest
# Please check atom types

@<TRIPOS>MOLECULE
TANPUT
    48    50     2
SMALL
NO_CHARGES
****
Generated from CSD

@<TRIPOS>ATOM
      1 N1         0.1049   -1.5873    3.8937 N.am      1 RES1    0.0000
      2 C1        -0.8712   -1.0140    3.1183 C.2       1 RES1    0.0000
      3 C2        -1.6795   -2.1513    2.4916 C.3       1 RES1    0.0000
      4 C3        -0.7539   -3.3619    2.6688 C.3       1 RES1    0.0000
      5 C4         0.1922   -2.9499    3.7617 C.2       1 RES1    0.0000
      6 O1        -1.0677    0.1697    3.0063 O.2       1 RES1    0.0000
      7 O2         0.9243   -3.6590    4.4134 O.2       1 RES1    0.0000
      8 C5        -2.1394   -1.8626    1.0912 C.ar      1 RES1    0.0000
      9 C6        -3.4837   -1.9682    0.7737 C.ar      1 RES1    0.0000
     10 C7        -3.8776   -1.7351   -0.5314 C.ar      1 RES1    0.0000
     11 C8        -2.9883   -1.3887   -1.5257 C.ar      1 RES1    0.0000
     12 C9        -1.6585   -1.2823   -1.2049 C.ar      1 RES1    0.0000
     13 C10       -1.2271   -1.5183    0.0852 C.ar      1 RES1    0.0000
     14 N2        -5.3021   -1.8668   -0.8723 N.pl3     1 RES1    0.0000
     15 O3        -6.0859   -2.1485    0.0201 O.2       1 RES1    0.0000
     16 O4        -5.6324   -1.7105   -2.0304 O.2       1 RES1    0.0000
     17 N3         3.2853    1.9612    5.0367 N.am      2 RES2    0.0000
     18 C11        4.5610    2.4746    5.1303 C.2       2 RES2    0.0000
     19 C12        5.5015    1.3232    5.4729 C.3       2 RES2    0.0000
     20 C13        4.5574    0.1232    5.6784 C.3       2 RES2    0.0000
     21 C14        3.1999    0.6162    5.2841 C.2       2 RES2    0.0000
     22 O5         4.8412    3.6302    4.9565 O.2       2 RES2    0.0000
     23 O6         2.1777   -0.0282    5.1955 O.2       2 RES2    0.0000
     24 C15        6.3905    1.6429    6.6577 C.ar      2 RES2    0.0000
     25 C16        7.7672    1.5070    6.5558 C.ar      2 RES2    0.0000
     26 C17        8.5373    1.7401    7.6888 C.ar      2 RES2    0.0000
     27 C18        8.0047    2.1161    8.9037 C.ar      2 RES2    0.0000
     28 C19        6.6361    2.2661    8.9789 C.ar      2 RES2    0.0000
     29 C20        5.8364    2.0344    7.8693 C.ar      2 RES2    0.0000
     30 N4         9.9948    1.5654    7.5818 N.pl3     2 RES2    0.0000
     31 O7        10.4767    1.3690    6.4939 O.2       2 RES2    0.0000
     32 O8        10.6585    1.6274    8.6029 O.2       2 RES2    0.0000
     33 H1        -2.5001   -2.2323    3.1083 H         1 RES1    0.0000
     34 H2        -0.1984   -3.4647    1.8549 H         1 RES1    0.0000
     35 H3        -1.1885   -4.2322    2.8743 H         1 RES1    0.0000
     36 H4        -4.1304   -2.2253    1.4706 H         1 RES1    0.0000
     37 H5        -3.2672   -1.2605   -2.3730 H         1 RES1    0.0000
     38 H6        -0.9832   -1.0704   -1.8884 H         1 RES1    0.0000
     39 H7        -0.3244   -1.4154    0.3008 H         1 RES1    0.0000
     40 H8         0.6602   -1.0915    4.3449 H         1 RES1    0.0000
     41 H9         6.0293    1.2253    4.6624 H         2 RES2    0.0000
     42 H10        4.4145   -0.0915    6.6510 H         2 RES2    0.0000
     43 H11        4.7750   -0.6549    5.1470 H         2 RES2    0.0000
     44 H12        8.2215    1.2535    5.7486 H         2 RES2    0.0000
     45 H13        8.5984    2.2534    9.6423 H         2 RES2    0.0000
     46 H14        6.2362    2.5210    9.8429 H         2 RES2    0.0000
     47 H15        4.8506    2.1196    7.9378 H         2 RES2    0.0000
     48 H16        2.5325    2.4577    4.7961 H         2 RES2    0.0000
@<TRIPOS>BOND
     1    1    2 1
     2    2    3 1
     3    3    4 1
     4    4    5 1
     5    5    1 1
     6    6    2 2
     7    7    5 2
     8    8    3 1
     9    9    8 ar
    10   10    9 ar
    11   11   10 ar
    12   12   11 ar
    13   13    8 ar
    14   14   10 1
    15   15   14 2
    16   16   14 2
    17   17   18 1
    18   18   19 1
    19   19   20 1
    20   20   21 1
    21   21   17 1
    22   22   18 2
    23   23   21 2
    24   24   19 1
    25   25   24 ar
    26   26   25 ar
    27   27   26 ar
    28   28   27 ar
    29   29   24 ar
    30   30   26 1
    31   31   30 2
    32   32   30 2
    33   33    3 1
    34   34    4 1
    35   35    4 1
    36   36    9 1
    37   37   11 1
    38   38   12 1
    39   39   13 1
    40   40    1 1
    41   41   19 1
    42   42   20 1
    43   43   20 1
    44   44   25 1
    45   45   27 1
    46   46   28 1
    47   47   29 1
    48   48   17 1
    49   12   13 ar
    50   28   29 ar
@<TRIPOS>SUBSTRUCTURE
     1 RES1 1
     2 RES2 17

@<TRIPOS>CRYSIN
  16.3810    7.0420   18.1570  90.0000 113.0200  90.0000  14 1

