# MOL2 file generated by ConQuest
# Please check atom types

@<TRIPOS>MOLECULE
TAPDOD
    60    60     4
SMALL
NO_CHARGES
****
Generated from CSD

@<TRIPOS>ATOM
      1 O1         2.4251    7.7872    7.6635 O.2       1 RES1    0.0000
      2 O2         5.3437   -1.8714    0.7011 O.2       2 RES2    0.0000
      3 O3         1.3397    3.4110    3.0768 O.2       3 RES3    0.0000
      4 O4        10.1506    2.8503    0.9890 O.2       4 RES4    0.0000
      5 O5        -0.1333    4.2674    6.1448 O.3       1 RES1    0.0000
      6 O6         7.2226    1.5782    3.0829 O.3       2 RES2    0.0000
      7 O7         2.5913    7.6833    4.1634 O.3       3 RES3    0.0000
      8 O8         8.9163   -1.4563    0.0610 O.3       4 RES4    0.0000
      9 N1         1.3386    7.3236    7.1426 N.pl3     1 RES1    0.0000
     10 N2         6.1237   -1.4543    1.6529 N.pl3     2 RES2    0.0000
     11 N3         1.1152    4.6811    3.0605 N.pl3     3 RES3    0.0000
     12 N4        10.3676    1.5787    1.0811 N.pl3     4 RES4    0.0000
     13 N5        -1.0198    6.3794    5.9890 N.ar      1 RES1    0.0000
     14 N6         7.8318   -0.5654    3.6661 N.ar      2 RES2    0.0000
     15 N7         0.6033    7.4174    3.0097 N.ar      3 RES3    0.0000
     16 N8        10.8705   -1.1336    1.2024 N.ar      4 RES4    0.0000
     17 C1        -0.7928    7.6718    6.2457 C.ar      1 RES1    0.0000
     18 C2         7.6521   -1.8663    3.3667 C.ar      2 RES2    0.0000
     19 C3        -0.2277    6.4946    2.4793 C.ar      3 RES3    0.0000
     20 C4        11.6775   -0.2067    1.7680 C.ar      4 RES4    0.0000
     21 C5         0.3307    8.1883    6.7944 C.ar      1 RES1    0.0000
     22 C6         6.8283   -2.3312    2.3913 C.ar      2 RES2    0.0000
     23 C7        -0.0207    5.1671    2.4861 C.ar      3 RES3    0.0000
     24 C8        11.4882    1.1332    1.7138 C.ar      4 RES4    0.0000
     25 C9         1.1594    6.0369    6.9028 C.ar      1 RES1    0.0000
     26 C10        6.2669   -0.1381    1.8967 C.ar      2 RES2    0.0000
     27 C11        1.9750    5.5574    3.6445 C.ar      3 RES3    0.0000
     28 C12        9.5226    0.7095    0.5148 C.ar      4 RES4    0.0000
     29 C13       -0.0244    5.5873    6.3338 C.ar      1 RES1    0.0000
     30 C14        7.1283    0.2605    2.9061 C.ar      2 RES2    0.0000
     31 C15        1.6634    6.8974    3.5564 C.ar      3 RES3    0.0000
     32 C16        9.8123   -0.6337    0.6300 C.ar      4 RES4    0.0000
     33 C17       -1.3378    3.7485    5.5344 C.3       1 RES1    0.0000
     34 C18        8.1551    2.0839    4.0306 C.3       2 RES2    0.0000
     35 C19        2.3811    9.1018    4.0712 C.3       3 RES3    0.0000
     36 C20        9.1784   -2.8646    0.1355 C.3       4 RES4    0.0000
     37 H1        -1.4872    8.2820    6.0296 H         1 RES1    0.0000
     38 H2         8.1368   -2.5053    3.8768 H         2 RES2    0.0000
     39 H3        -1.0212    6.8094    2.0627 H         3 RES3    0.0000
     40 H4        12.4367   -0.5218    2.2449 H         4 RES4    0.0000
     41 H5         0.4202    9.1235    6.9340 H         1 RES1    0.0000
     42 H6         6.7500   -3.2648    2.2341 H         2 RES2    0.0000
     43 H7        -0.6577    4.5758    2.1047 H         3 RES3    0.0000
     44 H8        12.1123    1.7370    2.0979 H         4 RES4    0.0000
     45 H9         1.8427    5.4141    7.1250 H         1 RES1    0.0000
     46 H10        5.7875    0.5037    1.3873 H         2 RES2    0.0000
     47 H11        2.7579    5.2592    4.0902 H         3 RES3    0.0000
     48 H12        8.7515    1.0091    0.0447 H         4 RES4    0.0000
     49 H13       -2.0864    3.9692    6.0784 H         1 RES1    0.0000
     50 H14       -1.4472    4.1308    4.6741 H         1 RES1    0.0000
     51 H15       -1.2709    2.8037    5.4592 H         1 RES1    0.0000
     52 H16        7.9487    1.7398    4.8950 H         2 RES2    0.0000
     53 H17        9.0348    1.8127    3.7894 H         2 RES2    0.0000
     54 H18        8.1110    3.0309    4.0509 H         2 RES2    0.0000
     55 H19        3.0867    9.5553    4.5170 H         3 RES3    0.0000
     56 H20        2.3653    9.3608    3.1574 H         3 RES3    0.0000
     57 H21        1.5531    9.3256    4.4790 H         3 RES3    0.0000
     58 H22        8.4762   -3.3400   -0.2920 H         4 RES4    0.0000
     59 H23       10.0013   -3.0575   -0.3014 H         4 RES4    0.0000
     60 H24        9.2340   -3.1301    1.0452 H         4 RES4    0.0000
@<TRIPOS>BOND
     1    1    9 1
     2    2   10 1
     3    3   11 1
     4    4   12 1
     5    5   29 1
     6    6   30 1
     7    7   31 1
     8    8   32 1
     9    9   21 ar
    10   10   22 ar
    11   11   23 ar
    12   12   24 ar
    13   13   17 ar
    14   14   18 ar
    15   15   19 ar
    16   16   20 ar
    17   17   21 ar
    18   18   22 ar
    19   19   23 ar
    20   20   24 ar
    21   21   41 1
    22   22   42 1
    23   23   43 1
    24   24   44 1
    25   25    9 ar
    26   26   10 ar
    27   27   11 ar
    28   28   12 ar
    29   29   13 ar
    30   30   14 ar
    31   31   15 ar
    32   32   16 ar
    33   33    5 1
    34   34    6 1
    35   35    7 1
    36   36    8 1
    37   37   17 1
    38   38   18 1
    39   39   19 1
    40   40   20 1
    41   45   25 1
    42   46   26 1
    43   47   27 1
    44   48   28 1
    45   49   33 1
    46   50   33 1
    47   51   33 1
    48   52   34 1
    49   53   34 1
    50   54   34 1
    51   55   35 1
    52   56   35 1
    53   57   35 1
    54   58   36 1
    55   59   36 1
    56   60   36 1
    57   25   29 ar
    58   26   30 ar
    59   27   31 ar
    60   28   32 ar
@<TRIPOS>SUBSTRUCTURE
     1 RES1 1
     2 RES2 2
     3 RES3 3
     4 RES4 4

@<TRIPOS>CRYSIN
  12.0940   14.6890    7.0228  96.9910 101.8560 101.3610   2 1

