# MOL2 file generated by ConQuest
# Please check atom types

@<TRIPOS>MOLECULE
TAPJUP
    23    25     1
SMALL
USER_CHARGES
****
Generated from CSD

@<TRIPOS>ATOM
      1 C1        -1.9975    6.3053    0.3799 C.ar      1 RES1    0.0000
      2 C2        -2.7293    5.1232    0.3650 C.ar      1 RES1    0.0000
      3 C3        -2.4824    4.1111    1.2813 C.ar      1 RES1    0.0000
      4 C4        -1.4862    4.2329    2.2495 C.ar      1 RES1    0.0000
      5 C5        -0.7470    5.4030    2.2838 C.ar      1 RES1    0.0000
      6 C6         0.3888    5.8132    3.2327 C.3       1 RES1    0.0000
      7 C7         0.7111    7.1763    2.6487 C.2       1 RES1    0.0000
      8 C8         1.5212    8.3078    2.7956 C.2       1 RES1    0.0000
      9 O1         2.4241    8.6733    3.5264 O.2       1 RES1   -1.0000
     10 O2         1.0750    9.1691    1.7641 O.3       1 RES1    0.0000
     11 N1         0.0343    8.6057    1.0394 N.2       1 RES1    0.0000
     12 N2        -0.1074    7.4561    1.6207 N.pl3     1 RES1    1.0000
     13 C9        -1.0246    6.3922    1.3552 C.ar      1 RES1    0.0000
     14 O3         1.4983    4.9410    3.0823 O.3       1 RES1    0.0000
     15 C10       -0.0769    5.9109    4.6784 C.3       1 RES1    0.0000
     16 H1        -2.0734    7.0363   -0.2849 H         1 RES1    0.0000
     17 H2        -3.4251    5.0472   -0.2990 H         1 RES1    0.0000
     18 H3        -3.0336    3.3149    1.2021 H         1 RES1    0.0000
     19 H4        -1.3748    3.5115    2.9126 H         1 RES1    0.0000
     20 H5        -0.4176    5.0520    5.0082 H         1 RES1    0.0000
     21 H6        -0.7791    6.4525    4.7804 H         1 RES1    0.0000
     22 H7         0.6447    6.1582    5.2500 H         1 RES1    0.0000
     23 H8         1.5981    4.5285    3.9151 H         1 RES1    0.0000
@<TRIPOS>BOND
     1    1    2 ar
     2    2    3 ar
     3    3    4 ar
     4    4    5 ar
     5    5    6 1
     6    6    7 1
     7    7    8 2
     8    8    9 1
     9   10    8 1
    10   11   10 1
    11   12    7 1
    12   13    1 ar
    13   14    6 1
    14   15    6 1
    15   16    1 1
    16   17    2 1
    17   18    3 1
    18   19    4 1
    19   20   15 1
    20   21   15 1
    21   22   15 1
    22   23   14 1
    23    5   13 ar
    24   11   12 2
    25   12   13 1
@<TRIPOS>SUBSTRUCTURE
     1 RES1 1

@<TRIPOS>CRYSIN
   8.7020   12.0630    9.7110  90.0000 115.1000  90.0000  14 2

