# MOL2 file generated by ConQuest
# Please check atom types

@<TRIPOS>MOLECULE
TAPLUU
    47    50     1
SMALL
NO_CHARGES
****
Generated from CSD

@<TRIPOS>ATOM
      1 C1         7.0494    7.4411   15.3776 C.ar      1 RES1    0.0000
      2 C2         5.7766    7.7317   14.9775 C.ar      1 RES1    0.0000
      3 H1         5.4242    8.5832   15.0988 H         1 RES1    0.0000
      4 C3         5.0240    6.7376   14.3903 C.ar      1 RES1    0.0000
      5 H2         4.1533    6.9191   14.1196 H         1 RES1    0.0000
      6 C4         5.5511    5.4730   14.1991 C.ar      1 RES1    0.0000
      7 C5         6.8468    5.2117   14.6212 C.ar      1 RES1    0.0000
      8 H3         7.2065    4.3617   14.5049 H         1 RES1    0.0000
      9 C6         7.6048    6.1972   15.2092 C.ar      1 RES1    0.0000
     10 H4         8.4755    6.0245   15.4873 H         1 RES1    0.0000
     11 C7         4.7680    4.4106   13.5383 C.2       1 RES1    0.0000
     12 C8         3.8264    2.5268   12.9635 C.2       1 RES1    0.0000
     13 C9         4.6604    3.0339   13.8892 C.2       1 RES1    0.0000
     14 C10        5.2567    2.3481   15.0511 C.ar      1 RES1    0.0000
     15 C11        5.1021    2.8685   16.3251 C.ar      1 RES1    0.0000
     16 H5         4.6384    3.6660   16.4411 H         1 RES1    0.0000
     17 C12        5.6253    2.2249   17.4233 C.ar      1 RES1    0.0000
     18 H6         5.5150    2.5875   18.2721 H         1 RES1    0.0000
     19 C13        6.3105    1.0455   17.2620 C.ar      1 RES1    0.0000
     20 H7         6.6580    0.6056   18.0046 H         1 RES1    0.0000
     21 C14        6.4842    0.5162   16.0148 C.ar      1 RES1    0.0000
     22 H8         6.9469   -0.2840   15.9124 H         1 RES1    0.0000
     23 C15        5.9768    1.1610   14.9052 C.ar      1 RES1    0.0000
     24 H9         6.1153    0.8033   14.0575 H         1 RES1    0.0000
     25 C16        3.2797    1.1622   12.7538 C.3       1 RES1    0.0000
     26 H10        3.3832    0.9071   11.8237 H         1 RES1    0.0000
     27 H11        3.7677    0.5255   13.2996 H         1 RES1    0.0000
     28 C17        1.3002   -0.0827   13.0845 C.ar      1 RES1    0.0000
     29 C18       -0.0478   -0.0801   13.4092 C.ar      1 RES1    0.0000
     30 H12       -0.4793    0.7157   13.6213 H         1 RES1    0.0000
     31 C19       -0.7331   -1.2637   13.4141 C.ar      1 RES1    0.0000
     32 H13       -1.6408   -1.2650   13.6149 H         1 RES1    0.0000
     33 C20       -0.1015   -2.4488   13.1275 C.ar      1 RES1    0.0000
     34 H14       -0.5827   -3.2444   13.1404 H         1 RES1    0.0000
     35 C21        1.2348   -2.4654   12.8229 C.ar      1 RES1    0.0000
     36 C22        1.9337   -1.2692   12.7863 C.ar      1 RES1    0.0000
     37 H15        2.8356   -1.2675   12.5593 H         1 RES1    0.0000
     38 C23        1.9629   -3.7517   12.5029 C.3       1 RES1    0.0000
     39 H16        2.0928   -3.8187   11.5546 H         1 RES1    0.0000
     40 H17        1.4417   -4.4981   12.8077 H         1 RES1    0.0000
     41 H18        2.8151   -3.7549   12.9430 H         1 RES1    0.0000
     42 N1         4.0707    4.6938   12.4606 N.2       1 RES1    0.0000
     43 N2         7.8596    8.4864   16.0177 N.pl3     1 RES1    0.0000
     44 O1         3.4600    3.4882   12.0810 O.3       1 RES1    0.0000
     45 O2         1.9194    1.1436   13.1030 O.3       1 RES1    0.0000
     46 O3         7.4291    9.6219   16.0258 O.2       1 RES1    0.0000
     47 O4         8.9151    8.1621   16.5320 O.2       1 RES1    0.0000
@<TRIPOS>BOND
     1    1    2 ar
     2    2    3 1
     3    4    2 ar
     4    5    4 1
     5    6    4 ar
     6    7    6 ar
     7    8    7 1
     8    9    1 ar
     9   10    9 1
    10   11    6 1
    11   12   13 2
    12   13   11 1
    13   14   13 1
    14   15   14 ar
    15   16   15 1
    16   17   15 ar
    17   18   17 1
    18   19   17 ar
    19   20   19 1
    20   21   19 ar
    21   22   21 1
    22   23   14 ar
    23   24   23 1
    24   25   12 1
    25   26   25 1
    26   27   25 1
    27   28   29 ar
    28   29   30 1
    29   31   29 ar
    30   32   31 1
    31   33   31 ar
    32   34   33 1
    33   35   33 ar
    34   36   28 ar
    35   37   36 1
    36   38   35 1
    37   39   38 1
    38   40   38 1
    39   41   38 1
    40   42   11 2
    41   43    1 1
    42   44   12 1
    43   45   25 1
    44   46   43 2
    45   47   43 2
    46    7    9 ar
    47   21   23 ar
    48   28   45 1
    49   35   36 ar
    50   42   44 1
@<TRIPOS>SUBSTRUCTURE
     1 RES1 1

@<TRIPOS>CRYSIN
   9.7610   12.5120   15.9220  90.0000  90.0000  90.0000  19 1

