# MOL2 file generated by ConQuest
# Please check atom types

@<TRIPOS>MOLECULE
TAPMIH
    26    27     1
SMALL
NO_CHARGES
****
Generated from CSD

@<TRIPOS>ATOM
      1 O1         3.3003    0.2942    8.3793 O.3       1 RES1    0.0000
      2 O2         4.7954    0.9174    3.0967 O.3       1 RES1    0.0000
      3 O3        -0.5211    4.7831   10.4643 O.2       1 RES1    0.0000
      4 N1         0.2532    4.0656   11.0775 N.pl3     1 RES1    0.0000
      5 O4         0.4267    4.1643   12.2832 O.2       1 RES1    0.0000
      6 C1         4.4616    0.8028    4.4205 C.ar      1 RES1    0.0000
      7 C2         3.6591   -0.2559    4.7835 C.ar      1 RES1    0.0000
      8 H1         3.3884   -0.8737    4.1440 H         1 RES1    0.0000
      9 C3         3.2553   -0.4030    6.0967 C.ar      1 RES1    0.0000
     10 H2         2.7047   -1.1120    6.3396 H         1 RES1    0.0000
     11 C4         3.6678    0.4973    7.0391 C.ar      1 RES1    0.0000
     12 C5         4.4885    1.5421    6.6954 C.ar      1 RES1    0.0000
     13 H3         4.7797    2.1413    7.3445 H         1 RES1    0.0000
     14 C6         4.8806    1.6983    5.3773 C.ar      1 RES1    0.0000
     15 H4         5.4284    2.4105    5.1383 H         1 RES1    0.0000
     16 C7         2.5150    1.2335    8.9815 C.ar      1 RES1    0.0000
     17 C8         2.5195    1.2292   10.3701 C.ar      1 RES1    0.0000
     18 H5         3.0329    0.6082   10.8343 H         1 RES1    0.0000
     19 C9         1.7609    2.1477   11.0535 C.ar      1 RES1    0.0000
     20 H6         1.7552    2.1536   11.9830 H         1 RES1    0.0000
     21 C10        1.0092    3.0598   10.3485 C.ar      1 RES1    0.0000
     22 C11        0.9633    3.0555    8.9698 C.ar      1 RES1    0.0000
     23 H7         0.4310    3.6643    8.5107 H         1 RES1    0.0000
     24 C12        1.7223    2.1312    8.2857 C.ar      1 RES1    0.0000
     25 H8         1.7024    2.1099    7.3567 H         1 RES1    0.0000
     26 H9         5.1444    1.6578    2.9515 H         1 RES1    0.0000
@<TRIPOS>BOND
     1    1   11 1
     2    2    6 1
     3    3    4 2
     4    4    5 2
     5    6    7 ar
     6    7    8 1
     7    9    7 ar
     8   10    9 1
     9   11    9 ar
    10   12   11 ar
    11   13   12 1
    12   14    6 ar
    13   15   14 1
    14   16    1 1
    15   17   16 ar
    16   18   17 1
    17   19   17 ar
    18   20   19 1
    19   21    4 1
    20   22   21 ar
    21   23   22 1
    22   24   16 ar
    23   25   24 1
    24   26    2 1
    25   12   14 ar
    26   19   21 ar
    27   22   24 ar
@<TRIPOS>SUBSTRUCTURE
     1 RES1 1

@<TRIPOS>CRYSIN
  11.2437    5.3306   17.6010  90.0000  94.8910  90.0000 231 1

