# MOL2 file generated by ConQuest
# Please check atom types

@<TRIPOS>MOLECULE
TAPNII
    54    56     2
SMALL
NO_CHARGES
****
Generated from CSD

@<TRIPOS>ATOM
      1 O1        -2.5715    0.9286   18.2486 O.3       1 RES1    0.0000
      2 C1         0.6248    3.0944   16.9052 C.ar      1 RES1    0.0000
      3 C2        -6.5130    1.9425   17.4428 C.ar      1 RES1    0.0000
      4 C3        -3.8788    1.3066   17.9530 C.ar      1 RES1    0.0000
      5 C4        -1.5421    1.7122   17.7786 C.ar      1 RES1    0.0000
      6 C5        -1.6599    2.5456   16.6963 C.ar      1 RES1    0.0000
      7 H1        -2.4759    2.6363   16.2605 H         1 RES1    0.0000
      8 O2         2.8290    3.7454   17.0738 O.2       1 RES1    0.0000
      9 N1         1.7817    3.8531   16.4578 N.pl3     1 RES1    0.0000
     10 C6        -0.5590    3.2482   16.2587 C.ar      1 RES1    0.0000
     11 H2        -0.6258    3.8210   15.5290 H         1 RES1    0.0000
     12 C7        -4.3607    2.5002   18.3518 C.ar      1 RES1    0.0000
     13 H3        -3.8057    3.1024   18.7934 H         1 RES1    0.0000
     14 C8        -5.6802    2.8258   18.1009 C.ar      1 RES1    0.0000
     15 H4        -6.0112    3.6494   18.3788 H         1 RES1    0.0000
     16 C9        -0.3563    1.5627   18.4239 C.ar      1 RES1    0.0000
     17 H5        -0.2918    0.9917   19.1555 H         1 RES1    0.0000
     18 C10        0.7537    2.2618   17.9895 C.ar      1 RES1    0.0000
     19 H6         1.5724    2.1711   18.4223 H         1 RES1    0.0000
     20 C11       -4.6797    0.3940   17.3341 C.ar      1 RES1    0.0000
     21 H7        -4.3406   -0.4340   17.0807 H         1 RES1    0.0000
     22 C12       -6.0003    0.7142   17.0897 C.ar      1 RES1    0.0000
     23 H8        -6.5527    0.0889   16.6787 H         1 RES1    0.0000
     24 C13       -7.8578    2.2903   17.1475 C.1       1 RES1    0.0000
     25 C14       -8.9224    2.6007   16.8761 C.1       1 RES1    0.0000
     26 H9        -9.7900    2.8524   16.6552 H         1 RES1    0.0000
     27 O3         1.6640    4.5797   15.5055 O.2       1 RES1    0.0000
     28 O4         0.4968    3.4057    3.9854 O.3       2 RES2    0.0000
     29 C15        3.6313    0.8210    3.4665 C.ar      2 RES2    0.0000
     30 C16        1.5009    2.4789    3.8056 C.ar      2 RES2    0.0000
     31 C17        1.2828    1.1589    3.5179 C.ar      2 RES2    0.0000
     32 H10        0.4144    0.8334    3.4364 H         2 RES2    0.0000
     33 N2         4.7611   -0.0836    3.2729 N.pl3     2 RES2    0.0000
     34 C18       -3.5106    2.4922    3.5193 C.ar      2 RES2    0.0000
     35 O5         5.8867    0.3789    3.3488 O.2       2 RES2    0.0000
     36 C19        2.3611    0.3158    3.3491 C.ar      2 RES2    0.0000
     37 H11        2.2294   -0.5853    3.1576 H         2 RES2    0.0000
     38 C20       -0.8354    3.0170    3.8039 C.ar      2 RES2    0.0000
     39 C21       -1.5118    2.4175    4.8052 C.ar      2 RES2    0.0000
     40 H12       -1.0741    2.1898    5.5928 H         2 RES2    0.0000
     41 C22        2.7817    2.9796    3.9597 C.ar      2 RES2    0.0000
     42 H13        2.9166    3.8708    4.1878 H         2 RES2    0.0000
     43 C23       -2.8532    2.1436    4.6576 C.ar      2 RES2    0.0000
     44 H14       -3.3142    1.7157    5.3429 H         2 RES2    0.0000
     45 C24        3.8692    2.1284    3.7641 C.ar      2 RES2    0.0000
     46 H15        4.7390    2.4468    3.8383 H         2 RES2    0.0000
     47 O6         4.5415   -1.2452    3.0450 O.2       2 RES2    0.0000
     48 C25       -2.8085    3.0944    2.5022 C.ar      2 RES2    0.0000
     49 H16       -3.2418    3.3221    1.7110 H         2 RES2    0.0000
     50 C26       -1.4637    3.3630    2.6488 C.ar      2 RES2    0.0000
     51 H17       -0.9905    3.7775    1.9626 H         2 RES2    0.0000
     52 C27       -5.8477    1.9559    3.3187 C.1       2 RES2    0.0000
     53 H18       -6.7424    1.7068    3.2735 H         2 RES2    0.0000
     54 C28       -5.0943    2.1658    3.3567 C.1       2 RES2    0.0000
@<TRIPOS>BOND
     1    1    4 1
     2    2    9 1
     3    3   14 ar
     4    4   12 ar
     5    5    1 1
     6    6    5 ar
     7    7    6 1
     8    8    9 2
     9    9   27 2
    10   10    2 ar
    11   11   10 1
    12   12   13 1
    13   14   12 ar
    14   15   14 1
    15   16    5 ar
    16   17   16 1
    17   18    2 ar
    18   19   18 1
    19   20    4 ar
    20   21   20 1
    21   22    3 ar
    22   23   22 1
    23   24    3 1
    24   25   24 3
    25   26   25 1
    26   28   30 1
    27   29   33 1
    28   30   31 ar
    29   31   32 1
    30   33   35 2
    31   34   43 ar
    32   36   29 ar
    33   37   36 1
    34   38   28 1
    35   39   38 ar
    36   40   39 1
    37   41   30 ar
    38   42   41 1
    39   43   39 ar
    40   44   43 1
    41   45   29 ar
    42   46   45 1
    43   47   33 2
    44   48   34 ar
    45   49   48 1
    46   50   38 ar
    47   51   50 1
    48   52   53 1
    49   54   34 1
    50    6   10 ar
    51   16   18 ar
    52   20   22 ar
    53   31   36 ar
    54   41   45 ar
    55   48   50 ar
    56   52   54 3
@<TRIPOS>SUBSTRUCTURE
     1 RES1 1
     2 RES2 28

@<TRIPOS>CRYSIN
  14.8660    8.8944   19.4960  90.0000 111.7710  90.0000  14 1

