# MOL2 file generated by ConQuest
# Please check atom types

@<TRIPOS>MOLECULE
TAPPIK
    33    34     1
SMALL
NO_CHARGES
****
Generated from CSD

@<TRIPOS>ATOM
      1 O1         3.8718    7.1171    1.3871 O.3       1 RES1    0.0000
      2 C1         3.9446    4.8502    0.8897 C.ar      1 RES1    0.0000
      3 H1         3.1494    4.9648    0.4210 H         1 RES1    0.0000
      4 C2         5.7251    8.6275    0.9043 C.ar      1 RES1    0.0000
      5 H2         6.1778    7.9580    0.4426 H         1 RES1    0.0000
      6 C3         5.7215    5.7775    2.2197 C.ar      1 RES1    0.0000
      7 H3         6.1167    6.5087    2.6392 H         1 RES1    0.0000
      8 C4         6.2958    4.5268    2.3073 C.ar      1 RES1    0.0000
      9 H4         7.0834    4.4051    2.7867 H         1 RES1    0.0000
     10 C5         3.8698    9.3343    2.2074 C.ar      1 RES1    0.0000
     11 H5         3.0655    9.1432    2.6338 H         1 RES1    0.0000
     12 C6         6.2476    9.8985    0.9596 C.ar      1 RES1    0.0000
     13 H6         7.0555   10.0759    0.5340 H         1 RES1    0.0000
     14 C7         4.5184    3.6096    0.9742 C.ar      1 RES1    0.0000
     15 H7         4.1203    2.8784    0.5624 H         1 RES1    0.0000
     16 C8         4.3836   10.6119    2.2581 C.ar      1 RES1    0.0000
     17 H8         3.9147   11.2726    2.7137 H         1 RES1    0.0000
     18 C9         5.5959   10.9354    1.6391 C.ar      1 RES1    0.0000
     19 N1         6.1375   12.2047    1.7233 N.3       1 RES1    0.0000
     20 C10        4.5339    8.3439    1.5325 C.ar      1 RES1    0.0000
     21 C11        5.6966    3.4618    1.6811 C.ar      1 RES1    0.0000
     22 N2         6.3258    2.1515    1.7618 N.pl3     1 RES1    0.0000
     23 C12        4.5462    5.9325    1.4993 C.ar      1 RES1    0.0000
     24 O2         5.8046    1.2205    1.1894 O.2       1 RES1    0.0000
     25 C13        7.2061   12.5818    0.8206 C.3       1 RES1    0.0000
     26 H9         7.9298   11.9585    0.9028 H         1 RES1    0.0000
     27 H10        7.5162   13.4622    1.0426 H         1 RES1    0.0000
     28 H11        6.8792   12.5755   -0.0822 H         1 RES1    0.0000
     29 O3         7.3603    2.0419    2.3833 O.2       1 RES1    0.0000
     30 C14        5.3225   13.2932    2.2089 C.3       1 RES1    0.0000
     31 H12        4.5562   13.3991    1.6396 H         1 RES1    0.0000
     32 H13        5.8365   14.1051    2.2051 H         1 RES1    0.0000
     33 H14        5.0328   13.1006    3.1033 H         1 RES1    0.0000
@<TRIPOS>BOND
     1    1   20 1
     2    2    3 1
     3    4    5 1
     4    6    7 1
     5    8    6 ar
     6    9    8 1
     7   10   11 1
     8   12    4 ar
     9   13   12 1
    10   14    2 ar
    11   15   14 1
    12   16   10 ar
    13   17   16 1
    14   18   12 ar
    15   19   18 1
    16   20    4 ar
    17   21    8 ar
    18   22   21 1
    19   23    1 1
    20   24   22 2
    21   25   19 1
    22   26   25 1
    23   27   25 1
    24   28   25 1
    25   29   22 2
    26   30   19 1
    27   31   30 1
    28   32   30 1
    29   33   30 1
    30    2   23 ar
    31    6   23 ar
    32   10   20 ar
    33   14   21 ar
    34   16   18 ar
@<TRIPOS>SUBSTRUCTURE
     1 RES1 1

@<TRIPOS>CRYSIN
   5.8340   28.6980    7.6833  90.0000  90.2080  90.0000 231 1

