# MOL2 file generated by ConQuest
# Please check atom types

@<TRIPOS>MOLECULE
TAPQAD
    26    27     1
SMALL
NO_CHARGES
****
Generated from CSD

@<TRIPOS>ATOM
      1 O1         8.4245    0.4877   11.2358 O.3       1 RES1    0.0000
      2 C1         4.6037    1.1429   12.5590 C.ar      1 RES1    0.0000
      3 C2         7.1213    0.7032   11.6199 C.ar      1 RES1    0.0000
      4 C3         6.7490    0.1929   12.8500 C.ar      1 RES1    0.0000
      5 H1         7.3582   -0.2883   13.3624 H         1 RES1    0.0000
      6 C4         8.7523    0.3450    9.9003 C.ar      1 RES1    0.0000
      7 C5        10.4160    0.6173    8.2251 C.ar      1 RES1    0.0000
      8 H2        11.2569    0.9179    7.9661 H         1 RES1    0.0000
      9 C6         8.3410   -0.4448    7.6968 C.ar      1 RES1    0.0000
     10 H3         7.7774   -0.8466    7.0749 H         1 RES1    0.0000
     11 C7        10.0126   -0.2082    5.9440 C.1       1 RES1    0.0000
     12 C8         9.5909   -0.0051    7.3088 C.ar      1 RES1    0.0000
     13 C9         6.2327    1.4522   10.8782 C.ar      1 RES1    0.0000
     14 H4         6.4931    1.8045   10.0577 H         1 RES1    0.0000
     15 C10        7.9245   -0.2904    8.9999 C.ar      1 RES1    0.0000
     16 H5         7.0943   -0.6122    9.2692 H         1 RES1    0.0000
     17 C11        4.9657    1.6772   11.3483 C.ar      1 RES1    0.0000
     18 H6         4.3622    2.1838   10.8554 H         1 RES1    0.0000
     19 O2         2.4533    2.0178   12.3582 O.2       1 RES1    0.0000
     20 C12        9.9899    0.7913    9.5237 C.ar      1 RES1    0.0000
     21 H7        10.5421    1.2105   10.1433 H         1 RES1    0.0000
     22 O3         2.9037    0.9026   14.1166 O.2       1 RES1    0.0000
     23 C13        5.4782    0.4004   13.3087 C.ar      1 RES1    0.0000
     24 H8         5.2100    0.0408   14.1235 H         1 RES1    0.0000
     25 N1         3.2455    1.3721   13.0509 N.pl3     1 RES1    0.0000
     26 N2        10.3125   -0.3858    4.8657 N.1       1 RES1    0.0000
@<TRIPOS>BOND
     1    1    3 1
     2    2   17 ar
     3    3    4 ar
     4    4    5 1
     5    6    1 1
     6    7    8 1
     7    9   10 1
     8   11   12 1
     9   12    7 ar
    10   13    3 ar
    11   14   13 1
    12   15    6 ar
    13   16   15 1
    14   17   13 ar
    15   18   17 1
    16   19   25 2
    17   20    6 ar
    18   21   20 1
    19   22   25 2
    20   23    2 ar
    21   24   23 1
    22   25    2 1
    23   26   11 3
    24    4   23 ar
    25    7   20 ar
    26    9   12 ar
    27    9   15 ar
@<TRIPOS>SUBSTRUCTURE
     1 RES1 1

@<TRIPOS>CRYSIN
  13.3740    7.2793   11.7820  90.0000 104.4150  90.0000  14 1

