# MOL2 file generated by ConQuest
# Please check atom types

@<TRIPOS>MOLECULE
TAPYIT
    68    70     2
SMALL
NO_CHARGES
****
Generated from CSD

@<TRIPOS>ATOM
      1 N1         4.7760    9.0133    3.1842 N.am      1 RES1    0.0000
      2 H1         5.5185    9.2525    3.5028 H         1 RES1    0.0000
      3 C1         4.4058    7.6660    3.4281 C.ar      1 RES1    0.0000
      4 C2         3.6362    6.9193    2.5417 C.ar      1 RES1    0.0000
      5 H2         3.2837    7.3486    1.7290 H         1 RES1    0.0000
      6 C3         3.3823    5.5818    2.8023 C.ar      1 RES1    0.0000
      7 H3         2.8538    5.1530    2.2189 H         1 RES1    0.0000
      8 C4         3.8982    4.9689    3.9366 C.ar      1 RES1    0.0000
      9 H4         3.7238    3.9886    4.0476 H         1 RES1    0.0000
     10 C5         4.6571    5.7259    4.8304 C.ar      1 RES1    0.0000
     11 H5         4.9964    5.2730    5.6893 H         1 RES1    0.0000
     12 C6         4.9138    7.0577    4.5711 C.ar      1 RES1    0.0000
     13 H6         5.4250    7.5432    5.1608 H         1 RES1    0.0000
     14 C7         4.1609    9.8836    2.3647 C.2       1 RES1    0.0000
     15 O1         3.0842    9.7575    1.8119 O.2       1 RES1    0.0000
     16 O2         4.9938   10.9622    2.2067 O.3       1 RES1    0.0000
     17 N2         4.3756   12.0509    1.4913 N.2       1 RES1    0.0000
     18 C8         5.3047   12.8471    1.1232 C.2       1 RES1    0.0000
     19 H7         6.2086   12.6306    1.2590 H         1 RES1    0.0000
     20 C9         4.9804   14.1027    0.4550 C.ar      1 RES1    0.0000
     21 C10        3.6559   14.5729    0.3366 C.ar      1 RES1    0.0000
     22 H8         2.9109   14.0296    0.6482 H         1 RES1    0.0000
     23 C11        3.3970   15.7797   -0.2655 C.ar      1 RES1    0.0000
     24 H9         2.4468   16.1084   -0.3740 H         1 RES1    0.0000
     25 C12        4.4330   16.5512   -0.7841 C.ar      1 RES1    0.0000
     26 O3         4.0486   17.7430   -1.3549 O.3       1 RES1    0.0000
     27 C13        5.0746   18.5766   -1.9085 C.3       1 RES1    0.0000
     28 H10        5.6760   18.8590   -1.2466 H         1 RES1    0.0000
     29 H11        4.5955   19.3999   -2.3809 H         1 RES1    0.0000
     30 H12        5.5718   18.0776   -2.6427 H         1 RES1    0.0000
     31 C14        5.7420   16.1143   -0.6918 C.ar      1 RES1    0.0000
     32 H13        6.4258   16.6650   -1.0471 H         1 RES1    0.0000
     33 C15        5.9988   14.8975   -0.0661 C.ar      1 RES1    0.0000
     34 H14        6.8948   14.5532   -0.0125 H         1 RES1    0.0000
     35 N3         9.1930   10.2155    3.0313 N.am      2 RES2    0.0000
     36 H15        9.9358   10.0816    2.6676 H         2 RES2    0.0000
     37 C16        8.7863   11.5658    2.9095 C.ar      2 RES2    0.0000
     38 C17        7.9382   12.1621    3.8481 C.ar      2 RES2    0.0000
     39 H16        7.5434   11.5712    4.6621 H         2 RES2    0.0000
     40 C18        7.6428   13.5231    3.7297 C.ar      2 RES2    0.0000
     41 H17        6.9717   13.9528    4.4452 H         2 RES2    0.0000
     42 C19        8.1740   14.2813    2.7001 C.ar      2 RES2    0.0000
     43 H18        7.9528   15.2599    2.6614 H         2 RES2    0.0000
     44 C20        9.0105   13.6810    1.7651 C.ar      2 RES2    0.0000
     45 H19        9.3940   14.2219    0.9973 H         2 RES2    0.0000
     46 C21        9.3180   12.3323    1.8798 C.ar      2 RES2    0.0000
     47 H20        9.8817   11.9141    1.2216 H         2 RES2    0.0000
     48 C22        8.5656    9.2696    3.7621 C.2       2 RES2    0.0000
     49 O4         7.4672    9.3329    4.2706 O.2       2 RES2    0.0000
     50 O5         9.4090    8.1981    3.8934 O.3       2 RES2    0.0000
     51 N4         8.7580    7.0755    4.5305 N.2       2 RES2    0.0000
     52 C23        9.6663    6.3867    5.1084 C.2       2 RES2    0.0000
     53 H21       10.5707    6.6730    5.1321 H         2 RES2    0.0000
     54 C24        9.3222    5.1446    5.8077 C.ar      2 RES2    0.0000
     55 C25        8.0568    4.5569    5.7379 C.ar      2 RES2    0.0000
     56 H22        7.3612    5.0282    5.1234 H         2 RES2    0.0000
     57 C26        7.7878    3.3882    6.4136 C.ar      2 RES2    0.0000
     58 H23        6.9090    2.9557    6.4198 H         2 RES2    0.0000
     59 C27        8.7733    2.7709    7.1827 C.ar      2 RES2    0.0000
     60 O6         8.4183    1.6072    7.8103 O.3       2 RES2    0.0000
     61 C28        9.4285    0.9477    8.5926 C.3       2 RES2    0.0000
     62 H24       10.1574    0.6257    7.9406 H         2 RES2    0.0000
     63 H25        8.9740    0.0787    9.0002 H         2 RES2    0.0000
     64 H26        9.7549    1.5300    9.3492 H         2 RES2    0.0000
     65 C29       10.0405    3.3319    7.2662 C.ar      2 RES2    0.0000
     66 H27       10.7606    2.8377    7.7661 H         2 RES2    0.0000
     67 C30       10.3079    4.5117    6.5769 C.ar      2 RES2    0.0000
     68 H28       11.1930    4.9374    6.6317 H         2 RES2    0.0000
@<TRIPOS>BOND
     1    1    2 1
     2    3    1 1
     3    4    3 ar
     4    5    4 1
     5    6    4 ar
     6    7    6 1
     7    8    6 ar
     8    9    8 1
     9   10    8 ar
    10   11   10 1
    11   12    3 ar
    12   13   12 1
    13   14    1 1
    14   15   14 2
    15   16   14 1
    16   17   16 1
    17   18   17 2
    18   19   18 1
    19   20   18 1
    20   21   20 ar
    21   22   21 1
    22   23   21 ar
    23   24   23 1
    24   25   23 ar
    25   26   25 1
    26   27   26 1
    27   28   27 1
    28   29   27 1
    29   30   27 1
    30   31   25 ar
    31   32   31 1
    32   33   20 ar
    33   34   33 1
    34   35   36 1
    35   37   35 1
    36   38   37 ar
    37   39   38 1
    38   40   38 ar
    39   41   40 1
    40   42   40 ar
    41   43   42 1
    42   44   42 ar
    43   45   44 1
    44   46   37 ar
    45   47   46 1
    46   48   35 1
    47   49   48 2
    48   50   48 1
    49   51   50 1
    50   52   51 2
    51   53   52 1
    52   54   52 1
    53   55   54 ar
    54   56   55 1
    55   57   55 ar
    56   58   57 1
    57   59   57 ar
    58   60   59 1
    59   61   60 1
    60   62   61 1
    61   63   61 1
    62   64   61 1
    63   65   59 ar
    64   66   65 1
    65   67   54 ar
    66   68   67 1
    67   10   12 ar
    68   31   33 ar
    69   44   46 ar
    70   65   67 ar
@<TRIPOS>SUBSTRUCTURE
     1 RES1 1
     2 RES2 35

@<TRIPOS>CRYSIN
   8.8037   12.1484   12.9823  75.2750  81.0750  80.7460   2 1

