# MOL2 file generated by ConQuest
# Please check atom types

@<TRIPOS>MOLECULE
TAPYAL
    38    38     1
SMALL
NO_CHARGES
****
Generated from CSD

@<TRIPOS>ATOM
      1 O1         3.4161    8.0745    9.6200 O.2       1 RES1    0.0000
      2 O2         4.9627    6.2159   11.7022 O.3       1 RES1    0.0000
      3 O3         6.8438   10.5458   12.0432 O.2       1 RES1    0.0000
      4 N1         5.4895    7.8126    8.8514 N.am      1 RES1    0.0000
      5 H1         6.3339    7.8494    9.0094 H         1 RES1    0.0000
      6 N2         4.7807    9.7151   11.6016 N.am      1 RES1    0.0000
      7 H2         3.9365    9.8808   11.5960 H         1 RES1    0.0000
      8 N3         4.6337    7.4270   12.1983 N.3       1 RES1    0.0000
      9 C1         6.5659    6.7695    5.6806 C.ar      1 RES1    0.0000
     10 H3         6.2997    5.8883    5.8134 H         1 RES1    0.0000
     11 C2         7.4536    7.0806    4.6982 C.ar      1 RES1    0.0000
     12 H4         7.7680    6.3972    4.1532 H         1 RES1    0.0000
     13 C3         7.8847    8.3164    4.4900 C.ar      1 RES1    0.0000
     14 H5         8.5067    8.4768    3.8192 H         1 RES1    0.0000
     15 C4         7.4144    9.3661    5.2572 C.ar      1 RES1    0.0000
     16 H6         7.6934   10.2381    5.0979 H         1 RES1    0.0000
     17 C5         6.4931    9.0719    6.2843 C.ar      1 RES1    0.0000
     18 H7         6.1817    9.7483    6.8405 H         1 RES1    0.0000
     19 C6         6.0710    7.7717    6.4660 C.ar      1 RES1    0.0000
     20 C7         5.0496    7.4244    7.5322 C.3       1 RES1    0.0000
     21 H8         4.8886    6.4681    7.5197 H         1 RES1    0.0000
     22 H9         4.2146    7.8715    7.3310 H         1 RES1    0.0000
     23 C8         4.6453    8.1269    9.8464 C.2       1 RES1    0.0000
     24 C9         5.2407    8.3863   11.1852 C.3       1 RES1    0.0000
     25 H10        6.2183    8.3211   11.1698 H         1 RES1    0.0000
     26 C10        5.6043   10.6555   12.0139 C.2       1 RES1    0.0000
     27 C11        4.9807   11.9389   12.4834 C.3       1 RES1    0.0000
     28 H11        5.2819   12.6673   11.9356 H         1 RES1    0.0000
     29 H12        4.0237   11.8649   12.4149 H         1 RES1    0.0000
     30 H13        5.2230   12.1016   13.3973 H         1 RES1    0.0000
     31 C12        3.6789    5.4987   11.7260 C.3       1 RES1    0.0000
     32 H14        3.0133    5.9802   11.2285 H         1 RES1    0.0000
     33 H15        3.8246    4.6418   11.3179 H         1 RES1    0.0000
     34 H16        3.3753    5.3752   12.6287 H         1 RES1    0.0000
     35 C13        5.5583    7.5284   13.3764 C.3       1 RES1    0.0000
     36 H17        6.4638    7.4838   13.0550 H         1 RES1    0.0000
     37 H18        5.4192    8.3675   13.8208 H         1 RES1    0.0000
     38 H19        5.4037    6.8093   13.9927 H         1 RES1    0.0000
@<TRIPOS>BOND
     1    1   23 2
     2    2    8 1
     3    3   26 2
     4    4    5 1
     5    6    7 1
     6    8   24 1
     7    9   10 1
     8   11    9 ar
     9   12   11 1
    10   13   11 ar
    11   14   13 1
    12   15   13 ar
    13   16   15 1
    14   17   15 ar
    15   18   17 1
    16   19    9 ar
    17   20    4 1
    18   21   20 1
    19   22   20 1
    20   23    4 1
    21   24    6 1
    22   25   24 1
    23   26    6 1
    24   27   26 1
    25   28   27 1
    26   29   27 1
    27   30   27 1
    28   31    2 1
    29   32   31 1
    30   33   31 1
    31   34   31 1
    32   35    8 1
    33   36   35 1
    34   37   35 1
    35   38   35 1
    36   17   19 ar
    37   19   20 1
    38   23   24 1
@<TRIPOS>SUBSTRUCTURE
     1 RES1 1

@<TRIPOS>CRYSIN
   4.8590   10.5870   14.1680  86.8400  80.6600  80.2800   2 1

