# MOL2 file generated by ConQuest
# Please check atom types

@<TRIPOS>MOLECULE
TAQTEN
    62    67     1
SMALL
NO_CHARGES
****
Generated from CSD

@<TRIPOS>ATOM
      1 O1         1.4321    0.1639   10.8498 O.2       1 RES1    0.0000
      2 O2         4.4889   -0.1671    9.8913 O.2       1 RES1    0.0000
      3 O3         5.3409    1.5707   10.8233 O.2       1 RES1    0.0000
      4 N1         1.9407    0.6272    7.6280 N.3       1 RES1    0.0000
      5 N2         4.5737    1.0391   10.0382 N.pl3     1 RES1    0.0000
      6 C1         1.4879   -0.5547    8.4391 C.3       1 RES1    0.0000
      7 H1         2.0917   -1.3364    8.3818 H         1 RES1    0.0000
      8 H2         0.5468   -0.8184    8.2744 H         1 RES1    0.0000
      9 C2         1.6805    0.2805    9.6836 C.2       1 RES1    0.0000
     10 C3         2.2979    1.4047    8.8277 C.3       1 RES1    0.0000
     11 C4         2.9652    0.3656    6.6378 C.3       1 RES1    0.0000
     12 H3         3.7689   -0.0042    7.1033 H         1 RES1    0.0000
     13 C5         3.3705    1.6569    5.9198 C.ar      1 RES1    0.0000
     14 C6         4.7080    1.8722    5.6010 C.ar      1 RES1    0.0000
     15 H4         5.3613    1.2314    5.8553 H         1 RES1    0.0000
     16 C7         5.0901    3.0069    4.9206 C.ar      1 RES1    0.0000
     17 H5         6.0052    3.1519    4.7129 H         1 RES1    0.0000
     18 C8         4.1384    3.9346    4.5428 C.ar      1 RES1    0.0000
     19 H6         4.4064    4.7100    4.0647 H         1 RES1    0.0000
     20 C9         2.8240    3.7550    4.8454 C.ar      1 RES1    0.0000
     21 H7         2.1796    4.4064    4.5929 H         1 RES1    0.0000
     22 C10        2.4369    2.6140    5.5222 C.ar      1 RES1    0.0000
     23 H8         1.5171    2.4795    5.7228 H         1 RES1    0.0000
     24 C11        2.4750   -0.6651    5.6315 C.ar      1 RES1    0.0000
     25 C12        1.2725   -0.5085    4.9564 C.ar      1 RES1    0.0000
     26 H9         0.7066    0.2259    5.1641 H         1 RES1    0.0000
     27 C13        0.8923   -1.4089    3.9877 C.ar      1 RES1    0.0000
     28 H10        0.0702   -1.2828    3.5275 H         1 RES1    0.0000
     29 C14        1.6811   -2.4816    3.6743 C.ar      1 RES1    0.0000
     30 H11        1.4180   -3.0878    2.9921 H         1 RES1    0.0000
     31 C15        2.8633   -2.6760    4.3637 C.ar      1 RES1    0.0000
     32 H12        3.4046   -3.4335    4.1757 H         1 RES1    0.0000
     33 C16        3.2588   -1.7556    5.3342 C.ar      1 RES1    0.0000
     34 H13        4.0796   -1.8838    5.7962 H         1 RES1    0.0000
     35 C17        3.7168    1.9216    9.2002 C.3       1 RES1    0.0000
     36 H14        4.2096    2.1811    8.3711 H         1 RES1    0.0000
     37 C18        3.1139    3.1656    9.8555 C.3       1 RES1    0.0000
     38 H15        2.9455    2.9985   10.8260 H         1 RES1    0.0000
     39 C19        1.8234    2.8724    9.0229 C.3       1 RES1    0.0000
     40 H16        1.9185    3.3389    8.1437 H         1 RES1    0.0000
     41 C20        3.6986    4.5220    9.6568 C.ar      1 RES1    0.0000
     42 C21        4.1401    4.9065    8.3854 C.ar      1 RES1    0.0000
     43 H17        4.1488    4.2709    7.6799 H         1 RES1    0.0000
     44 C22        4.5689    6.2124    8.1383 C.ar      1 RES1    0.0000
     45 H18        4.8763    6.4625    7.2752 H         1 RES1    0.0000
     46 C23        4.5387    7.1444    9.1715 C.ar      1 RES1    0.0000
     47 H19        4.7978    8.0437    9.0068 H         1 RES1    0.0000
     48 C24        4.1338    6.7651   10.4357 C.ar      1 RES1    0.0000
     49 H20        4.1392    7.3997   11.1430 H         1 RES1    0.0000
     50 C25        3.7165    5.4623   10.6864 C.ar      1 RES1    0.0000
     51 H21        3.4432    5.2122   11.5602 H         1 RES1    0.0000
     52 C26        0.4643    3.1866    9.5529 C.ar      1 RES1    0.0000
     53 C27       -0.5746    3.4703    8.6504 C.ar      1 RES1    0.0000
     54 H22       -0.4073    3.4146    7.7157 H         1 RES1    0.0000
     55 C28       -1.8414    3.8306    9.0945 C.ar      1 RES1    0.0000
     56 H23       -2.5336    4.0019    8.4678 H         1 RES1    0.0000
     57 C29       -2.0914    3.9388   10.4428 C.ar      1 RES1    0.0000
     58 H24       -2.9498    4.2036   10.7526 H         1 RES1    0.0000
     59 C30       -1.0880    3.6594   11.3346 C.ar      1 RES1    0.0000
     60 H25       -1.2628    3.7224   12.2657 H         1 RES1    0.0000
     61 C31        0.1738    3.2885   10.9066 C.ar      1 RES1    0.0000
     62 H26        0.8509    3.1004   11.5476 H         1 RES1    0.0000
@<TRIPOS>BOND
     1    1    9 2
     2    2    5 2
     3    3    5 2
     4    4    6 1
     5    5   35 1
     6    6    7 1
     7    8    6 1
     8    9    6 1
     9   10    4 1
    10   11    4 1
    11   12   11 1
    12   13   11 1
    13   14   13 ar
    14   15   14 1
    15   16   14 ar
    16   17   16 1
    17   18   16 ar
    18   19   18 1
    19   20   18 ar
    20   21   20 1
    21   22   13 ar
    22   23   22 1
    23   24   11 1
    24   25   24 ar
    25   26   25 1
    26   27   25 ar
    27   28   27 1
    28   29   27 ar
    29   30   29 1
    30   31   29 ar
    31   32   31 1
    32   33   24 ar
    33   34   33 1
    34   35   10 1
    35   36   35 1
    36   37   35 1
    37   38   37 1
    38   39   10 1
    39   40   39 1
    40   41   37 1
    41   42   41 ar
    42   43   42 1
    43   44   42 ar
    44   45   44 1
    45   46   44 ar
    46   47   46 1
    47   48   46 ar
    48   49   48 1
    49   50   41 ar
    50   51   50 1
    51   52   39 1
    52   53   52 ar
    53   54   53 1
    54   55   53 ar
    55   56   55 1
    56   57   55 ar
    57   58   57 1
    58   59   57 ar
    59   60   59 1
    60   61   52 ar
    61   62   61 1
    62    9   10 1
    63   20   22 ar
    64   31   33 ar
    65   37   39 1
    66   48   50 ar
    67   59   61 ar
@<TRIPOS>SUBSTRUCTURE
     1 RES1 1

@<TRIPOS>CRYSIN
  12.9332   10.5064   17.9445  90.0000  93.7490  90.0000  14 1

