# MOL2 file generated by ConQuest
# Please check atom types

@<TRIPOS>MOLECULE
TARDIC
    45    47     1
SMALL
NO_CHARGES
****
Generated from CSD

@<TRIPOS>ATOM
      1 O1        12.4402    8.5600    5.5943 O.3       1 RES1    0.0000
      2 N1        10.6723    6.5159    5.0390 N.am      1 RES1    0.0000
      3 C1        12.0574    6.2705    4.9881 C.ar      1 RES1    0.0000
      4 C2        14.2888    7.1140    5.3440 C.ar      1 RES1    0.0000
      5 H1        14.8680    7.8095    5.5613 H         1 RES1    0.0000
      6 O2        16.6439    4.5123    4.8344 O.2       1 RES1    0.0000
      7 C3        12.9217    7.3106    5.2906 C.ar      1 RES1    0.0000
      8 N2        16.2099    5.6084    5.1508 N.pl3     1 RES1    0.0000
      9 O3         9.0299    8.1117    4.9094 O.2       1 RES1    0.0000
     10 C4         9.7130    5.3919    5.1470 C.3       1 RES1    0.0000
     11 H2        10.2567    4.5971    5.3249 H         1 RES1    0.0000
     12 C5        14.7643    5.8546    5.0657 C.ar      1 RES1    0.0000
     13 O4        16.9348    6.5177    5.5359 O.2       1 RES1    0.0000
     14 C6        13.9464    4.8100    4.7225 C.ar      1 RES1    0.0000
     15 H3        14.3009    3.9710    4.5332 H         1 RES1    0.0000
     16 C7        12.5896    5.0283    4.6628 C.ar      1 RES1    0.0000
     17 H4        12.0222    4.3382    4.4023 H         1 RES1    0.0000
     18 C8        11.2636    8.8974    4.7988 C.3       1 RES1    0.0000
     19 H5        10.8887    9.7228    5.1711 H         1 RES1    0.0000
     20 C9         8.7723    5.5091    6.3251 C.3       1 RES1    0.0000
     21 H6         8.1989    6.2822    6.2082 H         1 RES1    0.0000
     22 H7         9.2841    5.6327    7.1397 H         1 RES1    0.0000
     23 C10       10.2086    7.8140    4.9475 C.2       1 RES1    0.0000
     24 C11       11.6508    9.1915    3.3411 C.3       1 RES1    0.0000
     25 H8        12.1368    8.4139    2.9954 H         1 RES1    0.0000
     26 C12        7.1787    3.9638    5.1597 C.3       1 RES1    0.0000
     27 H9         6.6980    3.1267    5.2525 H         1 RES1    0.0000
     28 H10        6.5307    4.6666    4.9970 H         1 RES1    0.0000
     29 C13        7.9271    4.2579    6.4369 C.3       1 RES1    0.0000
     30 H11        8.4992    3.5047    6.6530 H         1 RES1    0.0000
     31 H12        7.2917    4.3662    7.1626 H         1 RES1    0.0000
     32 C14        8.1228    3.8718    3.9892 C.3       1 RES1    0.0000
     33 H13        7.6087    3.7527    3.1746 H         1 RES1    0.0000
     34 H14        8.6914    3.0942    4.0985 H         1 RES1    0.0000
     35 C15        8.9905    5.1077    3.8533 C.3       1 RES1    0.0000
     36 H15        9.6364    4.9733    3.1441 H         1 RES1    0.0000
     37 H16        8.4368    5.8682    3.6169 H         1 RES1    0.0000
     38 C16       10.4572    9.4116    2.4680 C.3       1 RES1    0.0000
     39 H17        9.9395   10.1432    2.8124 H         1 RES1    0.0000
     40 H18        9.9173    8.6169    2.4566 H         1 RES1    0.0000
     41 H19       10.7477    9.6164    1.5759 H         1 RES1    0.0000
     42 C17       12.5798   10.3877    3.2763 C.3       1 RES1    0.0000
     43 H20       12.7998   10.5708    2.3600 H         1 RES1    0.0000
     44 H21       13.3790   10.1973    3.7681 H         1 RES1    0.0000
     45 H22       12.1428   11.1518    3.6588 H         1 RES1    0.0000
@<TRIPOS>BOND
     1    1    7 1
     2    2    3 1
     3    3    7 ar
     4    4    5 1
     5    6    8 2
     6    7    4 ar
     7    8   12 1
     8    9   23 2
     9   10    2 1
    10   11   10 1
    11   12    4 ar
    12   13    8 2
    13   14   12 ar
    14   15   14 1
    15   16    3 ar
    16   17   16 1
    17   18    1 1
    18   19   18 1
    19   20   10 1
    20   21   20 1
    21   22   20 1
    22   23    2 1
    23   24   18 1
    24   25   24 1
    25   26   27 1
    26   28   26 1
    27   29   20 1
    28   30   29 1
    29   31   29 1
    30   32   26 1
    31   33   32 1
    32   34   32 1
    33   35   10 1
    34   36   35 1
    35   37   35 1
    36   38   24 1
    37   39   38 1
    38   40   38 1
    39   41   38 1
    40   42   24 1
    41   43   42 1
    42   44   42 1
    43   45   42 1
    44   14   16 ar
    45   18   23 1
    46   26   29 1
    47   32   35 1
@<TRIPOS>SUBSTRUCTURE
     1 RES1 1

@<TRIPOS>CRYSIN
  29.1530    9.0210   12.7261  90.0000  93.0010  90.0000  15 1

