# MOL2 file generated by ConQuest
# Please check atom types

@<TRIPOS>MOLECULE
TARLOQ
    54    55     1
SMALL
NO_CHARGES
****
Generated from CSD

@<TRIPOS>ATOM
      1 O1        -3.9416    1.9342    9.8161 O.3       1 RES1    0.0000
      2 O2        -2.1298   -0.4831   11.6894 O.2       1 RES1    0.0000
      3 O3        -2.3654    3.7484    8.6784 O.2       1 RES1    0.0000
      4 O4        -3.5142    4.7885    7.1908 O.2       1 RES1    0.0000
      5 O5        -5.6172    1.0271    4.6302 O.3       1 RES1    0.0000
      6 N1        -1.4983    1.3063   10.4771 N.am      1 RES1    0.0000
      7 H1        -1.7773    1.9883   10.0000 H         1 RES1    0.0000
      8 N2        -3.2461    3.7797    7.8332 N.pl3     1 RES1    0.0000
      9 C1        -3.8648    0.9092   10.8284 C.3       1 RES1    0.0000
     10 H2        -4.3580    0.1232   10.5134 H         1 RES1    0.0000
     11 C2        -2.4109    0.5171   11.0330 C.2       1 RES1    0.0000
     12 C3        -0.0758    1.0074   10.5214 C.3       1 RES1    0.0000
     13 H3         0.1111    0.4560   11.2972 H         1 RES1    0.0000
     14 H4         0.4223    1.8342   10.6161 H         1 RES1    0.0000
     15 C4         0.3845    0.2851    9.2692 C.3       1 RES1    0.0000
     16 H5         1.3230    0.0578    9.3619 H         1 RES1    0.0000
     17 H6        -0.1142   -0.5421    9.1787 H         1 RES1    0.0000
     18 C5         0.1984    1.1095    8.0240 C.ar      1 RES1    0.0000
     19 C6        -0.7368    0.7951    7.0733 C.ar      1 RES1    0.0000
     20 H7        -1.2460    0.0235    7.1716 H         1 RES1    0.0000
     21 C7        -0.9382    1.6130    5.9594 C.ar      1 RES1    0.0000
     22 H8        -1.5829    1.3891    5.3279 H         1 RES1    0.0000
     23 C8        -0.1971    2.7264    5.7982 C.ar      1 RES1    0.0000
     24 H9        -0.3282    3.2693    5.0552 H         1 RES1    0.0000
     25 C9         0.7452    3.0547    6.7245 C.ar      1 RES1    0.0000
     26 H10        1.2544    3.8252    6.6174 H         1 RES1    0.0000
     27 C10        0.9440    2.2492    7.8185 C.ar      1 RES1    0.0000
     28 H11        1.5996    2.4785    8.4379 H         1 RES1    0.0000
     29 C11       -4.5775    1.4640   12.0847 C.3       1 RES1    0.0000
     30 C12       -6.0237    1.7582   11.6891 C.3       1 RES1    0.0000
     31 H12       -6.5166    2.0426   12.4631 H         1 RES1    0.0000
     32 H13       -6.4248    0.9646   11.3270 H         1 RES1    0.0000
     33 H14       -6.0390    2.4546   11.0267 H         1 RES1    0.0000
     34 C13       -3.8758    2.7147   12.5871 C.3       1 RES1    0.0000
     35 H15       -4.3511    3.0667   13.3440 H         1 RES1    0.0000
     36 H16       -3.8548    3.3726   11.8879 H         1 RES1    0.0000
     37 H17       -2.9784    2.4955   12.8472 H         1 RES1    0.0000
     38 C14       -4.6067    0.4094   13.1846 C.3       1 RES1    0.0000
     39 H18       -3.7133    0.2440   13.4942 H         1 RES1    0.0000
     40 H19       -4.9806   -0.4045   12.8384 H         1 RES1    0.0000
     41 H20       -5.1450    0.7231   13.9148 H         1 RES1    0.0000
     42 C15       -4.2911    1.6388    8.5336 C.ar      1 RES1    0.0000
     43 C16       -4.0232    2.5743    7.5431 C.ar      1 RES1    0.0000
     44 C17       -4.4591    2.4281    6.2330 C.ar      1 RES1    0.0000
     45 H21       -4.2871    3.0895    5.6017 H         1 RES1    0.0000
     46 C18       -5.1454    1.2958    5.8848 C.ar      1 RES1    0.0000
     47 C19       -5.4021    0.3342    6.8482 C.ar      1 RES1    0.0000
     48 H22       -5.8529   -0.4428    6.6085 H         1 RES1    0.0000
     49 C20       -5.0037    0.5072    8.1514 C.ar      1 RES1    0.0000
     50 H23       -5.2126   -0.1400    8.7856 H         1 RES1    0.0000
     51 C21       -5.4793    2.0091    3.6388 C.3       1 RES1    0.0000
     52 H24       -5.8780    2.8285    3.9424 H         1 RES1    0.0000
     53 H25       -5.9180    1.7185    2.8362 H         1 RES1    0.0000
     54 H26       -4.5475    2.1548    3.4588 H         1 RES1    0.0000
@<TRIPOS>BOND
     1    1    9 1
     2    2   11 2
     3    3    8 2
     4    4    8 2
     5    5   46 1
     6    6    7 1
     7    8   43 1
     8    9   10 1
     9   11    6 1
    10   12    6 1
    11   13   12 1
    12   14   12 1
    13   15   12 1
    14   16   15 1
    15   17   15 1
    16   18   15 1
    17   19   18 ar
    18   20   19 1
    19   21   19 ar
    20   22   21 1
    21   23   21 ar
    22   24   23 1
    23   25   23 ar
    24   26   25 1
    25   27   18 ar
    26   28   27 1
    27   29    9 1
    28   30   29 1
    29   31   30 1
    30   32   30 1
    31   33   30 1
    32   34   29 1
    33   35   34 1
    34   36   34 1
    35   37   34 1
    36   38   29 1
    37   39   38 1
    38   40   38 1
    39   41   38 1
    40   42    1 1
    41   43   42 ar
    42   44   43 ar
    43   45   44 1
    44   46   44 ar
    45   47   46 ar
    46   48   47 1
    47   49   42 ar
    48   50   49 1
    49   51    5 1
    50   52   51 1
    51   53   51 1
    52   54   51 1
    53    9   11 1
    54   25   27 ar
    55   47   49 ar
@<TRIPOS>SUBSTRUCTURE
     1 RES1 1

@<TRIPOS>CRYSIN
   9.2480   10.5960   11.8040  91.0010 109.8870 103.1960   2 1

