# MOL2 file generated by ConQuest
# Please check atom types

@<TRIPOS>MOLECULE
TARZUJ
    28    28     1
SMALL
NO_CHARGES
****
Generated from CSD

@<TRIPOS>ATOM
      1 N1         0.2701    1.0992    7.8085 N.am      1 RES1    0.0000
      2 H1         0.2466    0.2557    7.9729 H         1 RES1    0.0000
      3 N2         0.7482    1.5533    6.5961 N.2       1 RES1    0.0000
      4 C1         1.6867    1.2593    4.4780 C.2       1 RES1    0.0000
      5 O1        -0.5566    1.5969    9.8438 O.2       1 RES1    0.0000
      6 O2         2.6803    1.0436    2.4999 O.3       1 RES1    0.0000
      7 H2         3.0057    0.3493    2.0745 H         1 RES1    0.0000
      8 N3        -0.1141    6.1994    7.9866 N.ar      1 RES1    0.0000
      9 N4         2.2877    0.4314    3.6943 N.2       1 RES1    0.0000
     10 C2        -0.6556    5.3534    7.0957 C.ar      1 RES1    0.0000
     11 H3        -1.0294    5.7084    6.3218 H         1 RES1    0.0000
     12 C3        -0.1448    3.4482    8.4273 C.ar      1 RES1    0.0000
     13 C4        -0.1630    1.9839    8.7434 C.2       1 RES1    0.0000
     14 C5        -0.6865    3.9866    7.2707 C.ar      1 RES1    0.0000
     15 H4        -1.0640    3.4354    6.6245 H         1 RES1    0.0000
     16 C6         1.2289    0.6905    5.7669 C.2       1 RES1    0.0000
     17 C7         1.4164    2.6910    4.1183 C.3       1 RES1    0.0000
     18 H5         2.2464    3.1381    3.9354 H         1 RES1    0.0000
     19 H6         0.9726    3.1262    4.8491 H         1 RES1    0.0000
     20 H7         0.8566    2.7248    3.3392 H         1 RES1    0.0000
     21 C8         0.3872    5.6713    9.1044 C.ar      1 RES1    0.0000
     22 H8         0.7603    6.2450    9.7353 H         1 RES1    0.0000
     23 C9         0.3798    4.3162    9.3747 C.ar      1 RES1    0.0000
     24 H9         0.7203    3.9914   10.1773 H         1 RES1    0.0000
     25 C10        1.3423   -0.7859    6.0245 C.3       1 RES1    0.0000
     26 H10        1.7763   -0.9306    6.8678 H         1 RES1    0.0000
     27 H11        1.8580   -1.1937    5.3245 H         1 RES1    0.0000
     28 H12        0.4654   -1.1759    6.0451 H         1 RES1    0.0000
@<TRIPOS>BOND
     1    1    2 1
     2    3    1 1
     3    4    9 2
     4    5   13 2
     5    6    7 1
     6    8   10 ar
     7    9    6 1
     8   10   11 1
     9   12   13 1
    10   13    1 1
    11   14   10 ar
    12   15   14 1
    13   16    3 2
    14   17    4 1
    15   18   17 1
    16   19   17 1
    17   20   17 1
    18   21    8 ar
    19   22   21 1
    20   23   12 ar
    21   24   23 1
    22   25   16 1
    23   26   25 1
    24   27   25 1
    25   28   25 1
    26    4   16 1
    27   12   14 ar
    28   21   23 ar
@<TRIPOS>SUBSTRUCTURE
     1 RES1 1

@<TRIPOS>CRYSIN
   3.8556   14.8655   18.5879  90.0000  92.3880  90.0000  14 1

