# MOL2 file generated by ConQuest
# Please check atom types

@<TRIPOS>MOLECULE
TARZOD
    29    29     1
SMALL
NO_CHARGES
****
Generated from CSD

@<TRIPOS>ATOM
      1 N1        10.1036    1.2328    8.6040 N.am      1 RES1    0.0000
      2 H1        10.7491    0.7326    8.3340 H         1 RES1    0.0000
      3 O1        12.3656    2.8354   13.7063 O.3       1 RES1    0.0000
      4 H2        13.0907    2.4937   14.0874 H         1 RES1    0.0000
      5 O2         8.0314    2.0817    8.2282 O.2       1 RES1    0.0000
      6 N2        10.1995    1.9315    9.7980 N.2       1 RES1    0.0000
      7 C1         8.9301    0.6050    6.5873 C.ar      1 RES1    0.0000
      8 C2         8.9736    1.3553    7.8760 C.2       1 RES1    0.0000
      9 N3        12.3904    2.2037   12.4537 N.2       1 RES1    0.0000
     10 C3        11.3193    1.8179   10.4258 C.2       1 RES1    0.0000
     11 C4        10.0715    0.3357    5.8364 C.ar      1 RES1    0.0000
     12 H3        10.9110    0.5496    6.1753 H         1 RES1    0.0000
     13 C5        11.3549    2.4856   11.7485 C.2       1 RES1    0.0000
     14 C6         7.6751    0.2560    6.0805 C.ar      1 RES1    0.0000
     15 H4         6.9076    0.4360    6.5740 H         1 RES1    0.0000
     16 C7         9.9569   -0.2523    4.5806 C.ar      1 RES1    0.0000
     17 H5        10.7185   -0.4161    4.0726 H         1 RES1    0.0000
     18 C8         8.7165   -0.5910    4.0880 C.ar      1 RES1    0.0000
     19 H6         8.6434   -0.9790    3.2450 H         1 RES1    0.0000
     20 C9         7.5741   -0.3578    4.8410 C.ar      1 RES1    0.0000
     21 H7         6.7418   -0.6124    4.5132 H         1 RES1    0.0000
     22 C10       12.5123    1.0513    9.9440 C.3       1 RES1    0.0000
     23 H8        12.3306    0.1099    9.9962 H         1 RES1    0.0000
     24 H9        13.2718    1.2623   10.4927 H         1 RES1    0.0000
     25 H10       12.7004    1.2904    9.0334 H         1 RES1    0.0000
     26 C11       10.2430    3.3790   12.1826 C.3       1 RES1    0.0000
     27 H11       10.1228    3.3023   13.1316 H         1 RES1    0.0000
     28 H12        9.4329    3.1230   11.7353 H         1 RES1    0.0000
     29 H13       10.4570    4.2880   11.9591 H         1 RES1    0.0000
@<TRIPOS>BOND
     1    1    2 1
     2    3    4 1
     3    5    8 2
     4    6    1 1
     5    7    8 1
     6    8    1 1
     7    9    3 1
     8   10    6 2
     9   11    7 ar
    10   12   11 1
    11   13    9 2
    12   14    7 ar
    13   15   14 1
    14   16   11 ar
    15   17   16 1
    16   18   16 ar
    17   19   18 1
    18   20   14 ar
    19   21   20 1
    20   22   10 1
    21   23   22 1
    22   24   22 1
    23   25   22 1
    24   26   13 1
    25   27   26 1
    26   28   26 1
    27   29   26 1
    28   10   13 1
    29   18   20 ar
@<TRIPOS>SUBSTRUCTURE
     1 RES1 1

@<TRIPOS>CRYSIN
  12.7540    7.3778   23.3120  90.0000  90.0000  90.0000  61 1

