# MOL2 file generated by ConQuest
# Please check atom types

@<TRIPOS>MOLECULE
TASBOF
    54    56     1
SMALL
NO_CHARGES
****
Generated from CSD

@<TRIPOS>ATOM
      1 O1         0.8510   10.0915    5.3180 O.3       1 RES1    0.0000
      2 O2         1.4395   14.6992    6.2154 O.3       1 RES1    0.0000
      3 O3         6.3410   15.7663   -0.5810 O.3       1 RES1    0.0000
      4 O4         5.6267   14.0093    3.7499 O.3       1 RES1    0.0000
      5 O5         1.9782   16.0742    3.8545 O.3       1 RES1    0.0000
      6 H1         1.5894   16.1230    4.6127 H         1 RES1    0.0000
      7 O6         6.9103   18.6699    7.8849 O.2       1 RES1    0.0000
      8 O7         6.8449   16.8559    9.0354 O.2       1 RES1    0.0000
      9 N1         6.5224   17.5227    8.0695 N.pl3     1 RES1    0.0000
     10 C1         3.0960   15.1843    4.0575 C.3       1 RES1    0.0000
     11 C2         2.5558   13.7821    4.3673 C.ar      1 RES1    0.0000
     12 C3         2.7990   12.6825    3.5681 C.ar      1 RES1    0.0000
     13 H2         3.3497   12.7825    2.8261 H         1 RES1    0.0000
     14 C4         2.2494   11.4297    3.8321 C.ar      1 RES1    0.0000
     15 H3         2.4267   10.7105    3.2709 H         1 RES1    0.0000
     16 C5         1.4440   11.2718    4.9294 C.ar      1 RES1    0.0000
     17 C6         1.1728   12.3432    5.7520 C.ar      1 RES1    0.0000
     18 H4         0.6270   12.2300    6.4967 H         1 RES1    0.0000
     19 C7         1.7086   13.5807    5.4750 C.ar      1 RES1    0.0000
     20 C8         3.9021   15.2545    2.7552 C.ar      1 RES1    0.0000
     21 C9         3.4307   15.9338    1.6507 C.ar      1 RES1    0.0000
     22 H5         2.5670   16.2775    1.6736 H         1 RES1    0.0000
     23 C10        4.1924   16.1256    0.5060 C.ar      1 RES1    0.0000
     24 H6         3.8407   16.5865   -0.2217 H         1 RES1    0.0000
     25 C11        5.4766   15.6241    0.4621 C.ar      1 RES1    0.0000
     26 C12        5.9728   14.9151    1.5441 C.ar      1 RES1    0.0000
     27 H7         6.8342   14.5673    1.5112 H         1 RES1    0.0000
     28 C13        5.1991   14.7230    2.6686 C.ar      1 RES1    0.0000
     29 C14        3.9742   15.7697    5.1828 C.ar      1 RES1    0.0000
     30 C15        4.3485   17.1021    5.0890 C.ar      1 RES1    0.0000
     31 H8         4.0295   17.6152    4.3824 H         1 RES1    0.0000
     32 C16        5.1825   17.6803    6.0209 C.ar      1 RES1    0.0000
     33 H9         5.4376   18.5712    5.9374 H         1 RES1    0.0000
     34 C17        5.6297   16.9229    7.0721 C.ar      1 RES1    0.0000
     35 C18        5.2522   15.6071    7.2190 C.ar      1 RES1    0.0000
     36 H10        5.5431   15.1107    7.9500 H         1 RES1    0.0000
     37 C19        4.4380   15.0387    6.2662 C.ar      1 RES1    0.0000
     38 H11        4.1928   14.1456    6.3512 H         1 RES1    0.0000
     39 C20        0.9666    8.9755    4.4714 C.3       1 RES1    0.0000
     40 H12        0.6356    9.2002    3.5986 H         1 RES1    0.0000
     41 H13        0.4542    8.2478    4.8302 H         1 RES1    0.0000
     42 H14        1.8888    8.7167    4.4065 H         1 RES1    0.0000
     43 C21        0.7014   14.5574    7.4134 C.3       1 RES1    0.0000
     44 H15       -0.1931   14.2765    7.2071 H         1 RES1    0.0000
     45 H16        0.6733   15.3997    7.8737 H         1 RES1    0.0000
     46 H17        1.1219   13.9002    7.9726 H         1 RES1    0.0000
     47 C22        5.9401   16.5769   -1.6801 C.3       1 RES1    0.0000
     48 H18        5.1765   16.1812   -2.1072 H         1 RES1    0.0000
     49 H19        6.6614   16.6410   -2.3106 H         1 RES1    0.0000
     50 H20        5.7116   17.4535   -1.3643 H         1 RES1    0.0000
     51 C23        7.0083   13.7523    3.8910 C.3       1 RES1    0.0000
     52 H21        7.2876   13.1260    3.2201 H         1 RES1    0.0000
     53 H22        7.1788   13.3859    4.7609 H         1 RES1    0.0000
     54 H23        7.4984   14.5709    3.7879 H         1 RES1    0.0000
@<TRIPOS>BOND
     1    1   16 1
     2    2   19 1
     3    3   25 1
     4    4   28 1
     5    5    6 1
     6    7    9 2
     7    8    9 2
     8    9   34 1
     9   10    5 1
    10   11   10 1
    11   12   11 ar
    12   13   12 1
    13   14   12 ar
    14   15   14 1
    15   16   14 ar
    16   17   16 ar
    17   18   17 1
    18   19   11 ar
    19   20   10 1
    20   21   20 ar
    21   22   21 1
    22   23   21 ar
    23   24   23 1
    24   25   23 ar
    25   26   25 ar
    26   27   26 1
    27   28   20 ar
    28   29   10 1
    29   30   29 ar
    30   31   30 1
    31   32   30 ar
    32   33   32 1
    33   34   32 ar
    34   35   34 ar
    35   36   35 1
    36   37   29 ar
    37   38   37 1
    38   39    1 1
    39   40   39 1
    40   41   39 1
    41   42   39 1
    42   43    2 1
    43   44   43 1
    44   45   43 1
    45   46   43 1
    46   47    3 1
    47   48   47 1
    48   49   47 1
    49   50   47 1
    50   51    4 1
    51   52   51 1
    52   53   51 1
    53   54   51 1
    54   17   19 ar
    55   26   28 ar
    56   35   37 ar
@<TRIPOS>SUBSTRUCTURE
     1 RES1 1

@<TRIPOS>CRYSIN
   8.3140   18.1750   14.1290  90.0000  91.6340  90.0000  14 1

