# MOL2 file generated by ConQuest
# Please check atom types

@<TRIPOS>MOLECULE
TASLII
   108   114     2
SMALL
NO_CHARGES
****
Generated from CSD

@<TRIPOS>ATOM
      1 N1         1.0037   12.9988    7.1782 N.pl3     1 RES1    0.0000
      2 O1         4.5245   14.5774   12.2346 O.3       1 RES1    0.0000
      3 O2         6.1977   14.1033   10.8171 O.2       1 RES1    0.0000
      4 O3         1.3984   12.6602    6.0674 O.2       1 RES1    0.0000
      5 O4        -0.1631   13.1193    7.4776 O.2       1 RES1    0.0000
      6 C1         5.5520   13.9514   15.4108 C.3       1 RES1    0.0000
      7 C2         4.3318   14.8725   15.3001 C.3       1 RES1    0.0000
      8 C3         4.7521   15.8689   14.2329 C.3       1 RES1    0.0000
      9 C4         5.5137   15.0669   13.2093 C.3       1 RES1    0.0000
     10 C5         6.1457   13.8882   13.9679 C.3       1 RES1    0.0000
     11 C6         7.7044   13.8598   14.1240 C.3       1 RES1    0.0000
     12 C7         7.8866   13.7080   15.6722 C.3       1 RES1    0.0000
     13 C8         7.7555   12.2948   16.1785 C.2       1 RES1    0.0000
     14 C9         6.4304   11.6414   15.9117 C.3       1 RES1    0.0000
     15 C10        5.2192   12.5763   15.9716 C.3       1 RES1    0.0000
     16 C11        6.7253   14.5159   16.2130 C.3       1 RES1    0.0000
     17 C12        8.7085   11.7181   16.8755 C.2       1 RES1    0.0000
     18 C13        8.3540   12.7270   13.3309 C.3       1 RES1    0.0000
     19 C14        8.3777   15.1613   13.6866 C.3       1 RES1    0.0000
     20 C15        3.8577   15.4919   16.6214 C.3       1 RES1    0.0000
     21 C16        5.0288   14.1643   11.0640 C.2       1 RES1    0.0000
     22 C17        3.9439   13.8344   10.0857 C.ar      1 RES1    0.0000
     23 C18        4.3262   13.4785    8.7917 C.ar      1 RES1    0.0000
     24 C19        3.3700   13.1938    7.8533 C.ar      1 RES1    0.0000
     25 C20        2.0485   13.2518    8.2127 C.ar      1 RES1    0.0000
     26 C21        1.6362   13.5906    9.4704 C.ar      1 RES1    0.0000
     27 C22        2.5962   13.8711   10.4160 C.ar      1 RES1    0.0000
     28 N2        -2.8559   10.6256   10.9750 N.pl3     2 RES2    0.0000
     29 O5         0.6670    9.0409    5.9149 O.3       2 RES2    0.0000
     30 O6         2.3365    9.5174    7.3306 O.2       2 RES2    0.0000
     31 O7        -2.4607   10.9546   12.0858 O.2       2 RES2    0.0000
     32 O8        -4.0169   10.5008   10.6665 O.2       2 RES2    0.0000
     33 C23        1.7037    9.6659    2.7497 C.3       2 RES2    0.0000
     34 C24        0.4760    8.7529    2.8513 C.3       2 RES2    0.0000
     35 C25        0.8915    7.7590    3.9167 C.3       2 RES2    0.0000
     36 C26        1.6465    8.5486    4.9403 C.3       2 RES2    0.0000
     37 C27        2.2995    9.7246    4.1817 C.3       2 RES2    0.0000
     38 C28        3.8520    9.7667    4.0256 C.3       2 RES2    0.0000
     39 C29        4.0505    9.9186    2.4938 C.3       2 RES2    0.0000
     40 C30        3.9179   11.3145    1.9747 C.2       2 RES2    0.0000
     41 C31        2.6038   11.9802    2.2415 C.3       2 RES2    0.0000
     42 C32        1.3959   11.0405    2.1852 C.3       2 RES2    0.0000
     43 C33        2.8859    9.1069    1.9311 C.3       2 RES2    0.0000
     44 C34        4.8743   11.9056    1.2741 C.2       2 RES2    0.0000
     45 C35        4.5054   10.8965    4.8169 C.3       2 RES2    0.0000
     46 C36        4.5140    8.4668    4.4648 C.3       2 RES2    0.0000
     47 C37       -0.0004    8.1314    1.5500 C.3       2 RES2    0.0000
     48 C38        1.1606    9.4513    7.0856 C.2       2 RES2    0.0000
     49 C39        0.0851    9.7887    8.0602 C.ar      2 RES2    0.0000
     50 C40        0.4709   10.1463    9.3561 C.ar      2 RES2    0.0000
     51 C41       -0.4939   10.4309   10.3017 C.ar      2 RES2    0.0000
     52 C42       -1.8128   10.3684    9.9405 C.ar      2 RES2    0.0000
     53 C43       -2.2239   10.0287    8.6773 C.ar      2 RES2    0.0000
     54 C44       -1.2557    9.7437    7.7372 C.ar      2 RES2    0.0000
     55 H1         3.5860   14.2600   14.9425 H         1 RES1    0.0000
     56 H2         5.3019   16.5728   14.6122 H         1 RES1    0.0000
     57 H3         4.0171   16.3014   13.8499 H         1 RES1    0.0000
     58 H4         6.1663   15.5852   12.6611 H         1 RES1    0.0000
     59 H5         5.8468   13.0216   13.5178 H         1 RES1    0.0000
     60 H6         8.8117   14.0569   15.9535 H         1 RES1    0.0000
     61 H7         6.2951   10.7913   16.4907 H         1 RES1    0.0000
     62 H8         6.4629   11.1639   14.9516 H         1 RES1    0.0000
     63 H9         4.4929   12.1677   15.4834 H         1 RES1    0.0000
     64 H10        4.8521   12.7166   16.9390 H         1 RES1    0.0000
     65 H11        6.7207   14.3781   17.1150 H         1 RES1    0.0000
     66 H12        6.8880   15.5658   16.0860 H         1 RES1    0.0000
     67 H13        9.5865   12.2232   17.0914 H         1 RES1    0.0000
     68 H14        8.5934   10.8435   17.2366 H         1 RES1    0.0000
     69 H15        9.3547   12.6299   13.4779 H         1 RES1    0.0000
     70 H16        7.9492   11.8219   13.5523 H         1 RES1    0.0000
     71 H17        8.1342   12.7499   12.4216 H         1 RES1    0.0000
     72 H18        7.9911   15.9840   14.2492 H         1 RES1    0.0000
     73 H19        9.3306   15.1747   13.8790 H         1 RES1    0.0000
     74 H20        8.2313   15.2508   12.8063 H         1 RES1    0.0000
     75 H21        3.5354   14.5273   17.3818 H         1 RES1    0.0000
     76 H22        4.5637   16.1988   17.0261 H         1 RES1    0.0000
     77 H23        2.9222   16.0095   16.4254 H         1 RES1    0.0000
     78 H24        5.2577   13.4929    8.6011 H         1 RES1    0.0000
     79 H25        3.5692   12.9210    7.1074 H         1 RES1    0.0000
     80 H26        0.7521   13.6206    9.7209 H         1 RES1    0.0000
     81 H27        2.3234   14.1731   11.2945 H         1 RES1    0.0000
     82 H28       -0.3141    9.2795    3.2107 H         2 RES2    0.0000
     83 H29        1.4462    7.0889    3.5755 H         2 RES2    0.0000
     84 H30        0.0710    7.3575    4.2724 H         2 RES2    0.0000
     85 H31        2.3143    8.0381    5.5102 H         2 RES2    0.0000
     86 H32        2.0029   10.5877    4.5791 H         2 RES2    0.0000
     87 H33        4.9633    9.6015    2.1907 H         2 RES2    0.0000
     88 H34        2.5517   12.7488    1.6262 H         2 RES2    0.0000
     89 H35        2.5798   12.3655    3.2070 H         2 RES2    0.0000
     90 H36        0.6244   11.3494    2.6916 H         2 RES2    0.0000
     91 H37        0.9580   10.9643    1.3866 H         2 RES2    0.0000
     92 H38        2.7978    9.2421    1.0055 H         2 RES2    0.0000
     93 H39        3.0001    8.1793    2.0763 H         2 RES2    0.0000
     94 H40        5.7810   11.3802    1.2051 H         2 RES2    0.0000
     95 H41        4.7587   12.7640    0.9220 H         2 RES2    0.0000
     96 H42        4.1758   11.7725    4.4721 H         2 RES2    0.0000
     97 H43        5.4658   10.8740    4.6027 H         2 RES2    0.0000
     98 H44        4.3487   10.8109    5.6717 H         2 RES2    0.0000
     99 H45        5.4520    8.5036    4.1798 H         2 RES2    0.0000
    100 H46        4.1090    7.6040    3.9965 H         2 RES2    0.0000
    101 H47        4.4956    8.2261    5.3578 H         2 RES2    0.0000
    102 H48       -0.2209    8.9595    0.7841 H         2 RES2    0.0000
    103 H49        0.6507    7.6843    1.1906 H         2 RES2    0.0000
    104 H50       -0.9470    7.7712    1.7369 H         2 RES2    0.0000
    105 H51        1.4975   10.1074    9.5557 H         2 RES2    0.0000
    106 H52       -0.2312   10.6539   11.1910 H         2 RES2    0.0000
    107 H53       -3.1469    9.9892    8.4922 H         2 RES2    0.0000
    108 H54       -1.5645    9.5502    6.8769 H         2 RES2    0.0000
@<TRIPOS>BOND
     1    1    4 2
     2    2    9 1
     3    3   21 2
     4    5    1 2
     5    6    7 1
     6    7    8 1
     7    8    9 1
     8    9   10 1
     9   10    6 1
    10   11   10 1
    11   12   11 1
    12   13   12 1
    13   14   13 1
    14   15    6 1
    15   16    6 1
    16   17   13 2
    17   18   11 1
    18   19   11 1
    19   20    7 1
    20   21    2 1
    21   22   21 1
    22   23   22 ar
    23   24   23 ar
    24   25    1 1
    25   26   25 ar
    26   27   22 ar
    27   28   31 2
    28   29   36 1
    29   30   48 2
    30   32   28 2
    31   33   34 1
    32   34   35 1
    33   35   36 1
    34   36   37 1
    35   37   33 1
    36   38   37 1
    37   39   38 1
    38   40   39 1
    39   41   40 1
    40   42   33 1
    41   43   33 1
    42   44   40 2
    43   45   38 1
    44   46   38 1
    45   47   34 1
    46   48   29 1
    47   49   48 1
    48   50   49 ar
    49   51   50 ar
    50   52   28 1
    51   53   52 ar
    52   54   49 ar
    53   55    7 1
    54   56    8 1
    55   57    8 1
    56   58    9 1
    57   59   10 1
    58   60   12 1
    59   61   14 1
    60   62   14 1
    61   63   15 1
    62   64   15 1
    63   65   16 1
    64   66   16 1
    65   67   17 1
    66   68   17 1
    67   69   18 1
    68   70   18 1
    69   71   18 1
    70   72   19 1
    71   73   19 1
    72   74   19 1
    73   75   20 1
    74   76   20 1
    75   77   20 1
    76   78   23 1
    77   79   24 1
    78   80   26 1
    79   81   27 1
    80   82   34 1
    81   83   35 1
    82   84   35 1
    83   85   36 1
    84   86   37 1
    85   87   39 1
    86   88   41 1
    87   89   41 1
    88   90   42 1
    89   91   42 1
    90   92   43 1
    91   93   43 1
    92   94   44 1
    93   95   44 1
    94   96   45 1
    95   97   45 1
    96   98   45 1
    97   99   46 1
    98  100   46 1
    99  101   46 1
   100  102   47 1
   101  103   47 1
   102  104   47 1
   103  105   50 1
   104  106   51 1
   105  107   53 1
   106  108   54 1
   107   12   16 1
   108   14   15 1
   109   24   25 ar
   110   26   27 ar
   111   39   43 1
   112   41   42 1
   113   51   52 ar
   114   53   54 ar
@<TRIPOS>SUBSTRUCTURE
     1 RES1 1
     2 RES2 28

@<TRIPOS>CRYSIN
   7.6990   13.7000   18.8020  80.5600  78.2400  89.7900   2 1

