# MOL2 file generated by ConQuest
# Please check atom types

@<TRIPOS>MOLECULE
TASRUA
    40    41     1
SMALL
NO_CHARGES
****
Generated from CSD

@<TRIPOS>ATOM
      1 O1         3.7296   12.7682    0.6871 O.2       1 RES1    0.0000
      2 O2         2.0720   13.7421   -0.2881 O.2       1 RES1    0.0000
      3 O3         4.3065   17.5063   -0.9276 O.3       1 RES1    0.0000
      4 N1         3.1764   13.7595    0.2389 N.pl3     1 RES1    0.0000
      5 C1         3.9230   15.0604    0.2975 C.3       1 RES1    0.0000
      6 C2         3.0088   16.2419    0.5903 C.3       1 RES1    0.0000
      7 C3         3.8222   17.5390    0.4209 C.3       1 RES1    0.0000
      8 C4         2.9780   18.7802    0.6684 C.3       1 RES1    0.0000
      9 C5         2.3589   16.1284    1.9536 C.ar      1 RES1    0.0000
     10 C6         3.1147   16.1226    3.1185 C.ar      1 RES1    0.0000
     11 C7         2.5173   16.0591    4.3600 C.ar      1 RES1    0.0000
     12 C8         1.1435   15.9783    4.4755 C.ar      1 RES1    0.0000
     13 C9         0.3722   15.9706    3.3364 C.ar      1 RES1    0.0000
     14 C10        0.9666   16.0495    2.0722 C.ar      1 RES1    0.0000
     15 C11        5.4161   18.3761   -1.1728 C.3       1 RES1    0.0000
     16 C12        5.9323   18.1221   -2.5610 C.ar      1 RES1    0.0000
     17 C13        6.0371   19.1516   -3.4831 C.ar      1 RES1    0.0000
     18 C14        6.5626   18.9303   -4.7465 C.ar      1 RES1    0.0000
     19 C15        6.9688   17.6506   -5.1072 C.ar      1 RES1    0.0000
     20 C16        6.8516   16.6153   -4.2093 C.ar      1 RES1    0.0000
     21 C17        6.3456   16.8443   -2.9374 C.ar      1 RES1    0.0000
     22 H1         2.3857   16.2496   -0.1015 H         1 RES1    0.0000
     23 H2         4.6685   17.5120    1.0463 H         1 RES1    0.0000
     24 H3         4.0618   16.2419    3.0920 H         1 RES1    0.0000
     25 H4         3.0849   16.0303    5.1455 H         1 RES1    0.0000
     26 H5         0.6684   15.9148    5.3485 H         1 RES1    0.0000
     27 H6        -0.5347   15.9148    3.3496 H         1 RES1    0.0000
     28 H7         0.4010   16.0495    1.2415 H         1 RES1    0.0000
     29 H8         4.3394   15.1065   -0.6246 H         1 RES1    0.0000
     30 H9         4.5554   14.9333    0.9682 H         1 RES1    0.0000
     31 H10        5.7893   20.0330   -3.2247 H         1 RES1    0.0000
     32 H11        6.6223   19.7251   -5.4188 H         1 RES1    0.0000
     33 H12        7.3523   17.5120   -5.9497 H         1 RES1    0.0000
     34 H13        7.0747   15.6839   -4.4662 H         1 RES1    0.0000
     35 H14        6.3549   16.1072   -2.3034 H         1 RES1    0.0000
     36 H15        3.4654   19.6481    0.4763 H         1 RES1    0.0000
     37 H16        2.6633   18.8014    1.5460 H         1 RES1    0.0000
     38 H17        2.1286   18.7244    0.0937 H         1 RES1    0.0000
     39 H18        5.0798   19.3017   -1.0307 H         1 RES1    0.0000
     40 H19        6.0361   18.1663   -0.4919 H         1 RES1    0.0000
@<TRIPOS>BOND
     1    1    4 2
     2    2    4 2
     3    3    7 1
     4    4    5 1
     5    5    6 1
     6    6    7 1
     7    7    8 1
     8    8   36 1
     9    9    6 1
    10   10    9 ar
    11   11   10 ar
    12   12   11 ar
    13   13   12 ar
    14   14    9 ar
    15   15    3 1
    16   16   15 1
    17   17   16 ar
    18   18   17 ar
    19   19   18 ar
    20   20   19 ar
    21   21   16 ar
    22   22    6 1
    23   23    7 1
    24   24   10 1
    25   25   11 1
    26   26   12 1
    27   27   13 1
    28   28   14 1
    29   29    5 1
    30   30    5 1
    31   31   17 1
    32   32   18 1
    33   33   19 1
    34   34   20 1
    35   35   21 1
    36   37    8 1
    37   38    8 1
    38   39   15 1
    39   40   15 1
    40   13   14 ar
    41   20   21 ar
@<TRIPOS>SUBSTRUCTURE
     1 RES1 1

@<TRIPOS>CRYSIN
  10.2830   19.2440    7.8080  90.0000  90.0000  90.0000  19 1

