# MOL2 file generated by ConQuest
# Please check atom types

@<TRIPOS>MOLECULE
TATGAW
    42    44     1
SMALL
NO_CHARGES
****
Generated from CSD

@<TRIPOS>ATOM
      1 O1        -7.4414   -5.4588    1.7508 O.3       1 RES1    0.0000
      2 O2        -5.7545   -6.8609    1.5706 O.2       1 RES1    0.0000
      3 O3        -8.3106   -5.1321   -1.8764 O.3       1 RES1    0.0000
      4 N1        -8.7002   -6.4917   -1.7726 N.2       1 RES1    0.0000
      5 C1        -6.6065   -6.2283    1.0125 C.2       1 RES1    0.0000
      6 C2        -8.5439   -4.7254    1.1282 C.3       1 RES1    0.0000
      7 C3        -8.0430   -3.4679    0.4893 C.3       1 RES1    0.0000
      8 C4        -6.9105   -3.6719   -0.5046 C.3       1 RES1    0.0000
      9 C5        -6.9747   -4.9746   -1.2746 C.3       1 RES1    0.0000
     10 C6        -6.7499   -6.2786   -0.5144 C.3       1 RES1    0.0000
     11 C7        -7.8931   -7.1243   -1.0223 C.2       1 RES1    0.0000
     12 C8        -8.0665   -8.5794   -0.7831 C.ar      1 RES1    0.0000
     13 C9        -8.9250   -9.0532    0.2261 C.ar      1 RES1    0.0000
     14 C10       -9.0299  -10.4231    0.4172 C.ar      1 RES1    0.0000
     15 C11       -8.3191  -11.3307   -0.3364 C.ar      1 RES1    0.0000
     16 C12       -7.4928  -10.8452   -1.3292 C.ar      1 RES1    0.0000
     17 C13       -7.3515   -9.4818   -1.5695 C.ar      1 RES1    0.0000
     18 C14       -9.7064   -8.1236    1.0955 C.3       1 RES1    0.0000
     19 C15       -6.4652   -9.0261   -2.6955 C.3       1 RES1    0.0000
     20 C16       -8.4305  -12.8025   -0.0710 C.3       1 RES1    0.0000
     21 C17       -9.5394   -4.4737    2.2499 C.3       1 RES1    0.0000
     22 H1        -7.7711   -2.8404    1.1905 H         1 RES1    0.0000
     23 H2        -8.7559   -3.0341    0.0546 H         1 RES1    0.0000
     24 H3       -10.2544   -3.8991    1.9114 H         1 RES1    0.0000
     25 H4        -9.0984   -3.9766    2.9708 H         1 RES1    0.0000
     26 H5        -9.7620   -5.3581    2.5885 H         1 RES1    0.0000
     27 H6        -9.0128   -5.3839    0.4587 H         1 RES1    0.0000
     28 H7        -6.3582   -4.9578   -2.0970 H         1 RES1    0.0000
     29 H8        -6.9790   -2.9179   -1.1250 H         1 RES1    0.0000
     30 H9        -5.9514   -6.6363   -0.7755 H         1 RES1    0.0000
     31 H10       -6.8506   -8.3405   -3.2875 H         1 RES1    0.0000
     32 H11       -5.7802   -8.3534   -2.3810 H         1 RES1    0.0000
     33 H12       -6.1227   -9.7091   -3.1892 H         1 RES1    0.0000
     34 H13       -6.9148  -11.4004   -1.8895 H         1 RES1    0.0000
     35 H14       -9.5694  -10.7161    1.0157 H         1 RES1    0.0000
     36 H15      -10.2544   -8.5471    1.6601 H         1 RES1    0.0000
     37 H16       -9.0984   -7.6433    1.7038 H         1 RES1    0.0000
     38 H17      -10.0832   -7.3980    0.6772 H         1 RES1    0.0000
     39 H18       -9.2911  -13.1176   -0.0765 H         1 RES1    0.0000
     40 H19       -7.8781  -12.9885    0.6335 H         1 RES1    0.0000
     41 H20       -8.1136  -13.3887   -0.7645 H         1 RES1    0.0000
     42 H21       -6.0371   -3.6538   -0.0546 H         1 RES1    0.0000
@<TRIPOS>BOND
     1    1    5 1
     2    2    5 2
     3    3    4 1
     4    4   11 2
     5    5   10 1
     6    6    1 1
     7    7    6 1
     8    8    7 1
     9    9    3 1
    10   10    9 1
    11   11   10 1
    12   12   11 1
    13   13   12 ar
    14   14   13 ar
    15   15   14 ar
    16   16   15 ar
    17   17   12 ar
    18   18   13 1
    19   19   17 1
    20   20   15 1
    21   21    6 1
    22   22    7 1
    23   23    7 1
    24   24   21 1
    25   25   21 1
    26   26   21 1
    27   27    6 1
    28   28    9 1
    29   29    8 1
    30   30   10 1
    31   31   19 1
    32   32   19 1
    33   33   19 1
    34   34   16 1
    35   35   14 1
    36   36   18 1
    37   37   18 1
    38   38   18 1
    39   39   20 1
    40   40   20 1
    41   41   20 1
    42   42    8 1
    43    8    9 1
    44   16   17 ar
@<TRIPOS>SUBSTRUCTURE
     1 RES1 1

@<TRIPOS>CRYSIN
  21.4080   12.9110   10.9220  90.0000  90.0000  90.0000  61 1

