# MOL2 file generated by ConQuest
# Please check atom types

@<TRIPOS>MOLECULE
TATNAE
   123   110     3
SMALL
NO_CHARGES
****
Generated from CSD

@<TRIPOS>ATOM
      1 C1         2.7519    1.0720    6.1408 C.2       1 RES1    0.0000
      2 C2         3.5266    2.0668    5.2391 C.3       1 RES1    0.0000
      3 C3         2.6068    2.4960    4.0553 C.3       1 RES1    0.0000
      4 H1         1.8031    2.9155    4.4756 H         1 RES1    0.0000
      5 C4         2.0790    1.2721    3.2751 C.3       1 RES1    0.0000
      6 C5         1.4020    0.3099    4.2304 C.2       1 RES1    0.0000
      7 H2         0.7336   -0.2721    3.8884 H         1 RES1    0.0000
      8 C6         1.6989    0.2424    5.5252 C.2       1 RES1    0.0000
      9 H3         1.2142   -0.3638    6.0738 H         1 RES1    0.0000
     10 C7         1.9143    1.2307    3.5103 Du        3 SUP3    0.0000
     11 C8         1.0795    0.4316    4.4884 Du        3 SUP3    0.0000
     12 H4         0.1631    0.2100    4.3893 Du        3 SUP3    0.0000
     13 C9         1.8604    0.0819    5.5050 Du        3 SUP3    0.0000
     14 H5         1.8353   -0.8092    5.8371 Du        3 SUP3    0.0000
     15 O1         2.9986    0.9878    7.3189 O.2       1 RES1    0.0000
     16 C10        3.9447    3.2758    6.0953 C.3       1 RES1    0.0000
     17 H6         4.3644    2.9601    6.9234 H         1 RES1    0.0000
     18 H7         3.1535    3.8112    6.3142 H         1 RES1    0.0000
     19 H8         4.5831    3.8263    5.5949 H         1 RES1    0.0000
     20 C11        4.8099    1.3989    4.7303 C.2       1 RES1    0.0000
     21 O2         5.6744    2.0004    4.1383 O.2       1 RES1    0.0000
     22 O3         4.8708    0.1073    5.0488 O.3       1 RES1    0.0000
     23 C12        6.0630   -0.5803    4.6000 C.3       1 RES1    0.0000
     24 H9         5.9434   -1.5469    4.7104 H         1 RES1    0.0000
     25 H10        6.8308   -0.2829    5.1307 H         1 RES1    0.0000
     26 H11        6.2212   -0.3759    3.6553 H         1 RES1    0.0000
     27 C13        3.2302    3.5958    3.1518 C.3       1 RES1    0.0000
     28 H12        3.8971    4.0794    3.7195 H         1 RES1    0.0000
     29 N1         2.1351    4.6153    2.8136 N.pl3     1 RES1    0.0000
     30 O4         1.6358    5.2034    3.7619 O.2       1 RES1    0.0000
     31 O5         1.8292    4.8110    1.6522 O.2       1 RES1    0.0000
     32 C14        3.9518    3.2176    1.8805 C.3       1 RES1    0.0000
     33 H13        3.2897    2.9860    1.1817 H         1 RES1    0.0000
     34 H14        4.5138    2.4203    2.0460 H         1 RES1    0.0000
     35 C15        4.8235    4.3558    1.3920 C.2       1 RES1    0.0000
     36 O6         5.0207    5.3834    1.9910 O.2       1 RES1    0.0000
     37 O7         5.3808    4.0598    0.2224 O.3       1 RES1    0.0000
     38 C16        6.3573    5.0163   -0.2984 C.3       1 RES1    0.0000
     39 H15        7.1567    5.0434    0.2844 H         1 RES1    0.0000
     40 H16        5.9630    5.9234   -0.3340 H         1 RES1    0.0000
     41 C17        6.7309    4.5600   -1.6662 C.3       1 RES1    0.0000
     42 H17        7.3808    5.1832   -2.0515 H         1 RES1    0.0000
     43 H18        5.9307    4.5321   -2.2314 H         1 RES1    0.0000
     44 H19        7.1258    3.6644   -1.6148 H         1 RES1    0.0000
     45 O8         1.2242    1.6579    2.2117 O.3       1 RES1    0.0000
     46 C18       -0.0995    2.0997    2.5444 C.3       1 RES1    0.0000
     47 H20       -0.0932    3.0639    2.7690 H         1 RES1    0.0000
     48 H21       -0.4444    1.5965    3.3232 H         1 RES1    0.0000
     49 C19       -0.9518    1.8540    1.3561 C.3       1 RES1    0.0000
     50 H22       -1.8423    2.2330    1.5084 H         1 RES1    0.0000
     51 H23       -1.0291    0.8888    1.2038 H         1 RES1    0.0000
     52 H24       -0.5463    2.2780    0.5707 H         1 RES1    0.0000
     53 O9         0.9465    2.0423    2.8589 Du        3 SUP3    0.0000
     54 C20        0.0501    1.3635    1.9690 Du        3 SUP3    0.0000
     55 H25       -0.3912    0.6038    2.4295 Du        3 SUP3    0.0000
     56 H26        0.5315    1.0199    1.1781 Du        3 SUP3    0.0000
     57 C21       -0.9578    2.3822    1.5653 Du        3 SUP3    0.0000
     58 H27       -1.2695    2.8662    2.3580 Du        3 SUP3    0.0000
     59 H28       -1.7218    1.9366    1.1359 Du        3 SUP3    0.0000
     60 H29       -0.5532    3.0116    0.9358 Du        3 SUP3    0.0000
     61 O10        3.1632    0.6449    2.6815 O.3       1 RES1    0.0000
     62 C22        2.9294   -0.5739    1.9684 C.3       1 RES1    0.0000
     63 H30        2.4780   -1.2212    2.5672 H         1 RES1    0.0000
     64 H31        2.3276   -0.3946    1.2038 H         1 RES1    0.0000
     65 C23        4.1240   -1.1339    1.4974 C.3       1 RES1    0.0000
     66 H32        3.9198   -1.8902    0.9083 H         1 RES1    0.0000
     67 H33        4.6596   -1.4474    2.2552 H         1 RES1    0.0000
     68 H34        4.6272   -0.4574    0.9982 H         1 RES1    0.0000
     69 C24        8.6450    4.6073    6.1261 C.2       2 RES2    0.0000
     70 C25        8.7923    5.9525    6.8781 C.3       2 RES2    0.0000
     71 C26        8.5768    7.0872    5.8193 C.3       2 RES2    0.0000
     72 H35        9.2384    6.8842    5.0976 H         2 RES2    0.0000
     73 C27        7.2156    6.9909    5.1270 C.3       2 RES2    0.0000
     74 C28        6.9525    5.5830    4.6335 C.2       2 RES2    0.0000
     75 H36        6.3010    5.4555    3.9544 H         2 RES2    0.0000
     76 C29        7.5899    4.5203    5.1070 C.2       2 RES2    0.0000
     77 H37        7.3531    3.6633    4.7710 H         2 RES2    0.0000
     78 O11        9.3711    3.6637    6.3651 O.2       2 RES2    0.0000
     79 C30       10.1885    6.0256    7.4967 C.3       2 RES2    0.0000
     80 H38       10.3681    5.2011    7.9951 H         2 RES2    0.0000
     81 H39       10.2369    6.7924    8.1052 H         2 RES2    0.0000
     82 H40       10.8556    6.1291    6.7858 H         2 RES2    0.0000
     83 C31        7.7664    5.9996    8.0184 C.2       2 RES2    0.0000
     84 O12        7.7077    6.8882    8.8271 O.2       2 RES2    0.0000
     85 O13        6.9943    4.9085    8.0411 O.3       2 RES2    0.0000
     86 C32        6.0361    4.8393    9.1256 C.3       2 RES2    0.0000
     87 H41        5.5773    3.9739    9.1016 H         2 RES2    0.0000
     88 H42        5.3790    5.5602    9.0282 H         2 RES2    0.0000
     89 H43        6.5033    4.9377    9.9805 H         2 RES2    0.0000
     90 C33        8.9440    8.5197    6.2918 C.3       2 RES2    0.0000
     91 H44        9.7109    8.4224    6.9253 H         2 RES2    0.0000
     92 N2         9.4805    9.2886    5.0728 N.pl3     2 RES2    0.0000
     93 O14       10.3934    8.7768    4.4433 O.2       2 RES2    0.0000
     94 O15        9.0019   10.3799    4.7969 O.2       2 RES2    0.0000
     95 C34        7.9161    9.3817    6.9901 C.3       2 RES2    0.0000
     96 H45        7.2095    9.6341    6.3436 H         2 RES2    0.0000
     97 H46        7.4922    8.8594    7.7162 H         2 RES2    0.0000
     98 C35        8.5273   10.6321    7.5701 C.2       2 RES2    0.0000
     99 O16        9.7085   10.8092    7.7396 O.2       2 RES2    0.0000
    100 O17        7.5738   11.4973    7.9116 O.3       2 RES2    0.0000
    101 C36        7.9942   12.7336    8.5740 C.3       2 RES2    0.0000
    102 H47        7.5120   12.8182    9.4337 H         2 RES2    0.0000
    103 H48        8.9617   12.6796    8.7731 H         2 RES2    0.0000
    104 C37        7.7503   13.8770    7.7989 C.3       2 RES2    0.0000
    105 H49        8.0258   14.6749    8.2979 H         2 RES2    0.0000
    106 H50        6.7937   13.9344    7.5932 H         2 RES2    0.0000
    107 H51        8.2609   13.8210    6.9638 H         2 RES2    0.0000
    108 O18        6.2444    7.3537    6.0746 O.3       2 RES2    0.0000
    109 C38        4.8756    7.3414    5.6351 C.3       2 RES2    0.0000
    110 H52        4.4985    6.4288    5.7087 H         2 RES2    0.0000
    111 H53        4.8140    7.6333    4.6903 H         2 RES2    0.0000
    112 C39        4.1262    8.2898    6.5243 C.3       2 RES2    0.0000
    113 H54        3.1837    8.3130    6.2573 H         2 RES2    0.0000
    114 H55        4.5112    9.1874    6.4427 H         2 RES2    0.0000
    115 H56        4.1949    7.9880    7.4538 H         2 RES2    0.0000
    116 O19        7.1449    7.9569    4.0823 O.3       2 RES2    0.0000
    117 C40        7.7232    7.5931    2.8112 C.3       2 RES2    0.0000
    118 H57        7.2243    6.8363    2.4130 H         2 RES2    0.0000
    119 H58        8.6669    7.3185    2.9305 H         2 RES2    0.0000
    120 C41        7.6415    8.7929    1.9179 C.3       2 RES2    0.0000
    121 H59        8.0032    8.5676    1.0349 H         2 RES2    0.0000
    122 H60        8.1627    9.5252    2.3066 H         2 RES2    0.0000
    123 H61        6.7063    9.0690    1.8258 H         2 RES2    0.0000
@<TRIPOS>BOND
     1    1    2 1
     2    2    3 1
     3    3    4 1
     4    5    3 1
     5    6    5 1
     6    7    6 1
     7    8    1 1
     8    9    8 1
     9   15    1 2
    10   16    2 1
    11   17   16 1
    12   18   16 1
    13   19   16 1
    14   20    2 1
    15   21   20 2
    16   22   20 1
    17   23   22 1
    18   24   23 1
    19   25   23 1
    20   26   23 1
    21   27    3 1
    22   28   27 1
    23   29   27 1
    24   30   29 2
    25   31   29 2
    26   32   27 1
    27   33   32 1
    28   34   32 1
    29   35   32 1
    30   36   35 2
    31   37   35 1
    32   38   37 1
    33   39   38 1
    34   40   38 1
    35   41   38 1
    36   42   41 1
    37   43   41 1
    38   44   41 1
    39   45    5 1
    40   46   45 1
    41   47   46 1
    42   48   46 1
    43   49   46 1
    44   50   49 1
    45   51   49 1
    46   52   49 1
    47   61    5 1
    48   62   61 1
    49   63   62 1
    50   64   62 1
    51   65   62 1
    52   66   65 1
    53   67   65 1
    54   68   65 1
    55   69   70 1
    56   70   71 1
    57   71   72 1
    58   73   71 1
    59   74   73 1
    60   75   74 1
    61   76   69 1
    62   77   76 1
    63   78   69 2
    64   79   70 1
    65   80   79 1
    66   81   79 1
    67   82   79 1
    68   83   70 1
    69   84   83 2
    70   85   83 1
    71   86   85 1
    72   87   86 1
    73   88   86 1
    74   89   86 1
    75   90   71 1
    76   91   90 1
    77   92   90 1
    78   93   92 2
    79   94   92 2
    80   95   90 1
    81   96   95 1
    82   97   95 1
    83   98   95 1
    84   99   98 2
    85  100   98 1
    86  101  100 1
    87  102  101 1
    88  103  101 1
    89  104  101 1
    90  105  104 1
    91  106  104 1
    92  107  104 1
    93  108   73 1
    94  109  108 1
    95  110  109 1
    96  111  109 1
    97  112  109 1
    98  113  112 1
    99  114  112 1
   100  115  112 1
   101  116   73 1
   102  117  116 1
   103  118  117 1
   104  119  117 1
   105  120  117 1
   106  121  120 1
   107  122  120 1
   108  123  120 1
   109    6    8 2
   110   74   76 2
@<TRIPOS>SUBSTRUCTURE
     1 RES1 1
     2 RES2 69
     3 SUP3 10

@<TRIPOS>CRYSIN
   8.9780   12.6410   18.5810  80.9850  88.9340  87.8250   2 1

