# MOL2 file generated by ConQuest
# Please check atom types

@<TRIPOS>MOLECULE
TATNBZ
    24    24     1
SMALL
NO_CHARGES
****
Generated from CSD

@<TRIPOS>ATOM
      1 C1        -5.0060    0.6158    1.6127 C.ar      1 RES1    0.0000
      2 C2        -5.7121   -0.6338    1.5618 C.ar      1 RES1    0.0000
      3 C3        -7.1596   -0.5971    1.5618 C.ar      1 RES1    0.0000
      4 C4        -7.8844    0.6433    1.5769 C.ar      1 RES1    0.0000
      5 C5        -7.1264    1.8744    1.5336 C.ar      1 RES1    0.0000
      6 C6        -5.6919    1.8930    1.5826 C.ar      1 RES1    0.0000
      7 H1        -4.2089   -1.7444    1.4946 H         1 RES1    0.0000
      8 H2        -5.4972   -2.4983    1.6328 H         1 RES1    0.0000
      9 H3        -9.6285    0.0436    1.5951 H         1 RES1    0.0000
     10 H4        -9.7241    1.5843    1.5951 H         1 RES1    0.0000
     11 H5        -5.4616    3.7692    1.5323 H         1 RES1    0.0000
     12 H6        -4.0872    2.9615    1.4067 H         1 RES1    0.0000
     13 N1        -3.5915    0.6074    1.6925 N.pl3     1 RES1    0.0000
     14 N2        -5.0731   -1.7749    1.5003 N.pl3     1 RES1    0.0000
     15 N3        -7.8810   -1.8165    1.5493 N.pl3     1 RES1    0.0000
     16 N4        -9.2027    0.6687    1.6190 N.pl3     1 RES1    0.0000
     17 N5        -7.8329    3.1070    1.4758 N.pl3     1 RES1    0.0000
     18 N6        -5.0235    3.0208    1.5807 N.pl3     1 RES1    0.0000
     19 O1        -2.9453    1.6585    1.7710 O.2       1 RES1    0.0000
     20 O2        -2.9599   -0.4624    1.6585 O.2       1 RES1    0.0000
     21 O3        -7.2837   -2.9081    1.4928 O.2       1 RES1    0.0000
     22 O4        -9.1193   -1.8365    1.5857 O.2       1 RES1    0.0000
     23 O5        -9.0753    3.1394    1.4469 O.2       1 RES1    0.0000
     24 O6        -7.2228    4.2094    1.4802 O.2       1 RES1    0.0000
@<TRIPOS>BOND
     1    1    2 ar
     2    2    3 ar
     3    3    4 ar
     4    4    5 ar
     5    5    6 ar
     6    6    1 ar
     7    7   14 1
     8    8   14 1
     9    9   16 1
    10   10   16 1
    11   11   18 1
    12   12   18 1
    13   13    1 1
    14   14    2 1
    15   15    3 1
    16   16    4 1
    17   17    5 1
    18   18    6 1
    19   19   13 2
    20   20   13 2
    21   21   15 2
    22   22   15 2
    23   23   17 2
    24   24   17 2
@<TRIPOS>SUBSTRUCTURE
     1 RES1 1

@<TRIPOS>CRYSIN
   9.0100    9.0280    6.8120 108.5800  91.8200 119.9700   2 1

