# MOL2 file generated by ConQuest
# Please check atom types

@<TRIPOS>MOLECULE
TATNIM
   104   108     2
SMALL
NO_CHARGES
****
Generated from CSD

@<TRIPOS>ATOM
      1 C1         3.5575    1.0835    2.5701 C.3       1 RES1    0.0000
      2 H1         4.1480    0.5356    1.9777 H         1 RES1    0.0000
      3 C2         3.1125    2.3467    1.7717 C.3       1 RES1    0.0000
      4 H2         3.9610    2.8072    1.5081 H         1 RES1    0.0000
      5 C3         2.3711    3.3455    2.6850 C.2       1 RES1    0.0000
      6 C4         3.0726    3.6513    3.9788 C.3       1 RES1    0.0000
      7 H3         2.4677    4.1740    4.5627 H         1 RES1    0.0000
      8 H4         3.8721    4.2043    3.7940 H         1 RES1    0.0000
      9 C5         3.5033    2.3640    4.7146 C.3       1 RES1    0.0000
     10 H5         4.0305    2.6133    5.5277 H         1 RES1    0.0000
     11 C6         2.2834    1.5685    5.1401 C.2       1 RES1    0.0000
     12 C7         1.7688    0.6105    4.3369 C.2       1 RES1    0.0000
     13 C8         2.3979    0.1882    3.0444 C.3       1 RES1    0.0000
     14 H6         1.6997    0.1778    2.3428 H         1 RES1    0.0000
     15 H7         2.7344   -0.7376    3.1446 H         1 RES1    0.0000
     16 C9         4.3799    1.5146    3.7896 C.3       1 RES1    0.0000
     17 C10        2.3954    2.0519    0.4702 C.ar      1 RES1    0.0000
     18 C11        3.0245    2.0287   -0.7794 C.ar      1 RES1    0.0000
     19 N1         4.4911    2.1268   -0.8922 N.pl3     1 RES1    0.0000
     20 O1         5.1820    1.5229   -0.0738 O.2       1 RES1    0.0000
     21 O2         4.9646    2.7725   -1.8190 O.2       1 RES1    0.0000
     22 C12        2.3561    1.8782   -1.9823 C.ar      1 RES1    0.0000
     23 H8         2.8328    1.8930   -2.8033 H         1 RES1    0.0000
     24 C13        0.9830    1.7065   -1.9697 C.ar      1 RES1    0.0000
     25 H9         0.5040    1.5997   -2.7831 H         1 RES1    0.0000
     26 C14        0.3152    1.6918   -0.7553 C.ar      1 RES1    0.0000
     27 H10       -0.6254    1.5601   -0.7375 H         1 RES1    0.0000
     28 C15        1.0085    1.8669    0.4335 C.ar      1 RES1    0.0000
     29 H11        0.5246    1.8608    1.2512 H         1 RES1    0.0000
     30 O3         1.3353    3.8881    2.3724 O.2       1 RES1    0.0000
     31 C16        1.6427    1.8351    6.4221 C.2       1 RES1    0.0000
     32 O4         0.6013    1.2994    6.8024 O.2       1 RES1    0.0000
     33 O5         2.3011    2.7206    7.1760 O.3       1 RES1    0.0000
     34 C17        1.7410    2.9520    8.4986 C.3       1 RES1    0.0000
     35 H12        1.7069    2.1035    9.0062 H         1 RES1    0.0000
     36 H13        0.8196    3.3070    8.4210 H         1 RES1    0.0000
     37 C18        2.6151    3.9405    9.2053 C.3       1 RES1    0.0000
     38 H14        2.2515    4.1192   10.0978 H         1 RES1    0.0000
     39 H15        2.6456    4.7753    8.6925 H         1 RES1    0.0000
     40 H16        3.5202    3.5749    9.2887 H         1 RES1    0.0000
     41 O6         0.6803   -0.1190    4.6339 O.3       1 RES1    0.0000
     42 H17        0.4050    0.1192    5.4525 H         1 RES1    0.0000
     43 O7         5.4703    2.3673    3.4588 O.3       1 RES1    0.0000
     44 C19        6.6061    1.7489    2.8376 C.3       1 RES1    0.0000
     45 H18        7.2799    2.4314    2.6345 H         1 RES1    0.0000
     46 H19        6.3258    1.3104    2.0071 H         1 RES1    0.0000
     47 H20        6.9887    1.0821    3.4454 H         1 RES1    0.0000
     48 O8         4.8228    0.3101    4.3679 O.3       1 RES1    0.0000
     49 C20        5.4329    0.4405    5.6553 C.3       1 RES1    0.0000
     50 H21        5.9293   -0.3782    5.8653 H         1 RES1    0.0000
     51 H22        4.7396    0.5856    6.3332 H         1 RES1    0.0000
     52 H23        6.0476    1.2028    5.6488 H         1 RES1    0.0000
     53 C21        7.8660    7.1593    6.5810 C.3       2 RES2    0.0000
     54 H24        8.4595    7.7791    7.0927 H         2 RES2    0.0000
     55 C22        7.4792    5.9847    7.5257 C.3       2 RES2    0.0000
     56 H25        8.3471    5.6037    7.8449 H         2 RES2    0.0000
     57 C23        6.7781    4.8345    6.7740 C.2       2 RES2    0.0000
     58 C24        7.4079    4.4485    5.4560 C.3       2 RES2    0.0000
     59 H26        6.7763    3.8749    4.9535 H         2 RES2    0.0000
     60 H27        8.2234    3.9168    5.6342 H         2 RES2    0.0000
     61 C25        7.7837    5.6616    4.5814 C.3       2 RES2    0.0000
     62 H28        8.2933    5.3396    3.7830 H         2 RES2    0.0000
     63 C26        6.5450    6.3889    4.1109 C.2       2 RES2    0.0000
     64 C27        6.0351    7.4252    4.8269 C.2       2 RES2    0.0000
     65 C28        6.6786    7.9759    6.0550 C.3       2 RES2    0.0000
     66 H29        5.9956    8.0351    6.7698 H         2 RES2    0.0000
     67 H30        6.9889    8.8955    5.8617 H         2 RES2    0.0000
     68 C29        8.6716    6.6181    5.3861 C.3       2 RES2    0.0000
     69 C30        6.7511    6.4395    8.7850 C.ar      2 RES2    0.0000
     70 C31        7.3788    6.7412    9.9986 C.ar      2 RES2    0.0000
     71 N2         8.8437    6.7428   10.1341 N.pl3     2 RES2    0.0000
     72 O9         9.5265    7.0954    9.1750 O.2       2 RES2    0.0000
     73 O10        9.3283    6.4386   11.2166 O.2       2 RES2    0.0000
     74 C32        6.6907    7.0951   11.1564 C.ar      2 RES2    0.0000
     75 H31        7.1631    7.2679   11.9618 H         2 RES2    0.0000
     76 C33        5.3141    7.1919   11.1199 C.ar      2 RES2    0.0000
     77 H32        4.8276    7.4358   11.8994 H         2 RES2    0.0000
     78 C34        4.6528    6.9300    9.9332 C.ar      2 RES2    0.0000
     79 H33        3.7067    7.0084    9.8942 H         2 RES2    0.0000
     80 C35        5.3579    6.5527    8.7989 C.ar      2 RES2    0.0000
     81 H34        4.8757    6.3643    8.0027 H         2 RES2    0.0000
     82 O11        5.8472    4.2175    7.2365 O.2       2 RES2    0.0000
     83 C36        5.9052    6.0286    2.8529 C.2       2 RES2    0.0000
     84 O12        4.8401    6.4993    2.4641 O.2       2 RES2    0.0000
     85 O13        6.6022    5.1437    2.1302 O.3       2 RES2    0.0000
     86 C37        6.0784    4.8463    0.8025 C.3       2 RES2    0.0000
     87 H35        5.0908    4.7806    0.8458 H         2 RES2    0.0000
     88 H36        6.4304    3.9723    0.4972 H         2 RES2    0.0000
     89 C38        6.4651    5.9126   -0.1844 C.3       2 RES2    0.0000
     90 H37        6.0967    5.6914   -1.0659 H         2 RES2    0.0000
     91 H38        7.4423    5.9648   -0.2422 H         2 RES2    0.0000
     92 H39        6.1095    6.7770    0.1119 H         2 RES2    0.0000
     93 O14        4.9464    8.1235    4.4723 O.3       2 RES2    0.0000
     94 H40        4.6307    7.8308    3.7628 H         2 RES2    0.0000
     95 O15        9.7833    5.8267    5.7771 O.3       2 RES2    0.0000
     96 C39       10.9224    6.5242    6.2919 C.3       2 RES2    0.0000
     97 H41       11.6567    5.8911    6.4341 H         2 RES2    0.0000
     98 H42       10.6875    6.9487    7.1422 H         2 RES2    0.0000
     99 H43       11.2025    7.2099    5.6507 H         2 RES2    0.0000
    100 O16        9.0783    7.7606    4.6739 O.3       2 RES2    0.0000
    101 C40        9.6699    7.5028    3.3946 C.3       2 RES2    0.0000
    102 H44       10.1299    8.3081    3.0785 H         2 RES2    0.0000
    103 H45        8.9702    7.2547    2.7556 H         2 RES2    0.0000
    104 H46       10.3150    6.7693    3.4748 H         2 RES2    0.0000
@<TRIPOS>BOND
     1    1    2 1
     2    3    1 1
     3    4    3 1
     4    5    3 1
     5    6    5 1
     6    7    6 1
     7    8    6 1
     8    9    6 1
     9   10    9 1
    10   11    9 1
    11   12   11 2
    12   13    1 1
    13   14   13 1
    14   15   13 1
    15   16    1 1
    16   17    3 1
    17   18   17 ar
    18   19   18 1
    19   20   19 2
    20   21   19 2
    21   22   18 ar
    22   23   22 1
    23   24   22 ar
    24   25   24 1
    25   26   24 ar
    26   27   26 1
    27   28   17 ar
    28   29   28 1
    29   30    5 2
    30   31   11 1
    31   32   31 2
    32   33   31 1
    33   34   33 1
    34   35   34 1
    35   36   34 1
    36   37   34 1
    37   38   37 1
    38   39   37 1
    39   40   37 1
    40   41   12 1
    41   42   41 1
    42   43   16 1
    43   44   43 1
    44   45   44 1
    45   46   44 1
    46   47   44 1
    47   48   16 1
    48   49   48 1
    49   50   49 1
    50   51   49 1
    51   52   49 1
    52   53   54 1
    53   55   53 1
    54   56   55 1
    55   57   55 1
    56   58   57 1
    57   59   58 1
    58   60   58 1
    59   61   58 1
    60   62   61 1
    61   63   61 1
    62   64   63 2
    63   65   53 1
    64   66   65 1
    65   67   65 1
    66   68   53 1
    67   69   55 1
    68   70   69 ar
    69   71   70 1
    70   72   71 2
    71   73   71 2
    72   74   70 ar
    73   75   74 1
    74   76   74 ar
    75   77   76 1
    76   78   76 ar
    77   79   78 1
    78   80   69 ar
    79   81   80 1
    80   82   57 2
    81   83   63 1
    82   84   83 2
    83   85   83 1
    84   86   85 1
    85   87   86 1
    86   88   86 1
    87   89   86 1
    88   90   89 1
    89   91   89 1
    90   92   89 1
    91   93   64 1
    92   94   93 1
    93   95   68 1
    94   96   95 1
    95   97   96 1
    96   98   96 1
    97   99   96 1
    98  100   68 1
    99  101  100 1
   100  102  101 1
   101  103  101 1
   102  104  101 1
   103    9   16 1
   104   12   13 1
   105   26   28 ar
   106   61   68 1
   107   64   65 1
   108   78   80 ar
@<TRIPOS>SUBSTRUCTURE
     1 RES1 1
     2 RES2 53

@<TRIPOS>CRYSIN
   8.4839   11.9599   19.0580  74.2940  89.5340  89.0040   2 1

