# MOL2 file generated by ConQuest
# Please check atom types

@<TRIPOS>MOLECULE
TAVKOT
   118   124     2
SMALL
NO_CHARGES
****
Generated from CSD

@<TRIPOS>ATOM
      1 N1        12.5790   -0.0159   -3.1664 N.pl3     1 RES1    0.0000
      2 O1         8.5434    4.4930    4.9444 O.2       1 RES1    0.0000
      3 O2         9.8104    2.6643    5.0936 O.3       1 RES1    0.0000
      4 O3        12.4717    3.8980    2.7259 O.2       1 RES1    0.0000
      5 O4        11.6726    4.8901    4.5697 O.3       1 RES1    0.0000
      6 O5        13.5273   -0.7156   -2.8149 O.2       1 RES1    0.0000
      7 O6        12.1938    0.0759   -4.3197 O.2       1 RES1    0.0000
      8 C1         9.9881    2.5670    2.3257 C.3       1 RES1    0.0000
      9 H1        10.8126    2.0628    2.4084 H         1 RES1    0.0000
     10 H2         9.2590    2.0209    2.6605 H         1 RES1    0.0000
     11 C2         9.7404    2.9389    0.8618 C.3       1 RES1    0.0000
     12 H3         8.7825    2.8401    0.6828 H         1 RES1    0.0000
     13 C3        10.0804    4.4279    0.7995 C.3       1 RES1    0.0000
     14 H4         9.6370    4.8490    0.0465 H         1 RES1    0.0000
     15 H5        11.0379    4.5555    0.7083 H         1 RES1    0.0000
     16 C4         9.5751    5.0277    2.1337 C.3       1 RES1    0.0000
     17 C5        10.0844    3.8922    3.1368 C.3       1 RES1    0.0000
     18 C6         9.3693    3.7693    4.4830 C.2       1 RES1    0.0000
     19 C7         9.2438    2.3862    6.3899 C.3       1 RES1    0.0000
     20 H6         9.2324    3.1904    6.9132 H         1 RES1    0.0000
     21 H7         9.7747    1.7224    6.8351 H         1 RES1    0.0000
     22 H8         8.3473    2.0615    6.2844 H         1 RES1    0.0000
     23 C8        11.5566    4.1968    3.4375 C.2       1 RES1    0.0000
     24 C9        12.9697    5.4633    4.8427 C.3       1 RES1    0.0000
     25 H9        13.5998    4.7604    5.0164 H         1 RES1    0.0000
     26 H10       12.9108    6.0372    5.6092 H         1 RES1    0.0000
     27 H11       13.2603    5.9725    4.0831 H         1 RES1    0.0000
     28 C10       10.2092    6.3905    2.4681 C.ar      1 RES1    0.0000
     29 C11        9.7682    7.1003    3.5831 C.ar      1 RES1    0.0000
     30 H12        9.0739    6.7583    4.0981 H         1 RES1    0.0000
     31 C12       10.3422    8.2962    3.9350 C.ar      1 RES1    0.0000
     32 H13       10.0324    8.7521    4.6833 H         1 RES1    0.0000
     33 C13       11.3653    8.8239    3.1937 C.ar      1 RES1    0.0000
     34 H14       11.7598    9.6276    3.4438 H         1 RES1    0.0000
     35 C14       11.8028    8.1579    2.0834 C.ar      1 RES1    0.0000
     36 H15       12.4917    8.5156    1.5711 H         1 RES1    0.0000
     37 C15       11.2241    6.9532    1.7170 C.ar      1 RES1    0.0000
     38 H16       11.5227    6.5168    0.9529 H         1 RES1    0.0000
     39 C16        8.0434    5.1724    2.0445 C.ar      1 RES1    0.0000
     40 C17        7.5259    6.3503    1.5163 C.ar      1 RES1    0.0000
     41 H17        8.1112    7.0242    1.2545 H         1 RES1    0.0000
     42 C18        6.1651    6.5470    1.3703 C.ar      1 RES1    0.0000
     43 H18        5.8497    7.3531    1.0324 H         1 RES1    0.0000
     44 C19        5.2739    5.5569    1.7218 C.ar      1 RES1    0.0000
     45 H19        4.3581    5.6868    1.6266 H         1 RES1    0.0000
     46 C20        5.7665    4.3747    2.2141 C.ar      1 RES1    0.0000
     47 H20        5.1758    3.6933    2.4444 H         1 RES1    0.0000
     48 C21        7.1286    4.1808    2.3727 C.ar      1 RES1    0.0000
     49 H21        7.4373    3.3698    2.7055 H         1 RES1    0.0000
     50 C22       10.4957    2.1243   -0.1718 C.ar      1 RES1    0.0000
     51 C23        9.9253    1.8883   -1.4092 C.ar      1 RES1    0.0000
     52 H22        9.0644    2.1970   -1.5771 H         1 RES1    0.0000
     53 C24       10.5977    1.2069   -2.4014 C.ar      1 RES1    0.0000
     54 H23       10.2070    1.0738   -3.2352 H         1 RES1    0.0000
     55 C25       11.8452    0.7331   -2.1340 C.ar      1 RES1    0.0000
     56 C26       12.4494    0.9359   -0.9269 C.ar      1 RES1    0.0000
     57 H24       13.3023    0.6041   -0.7623 H         1 RES1    0.0000
     58 C27       11.7711    1.6414    0.0410 C.ar      1 RES1    0.0000
     59 H25       12.1822    1.7971    0.8598 H         1 RES1    0.0000
     60 N2         9.7248   15.2257    9.9976 N.pl3     2 RES2    0.0000
     61 O7         4.6231    8.5844    4.3080 O.2       2 RES2    0.0000
     62 O8         6.5238    8.1646    5.4025 O.3       2 RES2    0.0000
     63 O9         7.8998   11.6412    4.1911 O.2       2 RES2    0.0000
     64 O10        7.0450    9.9549    3.0052 O.3       2 RES2    0.0000
     65 O11       10.5969   15.8047    9.3673 O.2       2 RES2    0.0000
     66 O12        9.5911   15.3037   11.2111 O.2       2 RES2    0.0000
     67 C28        6.6041   10.6699    6.5226 C.3       2 RES2    0.0000
     68 H26        6.3817    9.9272    7.1052 H         2 RES2    0.0000
     69 H27        7.5698   10.7449    6.4765 H         2 RES2    0.0000
     70 C29        5.9973   11.9726    7.0695 C.3       2 RES2    0.0000
     71 H28        5.2457   11.7432    7.6544 H         2 RES2    0.0000
     72 C30        5.4473   12.6656    5.8215 C.3       2 RES2    0.0000
     73 H29        6.1545   13.1373    5.3541 H         2 RES2    0.0000
     74 H30        4.7537   13.2998    6.0608 H         2 RES2    0.0000
     75 C31        4.8704   11.5313    4.9378 C.3       2 RES2    0.0000
     76 C32        6.0140   10.4299    5.0967 C.3       2 RES2    0.0000
     77 C33        5.5949    8.9866    4.8770 C.2       2 RES2    0.0000
     78 C34        6.3055    6.7600    5.1645 C.3       2 RES2    0.0000
     79 H31        5.4544    6.5020    5.5266 H         2 RES2    0.0000
     80 H32        7.0003    6.2521    5.5896 H         2 RES2    0.0000
     81 H33        6.3163    6.5900    4.2196 H         2 RES2    0.0000
     82 C35        7.1064   10.7664    4.0646 C.2       2 RES2    0.0000
     83 C36        7.9126   10.2801    1.9063 C.3       2 RES2    0.0000
     84 H34        7.6501   11.1231    1.5306 H         2 RES2    0.0000
     85 H35        7.8486    9.5970    1.2350 H         2 RES2    0.0000
     86 H36        8.8178   10.3375    2.2194 H         2 RES2    0.0000
     87 C37        4.6760   11.9824    3.4705 C.ar      2 RES2    0.0000
     88 C38        4.2609   11.0721    2.5078 C.ar      2 RES2    0.0000
     89 H37        4.0876   10.1927    2.7566 H         2 RES2    0.0000
     90 C39        4.1005   11.4457    1.1901 C.ar      2 RES2    0.0000
     91 H38        3.8528   10.8123    0.5552 H         2 RES2    0.0000
     92 C40        4.3049   12.7522    0.8129 C.ar      2 RES2    0.0000
     93 H39        4.1981   13.0093   -0.0735 H         2 RES2    0.0000
     94 C41        4.6678   13.6636    1.7594 C.ar      2 RES2    0.0000
     95 H40        4.7842   14.5546    1.5171 H         2 RES2    0.0000
     96 C42        4.8635   13.2848    3.0664 C.ar      2 RES2    0.0000
     97 H41        5.1284   13.9213    3.6899 H         2 RES2    0.0000
     98 C43        3.5065   11.1237    5.5422 C.ar      2 RES2    0.0000
     99 C44        2.3774   11.8211    5.1551 C.ar      2 RES2    0.0000
    100 H42        2.4537   12.4686    4.4912 H         2 RES2    0.0000
    101 C45        1.1475   11.5908    5.7181 C.ar      2 RES2    0.0000
    102 H43        0.4089   12.0763    5.4306 H         2 RES2    0.0000
    103 C46        1.0040   10.6517    6.6996 C.ar      2 RES2    0.0000
    104 H44        0.1717   10.4947    7.0842 H         2 RES2    0.0000
    105 C47        2.1047    9.9433    7.1096 C.ar      2 RES2    0.0000
    106 H45        2.0158    9.3027    7.7775 H         2 RES2    0.0000
    107 C48        3.3502   10.1716    6.5404 C.ar      2 RES2    0.0000
    108 H46        4.0859    9.6825    6.8306 H         2 RES2    0.0000
    109 C49        6.9719   12.8314    7.8516 C.ar      2 RES2    0.0000
    110 C50        6.7161   13.1882    9.1657 C.ar      2 RES2    0.0000
    111 H47        5.9317   12.9016    9.5752 H         2 RES2    0.0000
    112 C51        7.6163   13.9708    9.8798 C.ar      2 RES2    0.0000
    113 H48        7.4440   14.2066   10.7621 H         2 RES2    0.0000
    114 C52        8.7647   14.3875    9.2554 C.ar      2 RES2    0.0000
    115 C53        9.0479   14.0552    7.9562 C.ar      2 RES2    0.0000
    116 H49        9.8329   14.3470    7.5524 H         2 RES2    0.0000
    117 C54        8.1466   13.2801    7.2605 C.ar      2 RES2    0.0000
    118 H50        8.3282   13.0517    6.3774 H         2 RES2    0.0000
@<TRIPOS>BOND
     1    1    6 2
     2    2   18 2
     3    3   18 1
     4    4   23 2
     5    5   23 1
     6    7    1 2
     7    8    9 1
     8   10    8 1
     9   11    8 1
    10   12   11 1
    11   13   11 1
    12   14   13 1
    13   15   13 1
    14   16   13 1
    15   17    8 1
    16   18   17 1
    17   19    3 1
    18   20   19 1
    19   21   19 1
    20   22   19 1
    21   23   17 1
    22   24    5 1
    23   25   24 1
    24   26   24 1
    25   27   24 1
    26   28   16 1
    27   29   28 ar
    28   30   29 1
    29   31   29 ar
    30   32   31 1
    31   33   31 ar
    32   34   33 1
    33   35   33 ar
    34   36   35 1
    35   37   28 ar
    36   38   37 1
    37   39   16 1
    38   40   39 ar
    39   41   40 1
    40   42   40 ar
    41   43   42 1
    42   44   42 ar
    43   45   44 1
    44   46   44 ar
    45   47   46 1
    46   48   39 ar
    47   49   48 1
    48   50   11 1
    49   51   50 ar
    50   52   51 1
    51   53   51 ar
    52   54   53 1
    53   55    1 1
    54   56   55 ar
    55   57   56 1
    56   58   50 ar
    57   59   58 1
    58   60   65 2
    59   61   77 2
    60   62   77 1
    61   63   82 2
    62   64   82 1
    63   66   60 2
    64   67   68 1
    65   69   67 1
    66   70   67 1
    67   71   70 1
    68   72   70 1
    69   73   72 1
    70   74   72 1
    71   75   72 1
    72   76   67 1
    73   77   76 1
    74   78   62 1
    75   79   78 1
    76   80   78 1
    77   81   78 1
    78   82   76 1
    79   83   64 1
    80   84   83 1
    81   85   83 1
    82   86   83 1
    83   87   75 1
    84   88   87 ar
    85   89   88 1
    86   90   88 ar
    87   91   90 1
    88   92   90 ar
    89   93   92 1
    90   94   92 ar
    91   95   94 1
    92   96   87 ar
    93   97   96 1
    94   98   75 1
    95   99   98 ar
    96  100   99 1
    97  101   99 ar
    98  102  101 1
    99  103  101 ar
   100  104  103 1
   101  105  103 ar
   102  106  105 1
   103  107   98 ar
   104  108  107 1
   105  109   70 1
   106  110  109 ar
   107  111  110 1
   108  112  110 ar
   109  113  112 1
   110  114   60 1
   111  115  114 ar
   112  116  115 1
   113  117  109 ar
   114  118  117 1
   115   16   17 1
   116   35   37 ar
   117   46   48 ar
   118   53   55 ar
   119   56   58 ar
   120   75   76 1
   121   94   96 ar
   122  105  107 ar
   123  112  114 ar
   124  115  117 ar
@<TRIPOS>SUBSTRUCTURE
     1 RES1 1
     2 RES2 60

@<TRIPOS>CRYSIN
  10.1298   15.0127   15.1065  86.4420  84.3390  88.6110   2 1

