# MOL2 file generated by ConQuest
# Please check atom types

@<TRIPOS>MOLECULE
TAVMAG
    64    68     1
SMALL
NO_CHARGES
****
Generated from CSD

@<TRIPOS>ATOM
      1 O1         0.4988    4.6873    9.9125 O.3       1 RES1    0.0000
      2 N1        -3.2791    4.0944   12.2541 N.3       1 RES1    0.0000
      3 H1        -3.5559    4.1997   11.4153 H         1 RES1    0.0000
      4 N2        -0.3999    5.6574    9.2208 N.3       1 RES1    0.0000
      5 C1        -4.3687    3.9041   14.4477 C.ar      1 RES1    0.0000
      6 C2        -3.6952    2.7426   14.7845 C.ar      1 RES1    0.0000
      7 H2        -3.2395    2.2589   14.1051 H         1 RES1    0.0000
      8 C3        -3.6689    2.2730   16.0760 C.ar      1 RES1    0.0000
      9 H3        -3.2010    1.4718   16.2766 H         1 RES1    0.0000
     10 C4        -4.3166    2.9554   17.0775 C.ar      1 RES1    0.0000
     11 H4        -4.3022    2.6288   17.9692 H         1 RES1    0.0000
     12 C5        -4.9841    4.1186   16.7700 C.ar      1 RES1    0.0000
     13 H5        -5.4312    4.6023   17.4538 H         1 RES1    0.0000
     14 C6        -5.0040    4.5848   15.4712 C.ar      1 RES1    0.0000
     15 H6        -5.4664    5.3917   15.2750 H         1 RES1    0.0000
     16 C7        -4.4719    4.4024   13.0333 C.3       1 RES1    0.0000
     17 H7        -4.5989    5.3939   13.0494 H         1 RES1    0.0000
     18 C8        -5.6768    3.7628   12.3436 C.3       1 RES1    0.0000
     19 H8        -5.6037    2.7870   12.3963 H         1 RES1    0.0000
     20 H9        -5.7006    4.0387   11.4036 H         1 RES1    0.0000
     21 H10       -6.5003    4.0528   12.7902 H         1 RES1    0.0000
     22 C9        -2.1635    5.0172   12.5003 C.3       1 RES1    0.0000
     23 H11       -1.6696    4.7273   13.3085 H         1 RES1    0.0000
     24 H12       -2.5194    5.9254   12.6701 H         1 RES1    0.0000
     25 C10       -1.2269    5.0606   11.3347 C.2       1 RES1    0.0000
     26 C11       -0.1088    4.3754   11.1078 C.2       1 RES1    0.0000
     27 C12        0.6044    3.3518   11.8882 C.ar      1 RES1    0.0000
     28 C13       -0.0865    2.5016   12.7287 C.ar      1 RES1    0.0000
     29 H13       -1.0260    2.5984   12.8268 H         1 RES1    0.0000
     30 C14        0.5807    1.5050   13.4330 C.ar      1 RES1    0.0000
     31 H14        0.1014    0.9335   14.0202 H         1 RES1    0.0000
     32 C15        1.9463    1.3502   13.2734 C.ar      1 RES1    0.0000
     33 H15        2.4038    0.6599   13.7390 H         1 RES1    0.0000
     34 C16        2.6471    2.1987   12.4373 C.ar      1 RES1    0.0000
     35 H16        3.5847    2.0928   12.3304 H         1 RES1    0.0000
     36 C17        1.9865    3.1964   11.7579 C.ar      1 RES1    0.0000
     37 H17        2.4746    3.7853   11.1942 H         1 RES1    0.0000
     38 C18       -1.4750    6.0014   10.1882 C.3       1 RES1    0.0000
     39 H18       -1.3436    6.9417   10.5030 H         1 RES1    0.0000
     40 C19       -2.8598    5.8669    9.5908 C.ar      1 RES1    0.0000
     41 C20       -3.8425    6.7751    9.9437 C.ar      1 RES1    0.0000
     42 H19       -3.6175    7.5357   10.4664 H         1 RES1    0.0000
     43 C21       -5.1578    6.5791    9.5381 C.ar      1 RES1    0.0000
     44 H20       -5.8285    7.1996    9.7943 H         1 RES1    0.0000
     45 C22       -5.4904    5.4941    8.7664 C.ar      1 RES1    0.0000
     46 H21       -6.3895    5.3646    8.4912 H         1 RES1    0.0000
     47 C23       -4.5157    4.5899    8.3916 C.ar      1 RES1    0.0000
     48 H22       -4.7457    3.8388    7.8571 H         1 RES1    0.0000
     49 C24       -3.1990    4.7785    8.7943 C.ar      1 RES1    0.0000
     50 H23       -2.5291    4.1620    8.5234 H         1 RES1    0.0000
     51 C25        0.4627    6.7976    8.9143 C.3       1 RES1    0.0000
     52 H24        1.0004    7.0194    9.7153 H         1 RES1    0.0000
     53 H25       -0.1038    7.5819    8.7035 H         1 RES1    0.0000
     54 C26        1.3938    6.5431    7.7576 C.ar      1 RES1    0.0000
     55 C27        1.2714    5.4226    6.9449 C.ar      1 RES1    0.0000
     56 H26        0.6154    4.7633    7.1397 H         1 RES1    0.0000
     57 C28        2.1043    5.2672    5.8526 C.ar      1 RES1    0.0000
     58 H27        2.0129    4.5032    5.2962 H         1 RES1    0.0000
     59 C29        3.0635    6.2103    5.5641 C.ar      1 RES1    0.0000
     60 H28        3.6272    6.0977    4.8086 H         1 RES1    0.0000
     61 C30        3.2048    7.3111    6.3680 C.ar      1 RES1    0.0000
     62 H29        3.8730    7.9586    6.1762 H         1 RES1    0.0000
     63 C31        2.3697    7.4760    7.4589 C.ar      1 RES1    0.0000
     64 H30        2.4690    8.2423    8.0109 H         1 RES1    0.0000
@<TRIPOS>BOND
     1    1    4 1
     2    2    3 1
     3    4   38 1
     4    5    6 ar
     5    6    7 1
     6    8    6 ar
     7    9    8 1
     8   10    8 ar
     9   11   10 1
    10   12   10 ar
    11   13   12 1
    12   14    5 ar
    13   15   14 1
    14   16    2 1
    15   17   16 1
    16   18   16 1
    17   19   18 1
    18   20   18 1
    19   21   18 1
    20   22    2 1
    21   23   22 1
    22   24   22 1
    23   25   22 1
    24   26    1 1
    25   27   26 1
    26   28   27 ar
    27   29   28 1
    28   30   28 ar
    29   31   30 1
    30   32   30 ar
    31   33   32 1
    32   34   32 ar
    33   35   34 1
    34   36   27 ar
    35   37   36 1
    36   38   25 1
    37   39   38 1
    38   40   38 1
    39   41   40 ar
    40   42   41 1
    41   43   41 ar
    42   44   43 1
    43   45   43 ar
    44   46   45 1
    45   47   45 ar
    46   48   47 1
    47   49   40 ar
    48   50   49 1
    49   51    4 1
    50   52   51 1
    51   53   51 1
    52   54   51 1
    53   55   54 ar
    54   56   55 1
    55   57   55 ar
    56   58   57 1
    57   59   57 ar
    58   60   59 1
    59   61   59 ar
    60   62   61 1
    61   63   54 ar
    62   64   63 1
    63    5   16 1
    64   12   14 ar
    65   25   26 2
    66   34   36 ar
    67   47   49 ar
    68   61   63 ar
@<TRIPOS>SUBSTRUCTURE
     1 RES1 1

@<TRIPOS>CRYSIN
  14.9620    5.6304   16.0990  90.0000 114.5600  90.0000   4 1

