# MOL2 file generated by ConQuest
# Please check atom types

@<TRIPOS>MOLECULE
TAVNAH
   113    91     2
SMALL
NO_CHARGES
****
Generated from CSD

@<TRIPOS>ATOM
      1 O1         3.8843    4.2732   16.3371 O.2       1 RES1    0.0000
      2 C1         8.9345   -0.3691   17.8803 C.ar      1 RES1    0.0000
      3 N1         9.9741   -1.4198   17.9616 N.pl3     1 RES1    0.0000
      4 O2         9.6689   -2.5270   17.5988 O.2       1 RES1    0.0000
      5 O3        11.0610   -1.1226   18.4110 O.2       1 RES1    0.0000
      6 O4         6.7607    6.1903   14.9815 O.2       1 RES1    0.0000
      7 O5         7.5786    6.9557   16.9038 O.3       1 RES1    0.0000
      8 O6         3.8371    0.7860   15.4869 O.2       1 RES1    0.0000
      9 O7         1.7731    0.7706   14.6891 O.3       1 RES1    0.0000
     10 C2         5.5058    5.1976    9.5647 C.ar      1 RES1    0.0000
     11 N2         6.0218    5.3889    8.1532 N.pl3     1 RES1    0.0000
     12 O8         6.9912    6.1134    8.0341 O.2       1 RES1    0.0000
     13 O9         5.5014    4.8029    7.2669 O.2       1 RES1    0.0000
     14 C3         4.7472    3.7863   15.6349 C.2       1 RES1    0.0000
     15 C4         6.1283    3.5795   16.2522 C.3       1 RES1    0.0000
     16 C5         7.1790    3.0669   15.2270 C.3       1 RES1    0.0000
     17 H1         7.5314    3.8426   14.7216 H         1 RES1    0.0000
     18 H2         7.9354    2.6637   15.7216 H         1 RES1    0.0000
     19 C6         6.6377    2.0315   14.2234 C.3       1 RES1    0.0000
     20 H3         6.2612    1.3002   14.7938 H         1 RES1    0.0000
     21 C7         5.4817    2.5629   13.4888 C.3       1 RES1    0.0000
     22 H4         5.0260    1.7923   13.0646 H         1 RES1    0.0000
     23 H5         5.8374    3.1233   12.7541 H         1 RES1    0.0000
     24 C8         4.3981    3.3916   14.2054 C.3       1 RES1    0.0000
     25 C9         7.6939    1.3413   13.3552 C.3       1 RES1    0.0000
     26 C10        8.3208    2.2519   12.2866 C.3       1 RES1    0.0000
     27 H6         8.9663    1.7376   11.7578 H         1 RES1    0.0000
     28 H7         8.7775    3.0003   12.7216 H         1 RES1    0.0000
     29 H8         7.6170    2.5971   11.6982 H         1 RES1    0.0000
     30 C11        8.8214    0.7039   14.1945 C.3       1 RES1    0.0000
     31 H9         9.4812    0.2939   13.5989 H         1 RES1    0.0000
     32 H10        8.4426    0.0188   14.7848 H         1 RES1    0.0000
     33 H11        9.2561    1.3959   14.7360 H         1 RES1    0.0000
     34 C12        7.0176    0.1862   12.5845 C.3       1 RES1    0.0000
     35 H12        7.6730   -0.2409   11.9942 H         1 RES1    0.0000
     36 H13        6.2776    0.5416   12.0466 H         1 RES1    0.0000
     37 H14        6.6707   -0.4733   13.2216 H         1 RES1    0.0000
     38 C13        5.9274    2.6142   17.4923 C.3       1 RES1    0.0000
     39 H15        5.0469    2.1528   17.3876 H         1 RES1    0.0000
     40 C14        5.8297    3.5727   18.7305 C.3       1 RES1    0.0000
     41 H16        4.8877    3.7145   19.0012 H         1 RES1    0.0000
     42 H17        6.3380    3.2156   19.5012 H         1 RES1    0.0000
     43 C15        6.4390    4.8319   18.2197 C.2       1 RES1    0.0000
     44 H18        6.6959    5.5530   18.7828 H         1 RES1    0.0000
     45 C16        6.5839    4.8507   16.9309 C.2       1 RES1    0.0000
     46 C17        6.9528    6.0160   16.1638 C.2       1 RES1    0.0000
     47 C18        8.0309    8.1944   16.2270 C.3       1 RES1    0.0000
     48 H19        7.9541    8.9599   16.8497 H         1 RES1    0.0000
     49 H20        7.4501    8.3756   15.4454 H         1 RES1    0.0000
     50 C19        9.4483    8.0560   15.7757 C.3       1 RES1    0.0000
     51 H21        9.7304    8.8813   15.3281 H         1 RES1    0.0000
     52 H22        9.5218    7.3043   15.1512 H         1 RES1    0.0000
     53 H23       10.0236    7.8937   16.5519 H         1 RES1    0.0000
     54 C20        6.9814    1.5719   17.6655 C.ar      1 RES1    0.0000
     55 C21        8.2725    1.9017   18.1312 C.ar      1 RES1    0.0000
     56 H24        8.4745    2.7970   18.3749 H         1 RES1    0.0000
     57 C22        9.2485    0.9158   18.2323 C.ar      1 RES1    0.0000
     58 H25       10.1202    1.1311   18.5410 H         1 RES1    0.0000
     59 C23        7.7049   -0.7057   17.4598 C.ar      1 RES1    0.0000
     60 H26        7.5083   -1.6095   17.2432 H         1 RES1    0.0000
     61 C24        6.7288    0.2563   17.3388 C.ar      1 RES1    0.0000
     62 H27        5.8659    0.0103   17.0266 H         1 RES1    0.0000
     63 C25        3.9655    4.7482   13.5014 C.3       1 RES1    0.0000
     64 H28        4.3124    5.5137   14.0429 H         1 RES1    0.0000
     65 C26        2.4439    4.7841   13.5267 C.3       1 RES1    0.0000
     66 H29        2.1211    5.4402   14.1945 H         1 RES1    0.0000
     67 H30        2.0860    5.0335   12.6368 H         1 RES1    0.0000
     68 C27        2.0256    3.4257   13.8895 C.2       1 RES1    0.0000
     69 H31        1.1242    3.1250   13.8624 H         1 RES1    0.0000
     70 C28        3.0609    2.6569   14.2667 C.2       1 RES1    0.0000
     71 C29        2.9533    1.3242   14.8822 C.2       1 RES1    0.0000
     72 C30        1.4711   -0.2853   15.6421 C.3       1 RES1    0.0000
     73 H32        0.6840   -0.0325   16.1945 H         1 RES1    0.0000
     74 H33        2.2375   -0.4374   16.2432 H         1 RES1    0.0000
     75 C31        1.1747   -1.4984   14.8732 C.3       1 RES1    0.0000
     76 H34        0.9826   -2.2366   15.4887 H         1 RES1    0.0000
     77 H35        1.9487   -1.7291   14.3191 H         1 RES1    0.0000
     78 H36        0.3963   -1.3413   14.2992 H         1 RES1    0.0000
     79 C32        4.4881    4.8849   12.0610 C.ar      1 RES1    0.0000
     80 C33        5.5563    5.7904   11.8228 C.ar      1 RES1    0.0000
     81 H37        5.9208    6.2945   12.5411 H         1 RES1    0.0000
     82 C34        6.0624    5.9374   10.5556 C.ar      1 RES1    0.0000
     83 H38        6.7782    6.5354   10.3788 H         1 RES1    0.0000
     84 C35        4.4738    4.3142    9.7380 C.ar      1 RES1    0.0000
     85 H39        4.1126    3.8221    9.0106 H         1 RES1    0.0000
     86 C36        3.9831    4.1707   11.0213 C.ar      1 RES1    0.0000
     87 H40        3.2749    3.5590   11.1802 H         1 RES1    0.0000
     88 C37        9.3780    2.7987   13.5104 Du        2 SUP2    0.0000
     89 C38        1.6688   -0.6527   15.0320 Du        2 SUP2    0.0000
     90 C39        0.2317   -0.9637   14.9003 Du        2 SUP2    0.0000
     91 C40        6.8529    3.0191   13.8805 Du        2 SUP2    0.0000
     92 C41        7.9716    2.4160   13.0141 Du        2 SUP2    0.0000
     93 C42        7.8278    0.8868   13.0393 Du        2 SUP2    0.0000
     94 C43        7.8168    2.9473   11.5827 Du        2 SUP2    0.0000
     95 H41        9.5010    2.4723   14.4274 Du        2 SUP2    0.0000
     96 H42        9.4757    3.7743   13.4960 Du        2 SUP2    0.0000
     97 H43       10.0521    2.3937   12.9274 Du        2 SUP2    0.0000
     98 H44        1.9860   -0.8150   15.9580 Du        2 SUP2    0.0000
     99 H45        2.2122   -1.2046   14.4111 Du        2 SUP2    0.0000
    100 H46        0.0812   -1.9102   15.1060 Du        2 SUP2    0.0000
    101 H47       -0.0593   -0.7791   13.9833 Du        2 SUP2    0.0000
    102 H48       -0.2811   -0.4084   15.5230 Du        2 SUP2    0.0000
    103 H49        7.9837    3.6376   15.3172 Du        2 SUP2    0.0000
    104 H50        7.4414    2.1528   15.5013 Du        2 SUP2    0.0000
    105 H51        6.8551    3.9827   13.6133 Du        2 SUP2    0.0000
    106 H52        5.3730    1.6078   13.7198 Du        2 SUP2    0.0000
    107 H53        5.3719    2.6552   12.5087 Du        2 SUP2    0.0000
    108 H54        7.9409    0.5638   13.9581 Du        2 SUP2    0.0000
    109 H55        8.5063    0.4835   12.4617 Du        2 SUP2    0.0000
    110 H56        6.9341    0.6390   12.7162 Du        2 SUP2    0.0000
    111 H57        7.9003    3.9229   11.5845 Du        2 SUP2    0.0000
    112 H58        6.9363    2.6945   11.2343 Du        2 SUP2    0.0000
    113 H59        8.5162    2.5612   11.0141 Du        2 SUP2    0.0000
@<TRIPOS>BOND
     1    1   14 2
     2    2    3 1
     3    3    4 2
     4    5    3 2
     5    6   46 2
     6    7   46 1
     7    8   71 2
     8    9   71 1
     9   10   11 1
    10   11   12 2
    11   13   11 2
    12   14   15 1
    13   15   16 1
    14   16   17 1
    15   18   16 1
    16   19   16 1
    17   20   19 1
    18   21   19 1
    19   22   21 1
    20   23   21 1
    21   24   14 1
    22   25   19 1
    23   26   25 1
    24   27   26 1
    25   28   26 1
    26   29   26 1
    27   30   25 1
    28   31   30 1
    29   32   30 1
    30   33   30 1
    31   34   25 1
    32   35   34 1
    33   36   34 1
    34   37   34 1
    35   38   15 1
    36   39   38 1
    37   40   38 1
    38   41   40 1
    39   42   40 1
    40   43   40 1
    41   44   43 1
    42   45   15 1
    43   46   45 1
    44   47    7 1
    45   48   47 1
    46   49   47 1
    47   50   47 1
    48   51   50 1
    49   52   50 1
    50   53   50 1
    51   54   38 1
    52   55   54 ar
    53   56   55 1
    54   57    2 ar
    55   58   57 1
    56   59    2 ar
    57   60   59 1
    58   61   54 ar
    59   62   61 1
    60   63   24 1
    61   64   63 1
    62   65   63 1
    63   66   65 1
    64   67   65 1
    65   68   65 1
    66   69   68 1
    67   70   24 1
    68   71   70 1
    69   72    9 1
    70   73   72 1
    71   74   72 1
    72   75   72 1
    73   76   75 1
    74   77   75 1
    75   78   75 1
    76   79   63 1
    77   80   79 ar
    78   81   80 1
    79   82   10 ar
    80   83   82 1
    81   84   10 ar
    82   85   84 1
    83   86   79 ar
    84   87   86 1
    85   21   24 1
    86   43   45 2
    87   55   57 ar
    88   59   61 ar
    89   68   70 2
    90   80   82 ar
    91   84   86 ar
@<TRIPOS>SUBSTRUCTURE
     1 RES1 1
     2 SUP2 88

@<TRIPOS>CRYSIN
  10.9787   17.0860   18.0500  90.0000  90.0000  90.0000  19 1

