# MOL2 file generated by ConQuest
# Please check atom types

@<TRIPOS>MOLECULE
TAVWEU
    38    38     1
SMALL
NO_CHARGES
****
Generated from CSD

@<TRIPOS>ATOM
      1 O1         1.0810   -2.5119   -0.1870 O.3       1 RES1    0.0000
      2 O2         2.6262   -3.1678    2.2142 O.2       1 RES1    0.0000
      3 O3         0.8576   -2.3021    3.1154 O.2       1 RES1    0.0000
      4 O4         4.2613   -0.8261    5.6472 O.2       1 RES1    0.0000
      5 O5         4.1919    0.4284    7.4934 O.3       1 RES1    0.0000
      6 N1         1.7935   -2.2742    2.3296 N.pl3     1 RES1    0.0000
      7 C1         1.5235   -1.2672    0.1336 C.ar      1 RES1    0.0000
      8 C2         1.9193   -1.0935    1.4595 C.ar      1 RES1    0.0000
      9 C3         2.3895    0.1043    1.9897 C.ar      1 RES1    0.0000
     10 C4         2.4569    1.1812    1.0956 C.ar      1 RES1    0.0000
     11 H1         2.7796    2.0212    1.3993 H         1 RES1    0.0000
     12 C5         2.0603    1.0390   -0.2193 C.ar      1 RES1    0.0000
     13 H2         2.1094    1.7885   -0.8013 H         1 RES1    0.0000
     14 C6         1.5922   -0.1745   -0.7144 C.ar      1 RES1    0.0000
     15 H3         1.3236   -0.2522   -1.6221 H         1 RES1    0.0000
     16 C7         0.7869   -2.7651   -1.5648 C.3       1 RES1    0.0000
     17 H4         0.0446   -2.1917   -1.8515 H         1 RES1    0.0000
     18 H5         0.5334   -3.7055   -1.6769 H         1 RES1    0.0000
     19 H6         1.5781   -2.5723   -2.1081 H         1 RES1    0.0000
     20 C8         2.8217    0.1707    3.3897 C.2       1 RES1    0.0000
     21 H7         2.9713   -0.6522    3.8410 H         1 RES1    0.0000
     22 C9         3.0214    1.3029    4.0857 C.2       1 RES1    0.0000
     23 H8         2.8633    2.1154    3.6195 H         1 RES1    0.0000
     24 C10        3.4564    1.4307    5.4780 C.2       1 RES1    0.0000
     25 C11        3.3777    2.5859    6.1606 C.2       1 RES1    0.0000
     26 H9         3.7246    2.5731    7.0449 H         1 RES1    0.0000
     27 C12        2.8132    3.8840    5.6959 C.3       1 RES1    0.0000
     28 H10        2.6946    3.8596    4.7231 H         1 RES1    0.0000
     29 H11        3.4262    4.6106    5.9322 H         1 RES1    0.0000
     30 H12        1.9464    4.0363    6.1264 H         1 RES1    0.0000
     31 C13        4.0036    0.2298    6.1797 C.2       1 RES1    0.0000
     32 C14        4.7129   -0.7086    8.2344 C.3       1 RES1    0.0000
     33 H13        5.4677   -1.1184    7.7446 H         1 RES1    0.0000
     34 H14        4.0072   -1.3924    8.3518 H         1 RES1    0.0000
     35 C15        5.1751   -0.2044    9.5744 C.3       1 RES1    0.0000
     36 H15        5.8641    0.4802    9.4462 H         1 RES1    0.0000
     37 H16        5.5478   -0.9480   10.0925 H         1 RES1    0.0000
     38 H17        4.4140    0.1829   10.0573 H         1 RES1    0.0000
@<TRIPOS>BOND
     1    1    7 1
     2    2    6 2
     3    3    6 2
     4    4   31 2
     5    5   31 1
     6    6    8 1
     7    7    8 ar
     8    8    9 ar
     9    9   10 ar
    10   10   11 1
    11   12   10 ar
    12   13   12 1
    13   14    7 ar
    14   15   14 1
    15   16    1 1
    16   17   16 1
    17   18   16 1
    18   19   16 1
    19   20    9 1
    20   21   20 1
    21   22   20 2
    22   23   22 1
    23   24   22 1
    24   25   24 2
    25   26   25 1
    26   27   25 1
    27   28   27 1
    28   29   27 1
    29   30   27 1
    30   31   24 1
    31   32    5 1
    32   33   32 1
    33   34   32 1
    34   35   32 1
    35   36   35 1
    36   37   35 1
    37   38   35 1
    38   12   14 ar
@<TRIPOS>SUBSTRUCTURE
     1 RES1 1

@<TRIPOS>CRYSIN
  28.2610    7.7830   13.3610  90.0000 102.7940  90.0000  15 1

