# MOL2 file generated by ConQuest
# Please check atom types

@<TRIPOS>MOLECULE
TAWBOJ
   110   116     1
SMALL
NO_CHARGES
****
Generated from CSD

@<TRIPOS>ATOM
      1 N1         2.7551   -1.3859   16.6290 N.ar      1 RES1    0.0000
      2 N2         6.5757    2.3581   13.4376 N.3       1 RES1    0.0000
      3 N3         3.2310    0.6788   13.6899 N.3       1 RES1    0.0000
      4 O1         8.6792    1.2716   11.5795 O.2       1 RES1    0.0000
      5 C1         2.5683   -1.2696   17.9725 C.ar      1 RES1    0.0000
      6 C2         6.4042    3.0410   11.0766 C.ar      1 RES1    0.0000
      7 O2         7.2316   -0.2873   11.1584 O.2       1 RES1    0.0000
      8 C3         2.7105   -0.5058   14.3833 C.3       1 RES1    0.0000
      9 H1         3.2979   -1.2595   14.2129 H         1 RES1    0.0000
     10 H2         1.8341   -0.7243   14.0308 H         1 RES1    0.0000
     11 C4         2.6055   -0.2833   15.8771 C.ar      1 RES1    0.0000
     12 N4         7.6037    0.8751   11.1167 N.pl3     1 RES1    0.0000
     13 C5         1.5536    0.9732   11.8953 C.ar      1 RES1    0.0000
     14 C6         2.3375    0.9580   16.4202 C.ar      1 RES1    0.0000
     15 H3         2.2726    1.7087   15.8755 H         1 RES1    0.0000
     16 C7         0.7386    1.6085   12.8277 C.ar      1 RES1    0.0000
     17 H4         1.0672    1.7775   13.6815 H         1 RES1    0.0000
     18 C8         5.1305    2.2549   13.6899 C.3       1 RES1    0.0000
     19 H5         4.6495    2.6242   12.9330 H         1 RES1    0.0000
     20 H6         4.9052    2.7830   14.4702 H         1 RES1    0.0000
     21 C9         5.5826    3.9019   10.3597 C.ar      1 RES1    0.0000
     22 H7         5.3209    4.7082   10.7440 H         1 RES1    0.0000
     23 N5         1.7624    0.1204    9.5610 N.pl3     1 RES1    0.0000
     24 C10        6.8884    3.4062   12.4684 C.3       1 RES1    0.0000
     25 H8         6.4690    4.2357   12.7458 H         1 RES1    0.0000
     26 H9         7.8466    3.5478   12.4467 H         1 RES1    0.0000
     27 C11        4.6821    0.8255   13.9121 C.3       1 RES1    0.0000
     28 H10        5.1622    0.2398   13.3056 H         1 RES1    0.0000
     29 H11        4.8975    0.5584   14.8194 H         1 RES1    0.0000
     30 C12        2.1668    1.0622   17.8020 C.ar      1 RES1    0.0000
     31 H12        1.9852    1.8847   18.1964 H         1 RES1    0.0000
     32 C13        2.2714   -0.0647   18.5606 C.ar      1 RES1    0.0000
     33 H13        2.1407   -0.0182   19.4813 H         1 RES1    0.0000
     34 C14        6.3274    1.5296    9.1750 C.ar      1 RES1    0.0000
     35 H14        6.5856    0.7253    8.7857 H         1 RES1    0.0000
     36 O3         2.9392    0.2772    9.5493 O.2       1 RES1    0.0000
     37 C15        0.9805    0.7506   10.6204 C.ar      1 RES1    0.0000
     38 C16        5.5204    2.4158    8.4850 C.ar      1 RES1    0.0000
     39 H15        5.2411    2.2125    7.6211 H         1 RES1    0.0000
     40 O4         1.1654   -0.4927    8.7005 O.2       1 RES1    0.0000
     41 C17        6.7437    1.8533   10.4500 C.ar      1 RES1    0.0000
     42 C18        2.9689    0.5625   12.2395 C.3       1 RES1    0.0000
     43 H16        3.1141   -0.3551   11.9605 H         1 RES1    0.0000
     44 H17        3.5936    1.1249   11.7550 H         1 RES1    0.0000
     45 C19        5.1383    3.5741    9.0614 C.ar      1 RES1    0.0000
     46 H18        4.5800    4.1589    8.6002 H         1 RES1    0.0000
     47 C20        2.7008   -2.5412   18.7545 C.3       1 RES1    0.0000
     48 H19        1.8172   -2.8619   18.9934 H         1 RES1    0.0000
     49 H20        3.1228   -3.2150   18.1997 H         1 RES1    0.0000
     50 C21       -0.3092    1.1260   10.3029 C.ar      1 RES1    0.0000
     51 H21       -0.6511    0.9621    9.4524 H         1 RES1    0.0000
     52 C22       -0.5570    1.9960   12.5035 C.ar      1 RES1    0.0000
     53 H22       -1.0827    2.4300   13.1368 H         1 RES1    0.0000
     54 C23       -1.0698    1.7350   11.2403 C.ar      1 RES1    0.0000
     55 H23       -1.9437    1.9808   11.0365 H         1 RES1    0.0000
     56 N1B        7.3182    1.3859   16.7895 N.ar      1 RES1    0.0000
     57 N2B        3.4977   -2.3581   19.9809 N.3       1 RES1    0.0000
     58 N3B        6.8423   -0.6788   19.7286 N.3       1 RES1    0.0000
     59 O1B        1.3941   -1.2716   21.8390 O.2       1 RES1    0.0000
     60 C1B        7.5050    1.2696   15.4460 C.ar      1 RES1    0.0000
     61 C2B        3.6692   -3.0410   22.3419 C.ar      1 RES1    0.0000
     62 O2B        2.8417    0.2873   22.2601 O.2       1 RES1    0.0000
     63 C3B        7.3629    0.5058   19.0352 C.3       1 RES1    0.0000
     64 H1B        6.7754    1.2595   19.2056 H         1 RES1    0.0000
     65 H2B        8.2392    0.7243   19.3877 H         1 RES1    0.0000
     66 C4B        7.4678    0.2833   17.5414 C.ar      1 RES1    0.0000
     67 N4B        2.4696   -0.8751   22.3018 N.pl3     1 RES1    0.0000
     68 C5B        8.5198   -0.9732   21.5232 C.ar      1 RES1    0.0000
     69 C6B        7.7358   -0.9580   16.9983 C.ar      1 RES1    0.0000
     70 H3B        7.8008   -1.7087   17.5430 H         1 RES1    0.0000
     71 C7B        9.3347   -1.6085   20.5908 C.ar      1 RES1    0.0000
     72 H4B        9.0062   -1.7775   19.7370 H         1 RES1    0.0000
     73 C8B        4.9429   -2.2549   19.7286 C.3       1 RES1    0.0000
     74 H5B        5.4238   -2.6242   20.4855 H         1 RES1    0.0000
     75 H6B        5.1681   -2.7830   18.9483 H         1 RES1    0.0000
     76 C9B        4.4907   -3.9019   23.0588 C.ar      1 RES1    0.0000
     77 H7B        4.7524   -4.7082   22.6744 H         1 RES1    0.0000
     78 N5B        8.3109   -0.1204   23.8575 N.pl3     1 RES1    0.0000
     79 C10B       3.1850   -3.4062   20.9501 C.3       1 RES1    0.0000
     80 H8B        3.6043   -4.2357   20.6727 H         1 RES1    0.0000
     81 H9B        2.2268   -3.5478   20.9718 H         1 RES1    0.0000
     82 C11B       5.3912   -0.8255   19.5064 C.3       1 RES1    0.0000
     83 H10B       4.9111   -0.2398   20.1129 H         1 RES1    0.0000
     84 H11B       5.1759   -0.5584   18.5991 H         1 RES1    0.0000
     85 C12B       7.9065   -1.0622   15.6165 C.ar      1 RES1    0.0000
     86 H12B       8.0881   -1.8847   15.2221 H         1 RES1    0.0000
     87 C13B       7.8020    0.0647   14.8579 C.ar      1 RES1    0.0000
     88 H13B       7.9327    0.0182   13.9372 H         1 RES1    0.0000
     89 C14B       3.7459   -1.5296   24.2434 C.ar      1 RES1    0.0000
     90 H14B       3.4877   -0.7253   24.6328 H         1 RES1    0.0000
     91 O3B        7.1341   -0.2772   23.8692 O.2       1 RES1    0.0000
     92 C15B       9.0928   -0.7506   22.7981 C.ar      1 RES1    0.0000
     93 C16B       4.5529   -2.4158   24.9335 C.ar      1 RES1    0.0000
     94 H15B       4.8323   -2.2125   25.7974 H         1 RES1    0.0000
     95 O4B        8.9080    0.4927   24.7180 O.2       1 RES1    0.0000
     96 C17B       3.3296   -1.8533   22.9685 C.ar      1 RES1    0.0000
     97 C18B       7.1044   -0.5625   21.1790 C.3       1 RES1    0.0000
     98 H16B       6.9593    0.3551   21.4580 H         1 RES1    0.0000
     99 H17B       6.4797   -1.1249   21.6635 H         1 RES1    0.0000
    100 C19B       4.9350   -3.5741   24.3571 C.ar      1 RES1    0.0000
    101 H18B       5.4934   -4.1589   24.8182 H         1 RES1    0.0000
    102 C20B       7.3725    2.5412   14.6640 C.3       1 RES1    0.0000
    103 H19B       8.2561    2.8619   14.4251 H         1 RES1    0.0000
    104 H20B       6.9506    3.2150   15.2188 H         1 RES1    0.0000
    105 C21B      10.3825   -1.1260   23.1156 C.ar      1 RES1    0.0000
    106 H21B      10.7245   -0.9621   23.9661 H         1 RES1    0.0000
    107 C22B      10.6304   -1.9960   20.9150 C.ar      1 RES1    0.0000
    108 H22B      11.1560   -2.4300   20.2817 H         1 RES1    0.0000
    109 C23B      11.1431   -1.7350   22.1782 C.ar      1 RES1    0.0000
    110 H23B      12.0171   -1.9808   22.3820 H         1 RES1    0.0000
@<TRIPOS>BOND
     1    1    5 ar
     2    2   18 1
     3    3    8 1
     4    4   12 2
     5    5   32 ar
     6    6   21 ar
     7    7   12 2
     8    8    9 1
     9   10    8 1
    10   11    1 ar
    11   12   41 1
    12   13   16 ar
    13   14   11 ar
    14   15   14 1
    15   16   17 1
    16   18   19 1
    17   20   18 1
    18   21   22 1
    19   23   36 2
    20   24    2 1
    21   25   24 1
    22   26   24 1
    23   27    3 1
    24   28   27 1
    25   29   27 1
    26   30   14 ar
    27   31   30 1
    28   32   30 ar
    29   33   32 1
    30   34   35 1
    31   37   13 ar
    32   38   34 ar
    33   39   38 1
    34   40   23 2
    35   41    6 ar
    36   42    3 1
    37   43   42 1
    38   44   42 1
    39   45   21 ar
    40   46   45 1
    41   47    5 1
    42   48   47 1
    43   49   47 1
    44   50   37 ar
    45   51   50 1
    46   52   16 ar
    47   53   52 1
    48   54   50 ar
    49   55   54 1
    50   56   60 ar
    51   57   47 1
    52   58   63 1
    53   59   67 2
    54   60   87 ar
    55   61   76 ar
    56   62   67 2
    57   63   64 1
    58   65   63 1
    59   66   56 ar
    60   67   96 1
    61   68   71 ar
    62   69   66 ar
    63   70   69 1
    64   71   72 1
    65   73   57 1
    66   74   73 1
    67   75   73 1
    68   76   77 1
    69   78   91 2
    70   79   57 1
    71   80   79 1
    72   81   79 1
    73   82   58 1
    74   83   82 1
    75   84   82 1
    76   85   69 ar
    77   86   85 1
    78   87   85 ar
    79   88   87 1
    80   89   90 1
    81   92   68 ar
    82   93   89 ar
    83   94   93 1
    84   95   78 2
    85   96   61 ar
    86   97   58 1
    87   98   97 1
    88   99   97 1
    89  100   76 ar
    90  101  100 1
    91  102    2 1
    92  103  102 1
    93  104  102 1
    94  105   92 ar
    95  106  105 1
    96  107   71 ar
    97  108  107 1
    98  109  105 ar
    99  110  109 1
   100    6   24 1
   101    8   11 1
   102   13   42 1
   103   18   27 1
   104   23   37 1
   105   34   41 ar
   106   38   45 ar
   107   52   54 ar
   108   60  102 1
   109   61   79 1
   110   63   66 1
   111   68   97 1
   112   73   82 1
   113   78   92 1
   114   89   96 ar
   115   93  100 ar
   116  107  109 ar
@<TRIPOS>SUBSTRUCTURE
     1 RES1 1

@<TRIPOS>CRYSIN
  13.0635   10.1164   16.7760  90.0000  95.1130  90.0000 231 1

