# MOL2 file generated by ConQuest
# Please check atom types

@<TRIPOS>MOLECULE
TAWBIE
    76    80     2
SMALL
NO_CHARGES
****
Generated from CSD

@<TRIPOS>ATOM
      1 O1        14.1974    3.9990    9.8825 O.3       1 RES1    0.0000
      2 O2        15.2446    6.2526    9.2834 O.3       1 RES1    0.0000
      3 O3         7.3913   14.3799   12.9859 O.2       1 RES1    0.0000
      4 O4         9.0085   15.5736   12.2562 O.2       1 RES1    0.0000
      5 N1         8.4706   14.4989   12.4441 N.pl3     1 RES1    0.0000
      6 C1        12.2258    5.0393   10.8544 C.ar      1 RES1    0.0000
      7 H1        11.8495    4.2210   11.0857 H         1 RES1    0.0000
      8 C2        13.4462    5.0902   10.2168 C.ar      1 RES1    0.0000
      9 C3        14.0144    6.3304    9.8779 C.ar      1 RES1    0.0000
     10 C4        13.3399    7.5010   10.1525 C.ar      1 RES1    0.0000
     11 H2        13.7097    8.3215    9.9159 H         1 RES1    0.0000
     12 C5        12.1038    7.4468   10.7867 C.ar      1 RES1    0.0000
     13 C6        11.5651    6.2205   11.1475 C.ar      1 RES1    0.0000
     14 C7        10.3109    6.4723   11.8467 C.2       1 RES1    0.0000
     15 H3         9.7507    5.8187   12.1986 H         1 RES1    0.0000
     16 C8        10.0924    7.7877   11.9034 C.2       1 RES1    0.0000
     17 H4         9.3644    8.1899   12.3187 H         1 RES1    0.0000
     18 C9        11.1692    8.5057   11.2149 C.2       1 RES1    0.0000
     19 C10       11.3273    9.8179   10.9598 C.2       1 RES1    0.0000
     20 H5        12.0956   10.0200   10.4777 H         1 RES1    0.0000
     21 C11       10.5159   10.9823   11.2995 C.ar      1 RES1    0.0000
     22 C12        9.2267   10.9257   11.8264 C.ar      1 RES1    0.0000
     23 H6         8.8142   10.0987   11.9323 H         1 RES1    0.0000
     24 C13        8.5552   12.0652   12.1906 C.ar      1 RES1    0.0000
     25 H7         7.7023   12.0124   12.5557 H         1 RES1    0.0000
     26 C14        9.1574   13.2780   12.0094 C.ar      1 RES1    0.0000
     27 C15       10.3998   13.3816   11.4545 C.ar      1 RES1    0.0000
     28 H8        10.7884   14.2152   11.3166 H         1 RES1    0.0000
     29 C16       11.0650   12.2359   11.1053 C.ar      1 RES1    0.0000
     30 H9        11.9115   12.3039   10.7255 H         1 RES1    0.0000
     31 C17       13.6420    2.7159   10.1363 C.3       1 RES1    0.0000
     32 H10       14.2646    2.0379    9.8620 H         1 RES1    0.0000
     33 H11       12.8240    2.6172    9.6435 H         1 RES1    0.0000
     34 H12       13.4630    2.6246   11.0750 H         1 RES1    0.0000
     35 C18       15.8820    7.4646    8.9197 C.3       1 RES1    0.0000
     36 H13       16.7288    7.2712    8.5106 H         1 RES1    0.0000
     37 H14       16.0202    8.0005    9.7035 H         1 RES1    0.0000
     38 H15       15.3286    7.9439    8.2981 H         1 RES1    0.0000
     39 O5        12.4952   14.7182   14.3331 O.3       2 RES2    0.0000
     40 O6        13.5981   12.4638   13.8775 O.3       2 RES2    0.0000
     41 O7         5.9228    4.2673   17.7216 O.2       2 RES2    0.0000
     42 O8         7.3586    3.1157   16.6331 O.2       2 RES2    0.0000
     43 N2         6.9083    4.1745   17.0273 N.pl3     2 RES2    0.0000
     44 C19       10.4501   13.6911   15.1680 C.ar      2 RES2    0.0000
     45 H16       10.0455   14.5116   15.3356 H         2 RES2    0.0000
     46 C20       11.7254   13.6333   14.6653 C.ar      2 RES2    0.0000
     47 C21       12.3394   12.3946   14.4282 C.ar      2 RES2    0.0000
     48 C22       11.6781   11.2226   14.7084 C.ar      2 RES2    0.0000
     49 H17       12.0916   10.4025   14.5645 H         2 RES2    0.0000
     50 C23       10.3890   11.2781   15.2074 C.ar      2 RES2    0.0000
     51 C24        9.7723   12.5113   15.4235 C.ar      2 RES2    0.0000
     52 C25        8.4087   12.2385   15.8782 C.2       2 RES2    0.0000
     53 H18        7.7749   12.8857   16.0852 H         2 RES2    0.0000
     54 C26        8.2135   10.9253   15.9507 C.2       2 RES2    0.0000
     55 H19        7.4168   10.5193   16.2053 H         2 RES2    0.0000
     56 C27        9.4340   10.2126   15.5704 C.2       2 RES2    0.0000
     57 C28        9.7130    8.8993   15.5314 C.2       2 RES2    0.0000
     58 H20       10.5536    8.6991   15.1894 H         2 RES2    0.0000
     59 C29        8.9373    7.7302   15.9279 C.ar      2 RES2    0.0000
     60 C30        7.8449    7.7633   16.7802 C.ar      2 RES2    0.0000
     61 H21        7.5611    8.5810   17.1227 H         2 RES2    0.0000
     62 C31        7.1673    6.6156   17.1344 C.ar      2 RES2    0.0000
     63 H22        6.4283    6.6562   17.6984 H         2 RES2    0.0000
     64 C32        7.6019    5.4170   16.6418 C.ar      2 RES2    0.0000
     65 C33        8.6797    5.3372   15.8079 C.ar      2 RES2    0.0000
     66 H23        8.9609    4.5150   15.4772 H         2 RES2    0.0000
     67 C34        9.3424    6.4882   15.4643 C.ar      2 RES2    0.0000
     68 H24       10.0840    6.4336   14.9046 H         2 RES2    0.0000
     69 C35       11.9056   16.0008   14.3928 C.3       2 RES2    0.0000
     70 H25       12.5514   16.6627   14.1335 H         2 RES2    0.0000
     71 H26       11.6103   16.1756   15.2894 H         2 RES2    0.0000
     72 H27       11.1544   16.0354   13.7964 H         2 RES2    0.0000
     73 C36       14.2627   11.2405   13.6195 C.3       2 RES2    0.0000
     74 H28       15.1282   11.4196   13.2453 H         2 RES2    0.0000
     75 H29       13.7467   10.7210   12.9990 H         2 RES2    0.0000
     76 H30       14.3644   10.7518   14.4398 H         2 RES2    0.0000
@<TRIPOS>BOND
     1    1    8 1
     2    2    9 1
     3    3    5 2
     4    4    5 2
     5    5   26 1
     6    6    7 1
     7    8    6 ar
     8    9    8 ar
     9   10    9 ar
    10   11   10 1
    11   12   10 ar
    12   13    6 ar
    13   14   13 1
    14   15   14 1
    15   16   14 2
    16   17   16 1
    17   18   12 1
    18   19   18 2
    19   20   19 1
    20   21   19 1
    21   22   21 ar
    22   23   22 1
    23   24   22 ar
    24   25   24 1
    25   26   24 ar
    26   27   26 ar
    27   28   27 1
    28   29   21 ar
    29   30   29 1
    30   31    1 1
    31   32   31 1
    32   33   31 1
    33   34   31 1
    34   35    2 1
    35   36   35 1
    36   37   35 1
    37   38   35 1
    38   39   46 1
    39   40   47 1
    40   41   43 2
    41   42   43 2
    42   43   64 1
    43   44   45 1
    44   46   44 ar
    45   47   46 ar
    46   48   47 ar
    47   49   48 1
    48   50   48 ar
    49   51   44 ar
    50   52   51 1
    51   53   52 1
    52   54   52 2
    53   55   54 1
    54   56   50 1
    55   57   56 2
    56   58   57 1
    57   59   57 1
    58   60   59 ar
    59   61   60 1
    60   62   60 ar
    61   63   62 1
    62   64   62 ar
    63   65   64 ar
    64   66   65 1
    65   67   59 ar
    66   68   67 1
    67   69   39 1
    68   70   69 1
    69   71   69 1
    70   72   69 1
    71   73   40 1
    72   74   73 1
    73   75   73 1
    74   76   73 1
    75   12   13 ar
    76   16   18 1
    77   27   29 ar
    78   50   51 ar
    79   54   56 1
    80   65   67 ar
@<TRIPOS>SUBSTRUCTURE
     1 RES1 1
     2 RES2 39

@<TRIPOS>CRYSIN
  15.7170   12.2990   15.4540  90.0000  95.1100  90.0000  13 1

