# MOL2 file generated by ConQuest
# Please check atom types

@<TRIPOS>MOLECULE
TAWDEC
    29    29     1
SMALL
NO_CHARGES
****
Generated from CSD

@<TRIPOS>ATOM
      1 O1         4.9785    4.1879   17.9308 O.3       1 RES1    0.0000
      2 O2         3.2660    3.1897   19.0858 O.3       1 RES1    0.0000
      3 O3         2.5045    2.1629   16.7987 O.2       1 RES1    0.0000
      4 C1         6.4814    2.7657   14.4001 C.ar      1 RES1    0.0000
      5 H1         7.3613    2.4767   14.3233 H         1 RES1    0.0000
      6 C2         4.4251    2.9297   15.6381 C.ar      1 RES1    0.0000
      7 N1         4.2065    3.0067   18.0745 N.am      1 RES1    0.0000
      8 C3         5.8676    3.4476   13.3593 C.ar      1 RES1    0.0000
      9 O4         6.1519    4.4939   11.3131 O.2       1 RES1    0.0000
     10 C4         3.5965    2.6734   16.8486 C.2       1 RES1    0.0000
     11 C5         5.7602    2.5248   15.5493 C.ar      1 RES1    0.0000
     12 H2         6.1629    2.0921   16.2665 H         1 RES1    0.0000
     13 C6         4.5435    3.8534   13.4207 C.ar      1 RES1    0.0000
     14 H3         4.1493    4.3043   12.7092 H         1 RES1    0.0000
     15 C7         3.8283    3.5718   14.5615 C.ar      1 RES1    0.0000
     16 H4         2.9326    3.8149   14.6121 H         1 RES1    0.0000
     17 O5         7.8043    3.3478   12.1025 O.2       1 RES1    0.0000
     18 N2         6.6608    3.7809   12.1692 N.pl3     1 RES1    0.0000
     19 C8         6.1995    4.0670   18.6839 C.3       1 RES1    0.0000
     20 H5         6.7194    4.8682   18.5814 H         1 RES1    0.0000
     21 H6         6.7023    3.3164   18.3597 H         1 RES1    0.0000
     22 H7         5.9921    3.9362   19.6112 H         1 RES1    0.0000
     23 C9         3.5281    2.3231   20.2100 C.3       1 RES1    0.0000
     24 H8         4.3751    2.5525   20.6231 H         1 RES1    0.0000
     25 H9         3.5635    1.3974   19.9224 H         1 RES1    0.0000
     26 C10        2.4078    2.5277   21.1691 C.3       1 RES1    0.0000
     27 H10        2.5384    1.9679   21.9372 H         1 RES1    0.0000
     28 H11        1.5780    2.2995   20.7440 H         1 RES1    0.0000
     29 H12        2.3846    3.4476   21.4425 H         1 RES1    0.0000
@<TRIPOS>BOND
     1    1    7 1
     2    2    7 1
     3    3   10 2
     4    4    5 1
     5    6   10 1
     6    7   10 1
     7    8    4 ar
     8    9   18 2
     9   11    4 ar
    10   12   11 1
    11   13    8 ar
    12   14   13 1
    13   15    6 ar
    14   16   15 1
    15   17   18 2
    16   18    8 1
    17   19    1 1
    18   20   19 1
    19   21   19 1
    20   22   19 1
    21   23    2 1
    22   24   23 1
    23   25   23 1
    24   26   23 1
    25   27   26 1
    26   28   26 1
    27   29   26 1
    28    6   11 ar
    29   13   15 ar
@<TRIPOS>SUBSTRUCTURE
     1 RES1 1

@<TRIPOS>CRYSIN
  12.2038    4.1403   22.3872  90.0000  90.0000  90.0000  29 1

