# MOL2 file generated by ConQuest
# Please check atom types

@<TRIPOS>MOLECULE
TAWLIN
    84    86     2
SMALL
NO_CHARGES
****
Generated from CSD

@<TRIPOS>ATOM
      1 O1         9.6052    8.6156    5.2597 O.2       1 RES1    0.0000
      2 O2         7.4708    8.7517    4.8979 O.2       1 RES1    0.0000
      3 O3         9.0679    5.4937    5.6603 O.2       1 RES1    0.0000
      4 O4         8.2521    3.5063    5.8272 O.2       1 RES1    0.0000
      5 O5         0.8212    1.2074    2.5260 O.2       2 RES2    0.0000
      6 O6         0.6961    3.3323    2.6855 O.2       2 RES2    0.0000
      7 N1         6.4674    8.2399    7.6466 N.3       1 RES1    0.0000
      8 N2         7.0930    7.0657    7.1503 N.3       1 RES1    0.0000
      9 N3         8.4790    8.9373    5.5930 N.pl3     1 RES1    0.0000
     10 N4         8.1411    4.7146    5.6799 N.pl3     1 RES1    0.0000
     11 N5         3.4460    0.5271    3.6257 N.3       2 RES2    0.0000
     12 N6         1.3124    2.2966    2.5117 N.pl3     2 RES2    0.0000
     13 C1         7.3136    9.3393    7.7817 C.ar      1 RES1    0.0000
     14 C2         8.3155    9.6665    6.8618 C.ar      1 RES1    0.0000
     15 C3         9.1844   10.7280    7.0275 C.ar      1 RES1    0.0000
     16 H1         9.8625   10.8739    6.4077 H         1 RES1    0.0000
     17 C4         9.0460   11.5643    8.1048 C.ar      1 RES1    0.0000
     18 H2         9.6076   12.3000    8.2100 H         1 RES1    0.0000
     19 C5         8.0644   11.2976    9.0246 C.ar      1 RES1    0.0000
     20 H3         7.9620   11.8616    9.7578 H         1 RES1    0.0000
     21 C6         7.2213   10.2033    8.8834 C.ar      1 RES1    0.0000
     22 H4         6.5792   10.0385    9.5351 H         1 RES1    0.0000
     23 C7         6.3446    6.4269    6.1375 C.ar      1 RES1    0.0000
     24 C8         6.7849    5.2708    5.4770 C.ar      1 RES1    0.0000
     25 C9         6.0270    4.5923    4.5442 C.ar      1 RES1    0.0000
     26 H5         6.3485    3.8077    4.1573 H         1 RES1    0.0000
     27 C10        4.7803    5.0894    4.1899 C.ar      1 RES1    0.0000
     28 H6         4.2477    4.6385    3.5755 H         1 RES1    0.0000
     29 C11        4.3431    6.2673    4.7662 C.ar      1 RES1    0.0000
     30 H7         3.5266    6.6277    4.5048 H         1 RES1    0.0000
     31 C12        5.0955    6.9157    5.7207 C.ar      1 RES1    0.0000
     32 H8         4.7678    7.6985    6.0995 H         1 RES1    0.0000
     33 C13        5.3825    8.0506    8.6465 C.3       1 RES1    0.0000
     34 H9         5.7572    8.1370    9.5372 H         1 RES1    0.0000
     35 H10        5.0275    7.1539    8.5589 H         1 RES1    0.0000
     36 C14        4.2485    9.0443    8.4938 C.3       1 RES1    0.0000
     37 H11        3.5829    8.8754    9.1652 H         1 RES1    0.0000
     38 H12        3.8551    8.9493    7.6228 H         1 RES1    0.0000
     39 H13        4.5887    9.9370    8.5970 H         1 RES1    0.0000
     40 C15        7.6671    6.2266    8.2378 C.3       1 RES1    0.0000
     41 H14        7.7977    5.3262    7.9059 H         1 RES1    0.0000
     42 H15        7.0360    6.1846    8.9724 H         1 RES1    0.0000
     43 C16        8.9748    6.7551    8.7456 C.3       1 RES1    0.0000
     44 H16        9.3080    6.1754    9.4347 H         1 RES1    0.0000
     45 H17        8.8466    7.6385    9.1027 H         1 RES1    0.0000
     46 H18        9.6076    6.7893    8.0240 H         1 RES1    0.0000
     47 C17        2.7570    2.4180    2.1954 C.ar      2 RES2    0.0000
     48 C18        3.7159    1.5355    2.6964 C.ar      2 RES2    0.0000
     49 C19        5.0087    1.6754    2.1506 C.ar      2 RES2    0.0000
     50 H19        5.6782    1.0846    2.4147 H         2 RES2    0.0000
     51 C20        5.3067    2.6635    1.2335 C.ar      2 RES2    0.0000
     52 H20        6.1725    2.7323    0.9008 H         2 RES2    0.0000
     53 C21        4.3384    3.5589    0.7990 C.ar      2 RES2    0.0000
     54 H21        4.5457    4.2277    0.1874 H         2 RES2    0.0000
     55 C22        3.0643    3.4265    1.2986 C.ar      2 RES2    0.0000
     56 H22        2.4011    4.0200    1.0312 H         2 RES2    0.0000
     57 C23        2.6709    0.8192    4.8809 C.3       2 RES2    0.0000
     58 H23        3.2880    0.9877    5.6100 H         2 RES2    0.0000
     59 H24        2.1352    1.6154    4.7513 H         2 RES2    0.0000
     60 C24        1.7856   -0.3185    5.2319 C.3       2 RES2    0.0000
     61 H25        1.3093   -0.1154    6.0404 H         2 RES2    0.0000
     62 H26        2.3151   -1.1077    5.3629 H         2 RES2    0.0000
     63 H27        1.1583   -0.4662    4.5205 H         2 RES2    0.0000
     64 O5A        7.0000   -1.2074    2.5260 O.2       2 RES2    0.0000
     65 O6A        7.1251   -3.3323    2.6855 O.2       2 RES2    0.0000
     66 N5A        4.3752   -0.5271    3.6257 N.3       2 RES2    0.0000
     67 N6A        6.5088   -2.2966    2.5117 N.pl3     2 RES2    0.0000
     68 C17A       5.0642   -2.4180    2.1954 C.ar      2 RES2    0.0000
     69 C18A       4.1053   -1.5355    2.6964 C.ar      2 RES2    0.0000
     70 C19A       2.8125   -1.6754    2.1506 C.ar      2 RES2    0.0000
     71 H19A       2.1430   -1.0846    2.4147 H         2 RES2    0.0000
     72 C20A       2.5145   -2.6635    1.2335 C.ar      2 RES2    0.0000
     73 H20A       1.6487   -2.7323    0.9008 H         2 RES2    0.0000
     74 C21A       3.4828   -3.5589    0.7990 C.ar      2 RES2    0.0000
     75 H21A       3.2755   -4.2277    0.1874 H         2 RES2    0.0000
     76 C22A       4.7569   -3.4265    1.2986 C.ar      2 RES2    0.0000
     77 H22A       5.4201   -4.0200    1.0312 H         2 RES2    0.0000
     78 C23A       5.1503   -0.8192    4.8809 C.3       2 RES2    0.0000
     79 H23A       4.5332   -0.9877    5.6100 H         2 RES2    0.0000
     80 H24A       5.6860   -1.6154    4.7513 H         2 RES2    0.0000
     81 C24A       6.0356    0.3185    5.2319 C.3       2 RES2    0.0000
     82 H25A       6.5119    0.1154    6.0404 H         2 RES2    0.0000
     83 H26A       5.5061    1.1077    5.3629 H         2 RES2    0.0000
     84 H27A       6.6629    0.4662    4.5205 H         2 RES2    0.0000
@<TRIPOS>BOND
     1    1    9 2
     2    2    9 2
     3    3   10 2
     4    4   10 2
     5    5   12 2
     6    6   12 2
     7    7    8 1
     8    8   23 1
     9    9   14 1
    10   10   24 1
    11   11   48 1
    12   12   47 1
    13   13    7 1
    14   14   13 ar
    15   15   14 ar
    16   16   15 1
    17   17   15 ar
    18   18   17 1
    19   19   17 ar
    20   20   19 1
    21   21   13 ar
    22   22   21 1
    23   23   24 ar
    24   24   25 ar
    25   25   26 1
    26   27   25 ar
    27   28   27 1
    28   29   27 ar
    29   30   29 1
    30   31   23 ar
    31   32   31 1
    32   33    7 1
    33   34   33 1
    34   35   33 1
    35   36   33 1
    36   37   36 1
    37   38   36 1
    38   39   36 1
    39   40    8 1
    40   41   40 1
    41   42   40 1
    42   43   40 1
    43   44   43 1
    44   45   43 1
    45   46   43 1
    46   47   48 ar
    47   48   49 ar
    48   49   50 1
    49   51   49 ar
    50   52   51 1
    51   53   51 ar
    52   54   53 1
    53   55   47 ar
    54   56   55 1
    55   57   11 1
    56   58   57 1
    57   59   57 1
    58   60   57 1
    59   61   60 1
    60   62   60 1
    61   63   60 1
    62   64   67 2
    63   65   67 2
    64   66   11 1
    65   67   68 1
    66   68   69 ar
    67   69   66 1
    68   70   69 ar
    69   71   70 1
    70   72   70 ar
    71   73   72 1
    72   74   72 ar
    73   75   74 1
    74   76   68 ar
    75   77   76 1
    76   78   66 1
    77   79   78 1
    78   80   78 1
    79   81   78 1
    80   82   81 1
    81   83   81 1
    82   84   81 1
    83   19   21 ar
    84   29   31 ar
    85   53   55 ar
    86   74   76 ar
@<TRIPOS>SUBSTRUCTURE
     1 RES1 1
     2 RES2 5

@<TRIPOS>CRYSIN
   7.8212   46.1540    6.7885  90.0000  90.0000  90.0000  18 1

