# MOL2 file generated by ConQuest
# Please check atom types

@<TRIPOS>MOLECULE
TAWLUZ01
    34    37     1
SMALL
NO_CHARGES
****
Generated from CSD

@<TRIPOS>ATOM
      1 C1         3.6735    8.2107    3.6910 C.ar      1 RES1    0.0000
      2 C2         3.1053    7.5448    2.6296 C.ar      1 RES1    0.0000
      3 H1         2.7338    8.0169    1.9193 H         1 RES1    0.0000
      4 C3         3.0955    6.1651    2.6348 C.ar      1 RES1    0.0000
      5 H2         2.7022    5.7001    1.9311 H         1 RES1    0.0000
      6 C4         3.6735    5.4694    3.6910 C.ar      1 RES1    0.0000
      7 C5         3.2597    3.2451    4.7425 C.ar      1 RES1    0.0000
      8 C6         2.7029    3.5923    5.9654 C.ar      1 RES1    0.0000
      9 H3         2.5663    4.4827    6.1979 H         1 RES1    0.0000
     10 C7         2.3598    2.5682    6.8241 C.ar      1 RES1    0.0000
     11 H4         1.9793    2.7733    7.6478 H         1 RES1    0.0000
     12 C8         2.5716    1.2323    6.4838 C.ar      1 RES1    0.0000
     13 H5         2.3635    0.5656    7.0971 H         1 RES1    0.0000
     14 C9         3.0833    0.8856    5.2566 C.ar      1 RES1    0.0000
     15 H6         3.2040   -0.0076    5.0271 H         1 RES1    0.0000
     16 C10        3.4176    1.9006    4.3639 C.ar      1 RES1    0.0000
     17 N1         3.6735    4.0645    3.6910 N.pl3     1 RES1    0.0000
     18 N2         3.6735    9.6714    3.6910 N.pl3     1 RES1    0.0000
     19 O1         4.2703   10.2549    4.5827 O.2       1 RES1    0.0000
     20 C2B        4.2416    7.5448    4.7524 C.ar      1 RES1    0.0000
     21 H1B        4.6131    8.0169    5.4627 H         1 RES1    0.0000
     22 C3B        4.2514    6.1651    4.7472 C.ar      1 RES1    0.0000
     23 H2B        4.6447    5.7001    5.4509 H         1 RES1    0.0000
     24 C5B        4.0872    3.2451    2.6395 C.ar      1 RES1    0.0000
     25 C6B        4.6440    3.5923    1.4166 C.ar      1 RES1    0.0000
     26 H3B        4.7806    4.4827    1.1841 H         1 RES1    0.0000
     27 C7B        4.9871    2.5682    0.5579 C.ar      1 RES1    0.0000
     28 H4B        5.3676    2.7733   -0.2658 H         1 RES1    0.0000
     29 C8B        4.7753    1.2323    0.8982 C.ar      1 RES1    0.0000
     30 H5B        4.9834    0.5656    0.2849 H         1 RES1    0.0000
     31 C9B        4.2636    0.8856    2.1254 C.ar      1 RES1    0.0000
     32 H6B        4.1429   -0.0076    2.3549 H         1 RES1    0.0000
     33 C10B       3.9293    1.9006    3.0181 C.ar      1 RES1    0.0000
     34 O1B        3.0766   10.2549    2.7993 O.2       1 RES1    0.0000
@<TRIPOS>BOND
     1    1    2 ar
     2    2    3 1
     3    4    2 ar
     4    5    4 1
     5    6    4 ar
     6    7    8 ar
     7    8    9 1
     8   10    8 ar
     9   11   10 1
    10   12   10 ar
    11   13   12 1
    12   14   12 ar
    13   15   14 1
    14   16    7 ar
    15   17    6 1
    16   18    1 1
    17   19   18 2
    18   20    1 ar
    19   21   20 1
    20   22    6 ar
    21   23   22 1
    22   24   17 1
    23   25   24 ar
    24   26   25 1
    25   27   25 ar
    26   28   27 1
    27   29   27 ar
    28   30   29 1
    29   31   29 ar
    30   32   31 1
    31   33   16 1
    32   34   18 2
    33    7   17 1
    34   14   16 ar
    35   20   22 ar
    36   24   33 ar
    37   31   33 ar
@<TRIPOS>SUBSTRUCTURE
     1 RES1 1

@<TRIPOS>CRYSIN
   7.3469   12.6810   14.7640  90.0000  90.0000  90.0000  60 1

