# MOL2 file generated by ConQuest
# Please check atom types

@<TRIPOS>MOLECULE
TAWSIU
    44    47     1
SMALL
USER_CHARGES
****
Generated from CSD

@<TRIPOS>ATOM
      1 O1         5.1048    4.0137    2.0331 O.2       1 RES1    0.0000
      2 O2         2.9431    0.0243    1.5031 O.2       1 RES1    0.0000
      3 O3         2.4020    1.7914    0.3228 O.2       1 RES1    0.0000
      4 N1         6.0342    0.6359    2.6721 N.4       1 RES1    1.0000
      5 N2         3.0465    1.2720    1.2759 N.pl3     1 RES1    0.0000
      6 C1         7.0251    1.0655    3.6890 C.ar      1 RES1    0.0000
      7 C2         8.3212    0.6589    3.8423 C.ar      1 RES1    0.0000
      8 C3         9.0425    1.2445    4.9133 C.ar      1 RES1    0.0000
      9 C4         8.4988    2.1802    5.7660 C.ar      1 RES1    0.0000
     10 C5         6.4095    3.4903    6.4123 C.ar      1 RES1    0.0000
     11 C6         5.0864    3.7472    6.1288 C.ar      1 RES1    0.0000
     12 C7         4.4011    3.1198    5.0509 C.ar      1 RES1    0.0000
     13 C8         5.0879    2.2329    4.2659 C.ar      1 RES1    0.0000
     14 C9         7.1480    2.5830    5.6085 C.ar      1 RES1    0.0000
     15 C10        6.4368    1.9887    4.5474 C.ar      1 RES1    0.0000
     16 C11        4.6341    1.3631    3.1189 C.3       1 RES1    0.0000
     17 C12        3.8852    2.0380    2.0496 C.2       1 RES1   -1.0000
     18 C13        4.0036    3.4808    1.8606 C.2       1 RES1    0.0000
     19 C14        5.8500   -0.8548    2.6934 C.3       1 RES1    0.0000
     20 C15        6.4746    1.0829    1.3070 C.3       1 RES1    0.0000
     21 C16        2.8086    4.3476    1.6416 C.ar      1 RES1    0.0000
     22 C17        3.0043    5.6558    1.1859 C.ar      1 RES1    0.0000
     23 C18        1.9265    6.5192    1.0519 C.ar      1 RES1    0.0000
     24 C19        0.6496    6.0828    1.3832 C.ar      1 RES1    0.0000
     25 C20        0.4478    4.8010    1.8615 C.ar      1 RES1    0.0000
     26 C21        1.5227    3.9337    1.9949 C.ar      1 RES1    0.0000
     27 H1         8.7055    0.0150    3.2880 H         1 RES1    0.0000
     28 H2         9.9486    0.9842    5.0417 H         1 RES1    0.0000
     29 H3         9.0185    2.6027    6.4929 H         1 RES1    0.0000
     30 H4         6.8613    3.9628    7.1370 H         1 RES1    0.0000
     31 H5         4.5810    4.3497    6.6668 H         1 RES1    0.0000
     32 H6         3.4653    3.3244    4.8755 H         1 RES1    0.0000
     33 H7         4.1063    0.6001    3.4557 H         1 RES1    0.0000
     34 H8         5.1651   -1.1045    2.0311 H         1 RES1    0.0000
     35 H9         5.5216   -1.1045    3.6030 H         1 RES1    0.0000
     36 H10        6.6756   -1.2959    2.4699 H         1 RES1    0.0000
     37 H11        7.3977    0.7300    1.1691 H         1 RES1    0.0000
     38 H12        5.8208    0.7382    0.6190 H         1 RES1    0.0000
     39 H13        6.5137    2.0668    1.2788 H         1 RES1    0.0000
     40 H14        3.8997    5.9066    0.9811 H         1 RES1    0.0000
     41 H15        2.0733    7.4445    0.7695 H         1 RES1    0.0000
     42 H16       -0.1430    6.6762    1.3055 H         1 RES1    0.0000
     43 H17       -0.4456    4.5096    2.1094 H         1 RES1    0.0000
     44 H18        1.4112    3.0251    2.3665 H         1 RES1    0.0000
@<TRIPOS>BOND
     1    1   18 2
     2    2    5 2
     3    3    5 2
     4    4    6 1
     5    5   17 1
     6    6    7 ar
     7    7    8 ar
     8    8    9 ar
     9    9   14 ar
    10   10   11 ar
    11   11   12 ar
    12   12   13 ar
    13   13   15 ar
    14   14   10 ar
    15   15    6 ar
    16   16    4 1
    17   17   16 1
    18   18   17 1
    19   19    4 1
    20   20    4 1
    21   21   18 1
    22   22   21 ar
    23   23   22 ar
    24   24   23 ar
    25   25   24 ar
    26   26   21 ar
    27   27    7 1
    28   28    8 1
    29   29    9 1
    30   30   10 1
    31   31   11 1
    32   32   12 1
    33   33   16 1
    34   34   19 1
    35   35   19 1
    36   36   19 1
    37   37   20 1
    38   38   20 1
    39   39   20 1
    40   40   22 1
    41   41   23 1
    42   42   24 1
    43   43   25 1
    44   44   26 1
    45   13   16 1
    46   14   15 ar
    47   25   26 ar
@<TRIPOS>SUBSTRUCTURE
     1 RES1 1

@<TRIPOS>CRYSIN
   7.7283   13.6696   15.7465  90.0000  95.5779  90.0000  14 1

