# MOL2 file generated by ConQuest
# Please check atom types

@<TRIPOS>MOLECULE
TAWVUJ
    44    46     1
SMALL
NO_CHARGES
****
Generated from CSD

@<TRIPOS>ATOM
      1 O1         4.6742    1.3101    8.5703 O.2       1 RES1    0.0000
      2 N1         1.6928   -0.3525    8.0868 N.pl3     1 RES1    0.0000
      3 O2         0.9227   -1.1980    7.4988 O.2       1 RES1    0.0000
      4 N2         3.4856    0.8153    8.6202 N.pl3     1 RES1    0.0000
      5 C1         2.3221    1.6565    5.3468 C.ar      1 RES1    0.0000
      6 H1         2.9571    1.9591    5.9854 H         1 RES1    0.0000
      7 C2         3.4743   -0.5910    5.3052 C.ar      1 RES1    0.0000
      8 C3         3.7408   -0.7888    6.6953 C.ar      1 RES1    0.0000
      9 C4         1.2955    2.5088    4.9379 C.ar      1 RES1    0.0000
     10 H2         1.2208    3.3771    5.3163 H         1 RES1    0.0000
     11 C5         0.4948    0.8221    3.4185 C.ar      1 RES1    0.0000
     12 H3        -0.1183    0.5398    2.7492 H         1 RES1    0.0000
     13 C6         4.2296   -1.3465    4.3899 C.ar      1 RES1    0.0000
     14 H4         4.0757   -1.2325    3.4586 H         1 RES1    0.0000
     15 C7         1.5052   -0.0345    3.8351 C.ar      1 RES1    0.0000
     16 H5         1.5759   -0.8985    3.4452 H         1 RES1    0.0000
     17 C8         2.9724   -0.0906    7.7571 C.2       1 RES1    0.0000
     18 C9         2.4274    0.3574    4.8263 C.ar      1 RES1    0.0000
     19 C10        1.1852    0.5626    9.1938 C.3       1 RES1    0.0000
     20 C11        2.5399    1.1068    9.7714 C.3       1 RES1    0.0000
     21 C12        5.4280   -2.4465    6.1744 C.ar      1 RES1    0.0000
     22 H6         6.0792   -3.0745    6.4628 H         1 RES1    0.0000
     23 C13        4.7007   -1.7113    7.1137 C.ar      1 RES1    0.0000
     24 H7         4.8600   -1.8395    8.0406 H         1 RES1    0.0000
     25 C14        0.3128    1.6244    8.5053 C.3       1 RES1    0.0000
     26 H8        -0.0420    2.2425    9.1775 H         1 RES1    0.0000
     27 H9        -0.4305    1.1857    8.0406 H         1 RES1    0.0000
     28 H10        0.8541    2.1230    7.8585 H         1 RES1    0.0000
     29 C15        0.3778    2.0879    3.9743 C.ar      1 RES1    0.0000
     30 H11       -0.3243    2.6653    3.7001 H         1 RES1    0.0000
     31 C16        3.0727    0.3032   10.9741 C.3       1 RES1    0.0000
     32 H12        2.4945    0.4548   11.7503 H         1 RES1    0.0000
     33 H13        3.9841    0.5959   11.1848 H         1 RES1    0.0000
     34 H14        3.0789   -0.6514   10.7515 H         1 RES1    0.0000
     35 C17        0.3395   -0.2662   10.1727 C.3       1 RES1    0.0000
     36 H15        0.0073    0.3137   10.8895 H         1 RES1    0.0000
     37 H16        0.8912   -0.9792   10.5579 H         1 RES1    0.0000
     38 H17       -0.4185   -0.6619    9.6951 H         1 RES1    0.0000
     39 C18        5.1930   -2.2542    4.8085 C.ar      1 RES1    0.0000
     40 H18        5.6933   -2.7454    4.1679 H         1 RES1    0.0000
     41 C19        2.5692    2.5987   10.0860 C.3       1 RES1    0.0000
     42 H19        1.9645    2.7867   10.8339 H         1 RES1    0.0000
     43 H20        2.2808    3.1047    9.2983 H         1 RES1    0.0000
     44 H21        3.4810    2.8637   10.3297 H         1 RES1    0.0000
@<TRIPOS>BOND
     1    1    4 1
     2    2    3 2
     3    4   17 2
     4    5    6 1
     5    7    8 ar
     6    8   17 1
     7    9    5 ar
     8   10    9 1
     9   11   12 1
    10   13    7 ar
    11   14   13 1
    12   15   11 ar
    13   16   15 1
    14   17    2 1
    15   18    5 ar
    16   19    2 1
    17   20    4 1
    18   21   22 1
    19   23    8 ar
    20   24   23 1
    21   25   19 1
    22   26   25 1
    23   27   25 1
    24   28   25 1
    25   29    9 ar
    26   30   29 1
    27   31   20 1
    28   32   31 1
    29   33   31 1
    30   34   31 1
    31   35   19 1
    32   36   35 1
    33   37   35 1
    34   38   35 1
    35   39   13 ar
    36   40   39 1
    37   41   20 1
    38   42   41 1
    39   43   41 1
    40   44   41 1
    41    7   18 1
    42   11   29 ar
    43   15   18 ar
    44   19   20 1
    45   21   23 ar
    46   21   39 ar
@<TRIPOS>SUBSTRUCTURE
     1 RES1 1

@<TRIPOS>CRYSIN
  14.0480    6.1625   19.4080  90.0000  98.9500  90.0000  14 1

