# MOL2 file generated by ConQuest
# Please check atom types

@<TRIPOS>MOLECULE
TAWWAQ
    90    94     2
SMALL
NO_CHARGES
****
Generated from CSD

@<TRIPOS>ATOM
      1 C1         4.1563    3.0071    3.0679 C.1       1 RES1    0.0000
      2 C2         4.2184    1.7537    3.8069 C.ar      1 RES1    0.0000
      3 C3         4.4778    1.7605    5.1689 C.ar      1 RES1    0.0000
      4 H1         4.6543    2.5819    5.6109 H         1 RES1    0.0000
      5 C4         4.4813    0.5669    5.8936 C.ar      1 RES1    0.0000
      6 H2         4.6709    0.5838    6.8251 H         1 RES1    0.0000
      7 C5         4.2064   -0.6616    5.2620 C.ar      1 RES1    0.0000
      8 C6         3.9779   -0.6516    3.8829 C.ar      1 RES1    0.0000
      9 H3         3.8254   -1.4727    3.4338 H         1 RES1    0.0000
     10 C7         3.9678    0.5407    3.1488 C.ar      1 RES1    0.0000
     11 H4         3.7932    0.5269    2.2163 H         1 RES1    0.0000
     12 C8         4.1179   -1.9375    6.0525 C.ar      1 RES1    0.0000
     13 C9         3.8986   -1.9241    7.4374 C.ar      1 RES1    0.0000
     14 H5         3.8248   -1.0922    7.8925 H         1 RES1    0.0000
     15 C10        3.7880   -3.1072    8.1552 C.ar      1 RES1    0.0000
     16 H6         3.6604   -3.0733    9.0969 H         1 RES1    0.0000
     17 C11        3.8625   -4.3488    7.5155 C.ar      1 RES1    0.0000
     18 H7         3.7870   -5.1514    8.0198 H         1 RES1    0.0000
     19 C12        4.0493   -4.4018    6.1237 C.ar      1 RES1    0.0000
     20 C13        4.2059   -3.1933    5.4144 C.ar      1 RES1    0.0000
     21 H8         4.3767   -3.2258    4.4815 H         1 RES1    0.0000
     22 C14        4.0335   -5.6952    5.4164 C.2       1 RES1    0.0000
     23 C15        3.6428   -7.3343    3.7099 C.3       1 RES1    0.0000
     24 C16        4.1596   -8.0423    4.9708 C.3       1 RES1    0.0000
     25 C17        2.0694   -7.4606    3.6048 C.3       1 RES1    0.0000
     26 H9         1.7584   -6.9985    2.7973 H         1 RES1    0.0000
     27 H10        1.6564   -7.0524    4.3934 H         1 RES1    0.0000
     28 H11        1.8201   -8.4065    3.5578 H         1 RES1    0.0000
     29 C18        4.2533   -7.6917    2.3932 C.3       1 RES1    0.0000
     30 H12        3.8253   -7.1695    1.6810 H         1 RES1    0.0000
     31 H13        4.1227   -8.6468    2.2195 H         1 RES1    0.0000
     32 H14        5.2125   -7.4915    2.4121 H         1 RES1    0.0000
     33 C19        3.3778   -9.2553    5.4738 C.3       1 RES1    0.0000
     34 H15        3.8166   -9.6189    6.2702 H         1 RES1    0.0000
     35 H16        3.3525   -9.9408    4.7720 H         1 RES1    0.0000
     36 H17        2.4635   -8.9842    5.6990 H         1 RES1    0.0000
     37 C20        5.6622   -8.4250    4.8624 C.3       1 RES1    0.0000
     38 H18        5.9467   -8.8717    5.6860 H         1 RES1    0.0000
     39 H19        6.1966   -7.6132    4.7296 H         1 RES1    0.0000
     40 H20        5.7914   -9.0289    4.1029 H         1 RES1    0.0000
     41 C21        0.4823   -5.0220    6.4491 C.1       2 RES2    0.0000
     42 C22        0.5028   -3.6032    6.1139 C.ar      2 RES2    0.0000
     43 C23        0.8102   -3.1873    4.8122 C.ar      2 RES2    0.0000
     44 H21        0.9874   -3.8281    4.1355 H         2 RES2    0.0000
     45 C24        0.8529   -1.8255    4.5187 C.ar      2 RES2    0.0000
     46 H22        1.0528   -1.5482    3.6329 H         2 RES2    0.0000
     47 C25        0.6088   -0.8534    5.5022 C.ar      2 RES2    0.0000
     48 C26        0.2808   -1.2940    6.7873 C.ar      2 RES2    0.0000
     49 H23        0.0900   -0.6563    7.4649 H         2 RES2    0.0000
     50 C27        0.2273   -2.6574    7.0960 C.ar      2 RES2    0.0000
     51 H24        0.0041   -2.9362    7.9773 H         2 RES2    0.0000
     52 C28        0.7258    0.6193    5.1957 C.ar      2 RES2    0.0000
     53 C29        0.5422    1.0953    3.8891 C.ar      2 RES2    0.0000
     54 H25        0.3268    0.4806    3.1988 H         2 RES2    0.0000
     55 C30        0.6696    2.4756    3.5761 C.ar      2 RES2    0.0000
     56 C31        0.9652    3.3829    4.6163 C.ar      2 RES2    0.0000
     57 H26        1.0365    4.3119    4.4358 H         2 RES2    0.0000
     58 C32        1.1517    2.9054    5.9086 C.ar      2 RES2    0.0000
     59 H27        1.3574    3.5170    6.6064 H         2 RES2    0.0000
     60 C33        1.0433    1.5436    6.2007 C.ar      2 RES2    0.0000
     61 H28        1.1864    1.2416    7.0895 H         2 RES2    0.0000
     62 C34        0.5490    2.9380    2.1970 C.2       2 RES2    0.0000
     63 C35        0.3984    4.3766    0.2944 C.3       2 RES2    0.0000
     64 C36        0.2991    2.8838   -0.1750 C.3       2 RES2    0.0000
     65 C37       -1.1484    2.4263   -0.4638 C.3       2 RES2    0.0000
     66 H29       -1.1439    1.4897   -0.7507 H         2 RES2    0.0000
     67 H30       -1.5316    2.9839   -1.1718 H         2 RES2    0.0000
     68 H31       -1.6871    2.5172    0.3493 H         2 RES2    0.0000
     69 C38        1.2102    2.4802   -1.3135 C.3       2 RES2    0.0000
     70 H32        1.0693    1.5343   -1.5243 H         2 RES2    0.0000
     71 H33        2.1443    2.6204   -1.0510 H         2 RES2    0.0000
     72 H34        1.0084    3.0255   -2.1020 H         2 RES2    0.0000
     73 C39       -0.7161    5.2901   -0.2190 C.3       2 RES2    0.0000
     74 H35       -0.5759    6.1990    0.1208 H         2 RES2    0.0000
     75 H36       -1.5827    4.9542    0.0947 H         2 RES2    0.0000
     76 H37       -0.7045    5.3009   -1.1979 H         2 RES2    0.0000
     77 C40        1.7799    4.9881    0.0503 C.3       2 RES2    0.0000
     78 H38        1.7850    5.9171    0.3590 H         2 RES2    0.0000
     79 H39        1.9833    4.9620   -0.9074 H         2 RES2    0.0000
     80 H40        2.4550    4.4752    0.5418 H         2 RES2    0.0000
     81 N1         4.0873    4.0022    2.4800 N.1       1 RES1    0.0000
     82 N2         4.0949   -6.9335    5.9840 N.pl3     1 RES1    0.0000
     83 N3         3.8809   -5.8792    4.0768 N.pl3     1 RES1    0.0000
     84 N4         0.5027   -6.1574    6.7256 N.1       2 RES2    0.0000
     85 N5         0.7182    2.1715    1.0833 N.pl3     2 RES2    0.0000
     86 N6         0.2755    4.2082    1.7802 N.pl3     2 RES2    0.0000
     87 O1         4.2230   -7.1983    7.2419 O.2       1 RES1    0.0000
     88 O2         3.7455   -4.9583    3.1766 O.2       1 RES1    0.0000
     89 O3         1.1028    0.9329    1.0549 O.2       2 RES2    0.0000
     90 O4         0.0628    5.2416    2.5365 O.2       2 RES2    0.0000
@<TRIPOS>BOND
     1    1    2 1
     2    2    3 ar
     3    3    4 1
     4    5    3 ar
     5    6    5 1
     6    7    5 ar
     7    8    7 ar
     8    9    8 1
     9   10    2 ar
    10   11   10 1
    11   12    7 1
    12   13   12 ar
    13   14   13 1
    14   15   13 ar
    15   16   15 1
    16   17   15 ar
    17   18   17 1
    18   19   17 ar
    19   20   12 ar
    20   21   20 1
    21   22   19 1
    22   23   24 1
    23   24   33 1
    24   25   23 1
    25   26   25 1
    26   27   25 1
    27   28   25 1
    28   29   23 1
    29   30   29 1
    30   31   29 1
    31   32   29 1
    32   33   34 1
    33   35   33 1
    34   36   33 1
    35   37   24 1
    36   38   37 1
    37   39   37 1
    38   40   37 1
    39   41   42 1
    40   42   43 ar
    41   43   44 1
    42   45   43 ar
    43   46   45 1
    44   47   45 ar
    45   48   47 ar
    46   49   48 1
    47   50   42 ar
    48   51   50 1
    49   52   47 1
    50   53   52 ar
    51   54   53 1
    52   55   53 ar
    53   56   55 ar
    54   57   56 1
    55   58   56 ar
    56   59   58 1
    57   60   52 ar
    58   61   60 1
    59   62   55 1
    60   63   64 1
    61   64   65 1
    62   65   66 1
    63   67   65 1
    64   68   65 1
    65   69   64 1
    66   70   69 1
    67   71   69 1
    68   72   69 1
    69   73   63 1
    70   74   73 1
    71   75   73 1
    72   76   73 1
    73   77   63 1
    74   78   77 1
    75   79   77 1
    76   80   77 1
    77   81    1 3
    78   82   22 2
    79   83   22 1
    80   84   41 3
    81   85   62 2
    82   86   62 1
    83   87   82 1
    84   88   83 2
    85   89   85 1
    86   90   86 2
    87    8   10 ar
    88   19   20 ar
    89   23   83 1
    90   24   82 1
    91   48   50 ar
    92   58   60 ar
    93   63   86 1
    94   64   85 1
@<TRIPOS>SUBSTRUCTURE
     1 RES1 1
     2 RES2 41

@<TRIPOS>CRYSIN
   7.1496   15.4050   32.6820  90.0000  92.8900  90.0000 231 1

