# MOL2 file generated by ConQuest
# Please check atom types

@<TRIPOS>MOLECULE
TAXDUU
    26    27     1
SMALL
NO_CHARGES
****
Generated from CSD

@<TRIPOS>ATOM
      1 C1         1.8465    4.4389   10.9954 C.3       1 RES1    0.0000
      2 H1         2.7069    4.3143   10.5654 H         1 RES1    0.0000
      3 H2         1.6404    5.3868   10.9791 H         1 RES1    0.0000
      4 C2        -0.7966    2.8761    9.0218 C.2       1 RES1    0.0000
      5 C3         0.8071    3.7012   10.2292 C.2       1 RES1    0.0000
      6 C4        -0.3372    4.0573    9.6428 C.2       1 RES1    0.0000
      7 H3        -0.7415    4.8949    9.6432 H         1 RES1    0.0000
      8 N1         0.0161    1.8757    9.2212 N.2       1 RES1    0.0000
      9 N2         0.9977    4.5810   13.2199 N.pl3     1 RES1    0.0000
     10 O1         1.9351    3.9981   12.3667 O.3       1 RES1    0.0000
     11 O2         1.0616    2.3900   10.0003 O.3       1 RES1    0.0000
     12 O3         0.2263    5.3469   12.7545 O.2       1 RES1    0.0000
     13 O4         1.1289    4.2022   14.3439 O.2       1 RES1    0.0000
     14 C1B       -4.6507    1.0910    6.2550 C.3       1 RES1    0.0000
     15 H1B       -5.5110    1.2156    6.6851 H         1 RES1    0.0000
     16 H2B       -4.4446    0.1431    6.2714 H         1 RES1    0.0000
     17 C2B       -2.0076    2.6538    8.2286 C.2       1 RES1    0.0000
     18 C3B       -3.6112    1.8287    7.0213 C.2       1 RES1    0.0000
     19 C4B       -2.4670    1.4726    7.6076 C.2       1 RES1    0.0000
     20 H3B       -2.0626    0.6350    7.6073 H         1 RES1    0.0000
     21 N1B       -2.8203    3.6542    8.0292 N.2       1 RES1    0.0000
     22 N2B       -3.8018    0.9489    4.0306 N.pl3     1 RES1    0.0000
     23 O1B       -4.7392    1.5318    4.8838 O.3       1 RES1    0.0000
     24 O2B       -3.8658    3.1399    7.2502 O.3       1 RES1    0.0000
     25 O3B       -3.0304    0.1830    4.4960 O.2       1 RES1    0.0000
     26 O4B       -3.9330    1.3277    2.9065 O.2       1 RES1    0.0000
@<TRIPOS>BOND
     1    1    2 1
     2    3    1 1
     3    4    6 1
     4    5    1 1
     5    6    5 2
     6    7    6 1
     7    8    4 2
     8    9   10 1
     9   10    1 1
    10   11    5 1
    11   12    9 2
    12   13    9 2
    13   14   15 1
    14   16   14 1
    15   17    4 1
    16   18   14 1
    17   19   17 1
    18   20   19 1
    19   21   17 2
    20   22   23 1
    21   23   14 1
    22   24   18 1
    23   25   22 2
    24   26   22 2
    25    8   11 1
    26   18   19 2
    27   21   24 1
@<TRIPOS>SUBSTRUCTURE
     1 RES1 1

@<TRIPOS>CRYSIN
   6.1917    5.5299   17.4769  90.0000  99.2330  90.0000 231 1

