# MOL2 file generated by ConQuest
# Please check atom types

@<TRIPOS>MOLECULE
TAXHAD
    92    94     1
SMALL
NO_CHARGES
****
Generated from CSD

@<TRIPOS>ATOM
      1 O1         5.5010   19.3446    2.5828 O.3       1 RES1    0.0000
      2 O2         5.9680   18.1973    5.1563 O.3       1 RES1    0.0000
      3 O3         7.8203   12.6487    7.3125 O.2       1 RES1    0.0000
      4 O4         4.0512   17.5625    6.0901 O.2       1 RES1    0.0000
      5 N1         7.2144   13.7194    6.9423 N.3       1 RES1    0.0000
      6 N2         8.2456   17.8735    2.8558 N.1       1 RES1    0.0000
      7 N3         8.7779   17.7942   -1.2538 N.1       1 RES1    0.0000
      8 C1         3.7037   19.7547    1.0520 C.2       1 RES1    0.0000
      9 C2         7.1369   18.4248    0.6170 C.2       1 RES1    0.0000
     10 C3         7.6916   18.1657    1.9011 C.1       1 RES1    0.0000
     11 C4         5.1666   17.3046    5.7492 C.2       1 RES1    0.0000
     12 C5         7.9827   14.6475    6.0995 C.3       1 RES1    0.0000
     13 C6         5.8321   15.9495    5.8872 C.3       1 RES1    0.0000
     14 C7         4.6481   19.6266    3.6965 C.3       1 RES1    0.0000
     15 C8         5.4619   19.5256    4.9419 C.3       1 RES1    0.0000
     16 C9         5.1719   15.0897    6.8953 C.3       1 RES1    0.0000
     17 C10        5.7505   13.7128    7.0647 C.3       1 RES1    0.0000
     18 C11        8.0324   18.0670   -0.4392 C.1       1 RES1    0.0000
     19 C12        7.2958   15.9983    6.0378 C.3       1 RES1    0.0000
     20 C13        8.2126   14.0205    4.7370 C.3       1 RES1    0.0000
     21 C14        9.3406   14.8856    6.7405 C.3       1 RES1    0.0000
     22 C15        5.1997   12.7568    5.9960 C.3       1 RES1    0.0000
     23 C16        5.3839   13.1245    8.4199 C.3       1 RES1    0.0000
     24 C17        4.9655   19.3487    1.3458 C.2       1 RES1    0.0000
     25 C18        5.8799   18.9052    0.3158 C.2       1 RES1    0.0000
     26 H1         5.6785   15.5010    5.0298 H         1 RES1    0.0000
     27 H2         3.9158   18.9901    3.7247 H         1 RES1    0.0000
     28 H3         4.2755   20.5189    3.6139 H         1 RES1    0.0000
     29 H4         6.2068   20.1454    4.8865 H         1 RES1    0.0000
     30 H5         4.9164   19.7835    5.7011 H         1 RES1    0.0000
     31 H6         4.2368   14.9997    6.6537 H         1 RES1    0.0000
     32 H7         5.2067   15.5435    7.7527 H         1 RES1    0.0000
     33 H8         7.5049   16.4860    6.8492 H         1 RES1    0.0000
     34 H9         7.6654   16.4976    5.2922 H         1 RES1    0.0000
     35 H10        8.6866   14.6379    4.1754 H         1 RES1    0.0000
     36 H11        7.3671   13.8077    4.3354 H         1 RES1    0.0000
     37 H12        8.7309   13.2194    4.8373 H         1 RES1    0.0000
     38 H13        9.2665   14.7888    7.6921 H         1 RES1    0.0000
     39 H14        9.6422   15.7719    6.5314 H         1 RES1    0.0000
     40 H15        9.9699   14.2450    6.4017 H         1 RES1    0.0000
     41 H16        4.2472   12.6852    6.0922 H         1 RES1    0.0000
     42 H17        5.5998   11.8918    6.1037 H         1 RES1    0.0000
     43 H18        5.4081   13.0994    5.1228 H         1 RES1    0.0000
     44 H19        4.4296   13.1207    8.5192 H         1 RES1    0.0000
     45 H20        5.7756   13.6567    9.1163 H         1 RES1    0.0000
     46 H21        5.7166   12.2266    8.4795 H         1 RES1    0.0000
     47 O1B        3.6420   19.3594   -2.5828 O.3       1 RES1    0.0000
     48 O2B        3.1750   20.5067   -5.1563 O.3       1 RES1    0.0000
     49 O3B        1.3227   26.0553   -7.3125 O.2       1 RES1    0.0000
     50 O4B        5.0918   21.1415   -6.0901 O.2       1 RES1    0.0000
     51 N1B        1.9286   24.9846   -6.9423 N.3       1 RES1    0.0000
     52 N2B        0.8974   20.8305   -2.8558 N.1       1 RES1    0.0000
     53 N3B        0.3651   20.9098    1.2538 N.1       1 RES1    0.0000
     54 C1B        5.4393   18.9493   -1.0520 C.2       1 RES1    0.0000
     55 C2B        2.0061   20.2792   -0.6170 C.2       1 RES1    0.0000
     56 C3B        1.4514   20.5383   -1.9011 C.1       1 RES1    0.0000
     57 C4B        3.9764   21.3994   -5.7492 C.2       1 RES1    0.0000
     58 C5B        1.1603   24.0565   -6.0995 C.3       1 RES1    0.0000
     59 C6B        3.3109   22.7545   -5.8872 C.3       1 RES1    0.0000
     60 C7B        4.4949   19.0774   -3.6965 C.3       1 RES1    0.0000
     61 C8B        3.6811   19.1784   -4.9419 C.3       1 RES1    0.0000
     62 C9B        3.9711   23.6143   -6.8953 C.3       1 RES1    0.0000
     63 C10B       3.3925   24.9912   -7.0647 C.3       1 RES1    0.0000
     64 C11B       1.1106   20.6370    0.4392 C.1       1 RES1    0.0000
     65 C12B       1.8472   22.7057   -6.0378 C.3       1 RES1    0.0000
     66 C13B       0.9304   24.6835   -4.7370 C.3       1 RES1    0.0000
     67 C14B      -0.1976   23.8184   -6.7405 C.3       1 RES1    0.0000
     68 C15B       3.9433   25.9472   -5.9960 C.3       1 RES1    0.0000
     69 C16B       3.7591   25.5795   -8.4199 C.3       1 RES1    0.0000
     70 C17B       4.1775   19.3553   -1.3458 C.2       1 RES1    0.0000
     71 C18B       3.2631   19.7988   -0.3158 C.2       1 RES1    0.0000
     72 H1B        3.4645   23.2030   -5.0298 H         1 RES1    0.0000
     73 H2B        5.2272   19.7139   -3.7247 H         1 RES1    0.0000
     74 H3B        4.8675   18.1851   -3.6139 H         1 RES1    0.0000
     75 H4B        2.9362   18.5586   -4.8865 H         1 RES1    0.0000
     76 H5B        4.2266   18.9205   -5.7011 H         1 RES1    0.0000
     77 H6B        4.9062   23.7043   -6.6537 H         1 RES1    0.0000
     78 H7B        3.9363   23.1605   -7.7527 H         1 RES1    0.0000
     79 H8B        1.6381   22.2180   -6.8492 H         1 RES1    0.0000
     80 H9B        1.4776   22.2064   -5.2922 H         1 RES1    0.0000
     81 H10B       0.4564   24.0661   -4.1754 H         1 RES1    0.0000
     82 H11B       1.7759   24.8963   -4.3354 H         1 RES1    0.0000
     83 H12B       0.4121   25.4846   -4.8373 H         1 RES1    0.0000
     84 H13B      -0.1235   23.9152   -7.6921 H         1 RES1    0.0000
     85 H14B      -0.4992   22.9321   -6.5314 H         1 RES1    0.0000
     86 H15B      -0.8269   24.4590   -6.4017 H         1 RES1    0.0000
     87 H16B       4.8958   26.0188   -6.0922 H         1 RES1    0.0000
     88 H17B       3.5432   26.8122   -6.1037 H         1 RES1    0.0000
     89 H18B       3.7349   25.6046   -5.1228 H         1 RES1    0.0000
     90 H19B       4.7134   25.5833   -8.5192 H         1 RES1    0.0000
     91 H20B       3.3674   25.0473   -9.1163 H         1 RES1    0.0000
     92 H21B       3.4264   26.4774   -8.4795 H         1 RES1    0.0000
@<TRIPOS>BOND
     1    1   14 1
     2    2   11 1
     3    3    5 1
     4    4   11 2
     5    5   12 1
     6    6   10 3
     7    7   18 3
     8    8   24 2
     9    9   10 1
    10   11   13 1
    11   12   19 1
    12   13   16 1
    13   14   15 1
    14   15    2 1
    15   16   17 1
    16   17    5 1
    17   18    9 1
    18   19   13 1
    19   20   12 1
    20   21   12 1
    21   22   17 1
    22   23   17 1
    23   24    1 1
    24   25    9 2
    25   26   13 1
    26   27   14 1
    27   28   14 1
    28   29   15 1
    29   30   15 1
    30   31   16 1
    31   32   16 1
    32   33   19 1
    33   34   19 1
    34   35   20 1
    35   36   20 1
    36   37   20 1
    37   38   21 1
    38   39   21 1
    39   40   21 1
    40   41   22 1
    41   42   22 1
    42   43   22 1
    43   44   23 1
    44   45   23 1
    45   46   23 1
    46   47   60 1
    47   48   57 1
    48   49   51 1
    49   50   57 2
    50   51   58 1
    51   52   56 3
    52   53   64 3
    53   54   25 1
    54   55   56 1
    55   57   59 1
    56   58   65 1
    57   59   62 1
    58   60   61 1
    59   61   48 1
    60   62   63 1
    61   63   51 1
    62   64   55 1
    63   65   59 1
    64   66   58 1
    65   67   58 1
    66   68   63 1
    67   69   63 1
    68   70   47 1
    69   71    8 1
    70   72   59 1
    71   73   60 1
    72   74   60 1
    73   75   61 1
    74   76   61 1
    75   77   62 1
    76   78   62 1
    77   79   65 1
    78   80   65 1
    79   81   66 1
    80   82   66 1
    81   83   66 1
    82   84   67 1
    83   85   67 1
    84   86   67 1
    85   87   68 1
    86   88   68 1
    87   89   68 1
    88   90   69 1
    89   91   69 1
    90   92   69 1
    91   24   25 1
    92   54   70 2
    93   55   71 2
    94   70   71 1
@<TRIPOS>SUBSTRUCTURE
     1 RES1 1

@<TRIPOS>CRYSIN
   9.1430   19.3520   10.8940  90.0000 106.2860  90.0000 231 1

