# MOL2 file generated by ConQuest
# Please check atom types

@<TRIPOS>MOLECULE
TAXLUB
    49    51     1
SMALL
NO_CHARGES
****
Generated from CSD

@<TRIPOS>ATOM
      1 O1        -0.2757    7.1127    8.3311 O.3       1 RES1    0.0000
      2 O2         5.2684    4.4765   11.4558 O.2       1 RES1    0.0000
      3 O3         4.3110    2.5386   11.5737 O.2       1 RES1    0.0000
      4 O4        -4.2288    6.6856    7.0928 O.2       1 RES1    0.0000
      5 O5        -5.4042    4.3083    7.7812 O.3       1 RES1    0.0000
      6 N1        -2.2393    6.1045    7.9405 N.am      1 RES1    0.0000
      7 N2        -1.4302    5.2075    8.6387 N.2       1 RES1    0.0000
      8 N3         4.3122    3.7369   11.2931 N.pl3     1 RES1    0.0000
      9 C1        -0.3335    5.8420    8.8144 C.2       1 RES1    0.0000
     10 C2         0.8543    5.3077    9.4719 C.ar      1 RES1    0.0000
     11 C3         1.9982    6.1058    9.6092 C.ar      1 RES1    0.0000
     12 H1         1.9996    6.9936    9.2715 H         1 RES1    0.0000
     13 C4         3.1242    5.6047   10.2345 C.ar      1 RES1    0.0000
     14 H2         3.8994    6.1427   10.3485 H         1 RES1    0.0000
     15 C5         3.0940    4.3007   10.6900 C.ar      1 RES1    0.0000
     16 C6         1.9799    3.5008   10.5794 C.ar      1 RES1    0.0000
     17 H3         1.9881    2.6136   10.9182 H         1 RES1    0.0000
     18 C7         0.8475    4.0056    9.9702 C.ar      1 RES1    0.0000
     19 H4         0.0681    3.4682    9.8912 H         1 RES1    0.0000
     20 C8        -1.5501    7.3772    7.6872 C.3       1 RES1    0.0000
     21 H5        -2.0234    8.1242    8.1552 H         1 RES1    0.0000
     22 C9        -1.3518    7.7203    6.2184 C.3       1 RES1    0.0000
     23 H6        -2.2420    7.9724    5.8386 H         1 RES1    0.0000
     24 C10       -0.4374    8.9339    6.1114 C.3       1 RES1    0.0000
     25 H7         0.4612    8.6929    6.4155 H         1 RES1    0.0000
     26 H8        -0.7878    9.6576    6.6710 H         1 RES1    0.0000
     27 H9        -0.3980    9.2328    5.1796 H         1 RES1    0.0000
     28 C11       -0.8160    6.5509    5.4095 C.3       1 RES1    0.0000
     29 H10        0.0603    6.2847    5.7601 H         1 RES1    0.0000
     30 H11       -0.7224    6.8177    4.4705 H         1 RES1    0.0000
     31 H12       -1.4371    5.7959    5.4743 H         1 RES1    0.0000
     32 C12       -3.5487    5.8549    7.6767 C.2       1 RES1    0.0000
     33 C13       -4.0589    4.5048    8.1607 C.3       1 RES1    0.0000
     34 H13       -3.4979    3.7842    7.7765 H         1 RES1    0.0000
     35 H14       -3.9854    4.4587    9.1464 H         1 RES1    0.0000
     36 C14       -5.4954    3.8537    6.4307 C.3       1 RES1    0.0000
     37 H15       -5.1676    2.9216    6.3673 H         1 RES1    0.0000
     38 H16       -4.9314    4.4199    5.8476 H         1 RES1    0.0000
     39 C15       -6.9239    3.9244    5.9762 C.ar      1 RES1    0.0000
     40 C16       -7.4976    2.8565    5.3009 C.ar      1 RES1    0.0000
     41 H17       -7.0034    2.0547    5.1778 H         1 RES1    0.0000
     42 C17       -8.7834    2.9511    4.8067 C.ar      1 RES1    0.0000
     43 H18       -9.1668    2.2152    4.3437 H         1 RES1    0.0000
     44 C18       -9.5176    4.1045    4.9797 C.ar      1 RES1    0.0000
     45 H19      -10.3991    4.1679    4.6313 H         1 RES1    0.0000
     46 C19       -8.9581    5.1743    5.6686 C.ar      1 RES1    0.0000
     47 H20       -9.4635    5.9681    5.8011 H         1 RES1    0.0000
     48 C20       -7.6676    5.0876    6.1630 C.ar      1 RES1    0.0000
     49 H21       -7.2870    5.8230    6.6299 H         1 RES1    0.0000
@<TRIPOS>BOND
     1    1    9 1
     2    2    8 2
     3    3    8 2
     4    4   32 2
     5    5   33 1
     6    6    7 1
     7    7    9 2
     8    8   15 1
     9    9   10 1
    10   10   11 ar
    11   11   12 1
    12   13   11 ar
    13   14   13 1
    14   15   13 ar
    15   16   15 ar
    16   17   16 1
    17   18   10 ar
    18   19   18 1
    19   20    1 1
    20   21   20 1
    21   22   20 1
    22   23   22 1
    23   24   22 1
    24   25   24 1
    25   26   24 1
    26   27   24 1
    27   28   22 1
    28   29   28 1
    29   30   28 1
    30   31   28 1
    31   32    6 1
    32   33   32 1
    33   34   33 1
    34   35   33 1
    35   36    5 1
    36   37   36 1
    37   38   36 1
    38   39   36 1
    39   40   39 ar
    40   41   40 1
    41   42   40 ar
    42   43   42 1
    43   44   42 ar
    44   45   44 1
    45   46   44 ar
    46   47   46 1
    47   48   39 ar
    48   49   48 1
    49    6   20 1
    50   16   18 ar
    51   46   48 ar
@<TRIPOS>SUBSTRUCTURE
     1 RES1 1

@<TRIPOS>CRYSIN
  33.9831    6.1482   20.2932  90.0000 118.3420  90.0000  15 1

