# MOL2 file generated by ConQuest
# Please check atom types

@<TRIPOS>MOLECULE
TAXTUJ
    82    84     2
SMALL
NO_CHARGES
****
Generated from CSD

@<TRIPOS>ATOM
      1 C1         9.9986   13.6220    9.5484 C.3       1 RES1    0.0000
      2 H1        10.8646   13.3521    9.1785 H         1 RES1    0.0000
      3 H2        10.0512   13.6321   10.5263 H         1 RES1    0.0000
      4 H3         9.7706   14.5184    9.2247 H         1 RES1    0.0000
      5 C2         8.8763   12.4659    7.7893 C.ar      1 RES1    0.0000
      6 C3         9.5979   13.1463    6.8174 C.ar      1 RES1    0.0000
      7 H4        10.2234   13.8165    7.0683 H         1 RES1    0.0000
      8 C4         9.3991   12.8418    5.4752 C.ar      1 RES1    0.0000
      9 H5         9.9038   13.3042    4.8155 H         1 RES1    0.0000
     10 C5         8.4816   11.8806    5.0737 C.ar      1 RES1    0.0000
     11 C6         7.7604   11.2063    6.0674 C.ar      1 RES1    0.0000
     12 H6         7.1297   10.5409    5.8167 H         1 RES1    0.0000
     13 C7         7.9512   11.4933    7.4089 C.ar      1 RES1    0.0000
     14 H7         7.4520   11.0284    8.0695 H         1 RES1    0.0000
     15 C8         8.2909   11.5583    3.6042 C.3       1 RES1    0.0000
     16 H8         8.8959   12.1521    3.0730 H         1 RES1    0.0000
     17 C9         8.6448   10.0973    3.2798 C.3       1 RES1    0.0000
     18 H9         7.9839    9.4969    3.7296 H         1 RES1    0.0000
     19 C10        8.6314    9.8121    1.7841 C.3       1 RES1    0.0000
     20 H10        9.4091   10.2485    1.3555 H         1 RES1    0.0000
     21 H11        8.7005    8.8358    1.6308 H         1 RES1    0.0000
     22 C11        7.3534   10.3339    1.1709 C.2       1 RES1    0.0000
     23 C12        6.5630   11.2163    1.7760 C.2       1 RES1    0.0000
     24 H12        5.7746   11.4945    1.3247 H         1 RES1    0.0000
     25 C13        6.8469   11.7969    3.1313 C.3       1 RES1    0.0000
     26 H13        6.2239   11.3970    3.7892 H         1 RES1    0.0000
     27 H14        6.6741   12.7707    3.1057 H         1 RES1    0.0000
     28 C14        7.0182    9.7717   -0.1696 C.2       1 RES1    0.0000
     29 C15        5.8150   10.0549   -2.1829 C.3       1 RES1    0.0000
     30 H15        5.4043    9.1549   -2.1334 H         1 RES1    0.0000
     31 H16        6.6253   10.0003   -2.7495 H         1 RES1    0.0000
     32 C16        4.8451   11.0385   -2.7564 C.3       1 RES1    0.0000
     33 H17        4.0128   11.0160   -2.2393 H         1 RES1    0.0000
     34 H18        4.6575   10.8050   -3.6891 H         1 RES1    0.0000
     35 H19        5.2303   11.9394   -2.7149 H         1 RES1    0.0000
     36 C17        5.8699    3.8307    9.2276 C.3       2 RES2    0.0000
     37 H20        5.6503    2.9937    8.7665 H         2 RES2    0.0000
     38 H21        5.9806    3.6549   10.1855 H         2 RES2    0.0000
     39 H22        6.7034    4.1955    8.8628 H         2 RES2    0.0000
     40 C18        4.5912    5.2168    7.7637 C.ar      2 RES2    0.0000
     41 C19        5.1656    4.6762    6.6189 C.ar      2 RES2    0.0000
     42 H23        5.7773    3.9526    6.6851 H         2 RES2    0.0000
     43 C20        4.8335    5.2088    5.3712 C.ar      2 RES2    0.0000
     44 H24        5.2285    4.8389    4.5902 H         2 RES2    0.0000
     45 C21        3.9421    6.2638    5.2433 C.ar      2 RES2    0.0000
     46 C22        3.3745    6.7792    6.4069 C.ar      2 RES2    0.0000
     47 H25        2.7519    7.4940    6.3424 H         2 RES2    0.0000
     48 C23        3.6964    6.2751    7.6507 C.ar      2 RES2    0.0000
     49 H26        3.3060    6.6521    8.4315 H         2 RES2    0.0000
     50 C24        3.5277    6.8797    3.9244 C.3       2 RES2    0.0000
     51 H27        3.1657    7.7900    4.1243 H         2 RES2    0.0000
     52 C25        4.6516    7.0534    2.9093 C.3       2 RES2    0.0000
     53 H28        4.9346    6.1558    2.5704 H         2 RES2    0.0000
     54 C26        4.1986    7.9228    1.7340 C.3       2 RES2    0.0000
     55 H29        4.0794    8.8571    2.0371 H         2 RES2    0.0000
     56 H30        4.8893    7.9124    1.0243 H         2 RES2    0.0000
     57 C27        2.8963    7.3946    1.1841 C.2       2 RES2    0.0000
     58 C28        2.1031    6.5676    1.8625 C.2       2 RES2    0.0000
     59 H31        1.3036    6.2693    1.4441 H         2 RES2    0.0000
     60 C29        2.4015    6.0794    3.2492 C.3       2 RES2    0.0000
     61 H32        2.6622    5.1260    3.2078 H         2 RES2    0.0000
     62 H33        1.5815    6.1470    3.7989 H         2 RES2    0.0000
     63 C30        2.5484    7.8987   -0.1714 C.2       2 RES2    0.0000
     64 C31        1.3375    7.5720   -2.1632 C.3       2 RES2    0.0000
     65 H34        2.1605    7.6819   -2.7033 H         2 RES2    0.0000
     66 H35        0.8738    8.4459   -2.1180 H         2 RES2    0.0000
     67 C32        0.4507    6.5543   -2.7882 C.3       2 RES2    0.0000
     68 H36        0.8756    5.6719   -2.7322 H         2 RES2    0.0000
     69 H37        0.2993    6.7851   -3.7276 H         2 RES2    0.0000
     70 H38       -0.4076    6.5334   -2.3144 H         2 RES2    0.0000
     71 N1        10.0176    9.8121    3.8308 N.pl3     1 RES1    0.0000
     72 N2         5.8294    7.7374    3.5665 N.pl3     2 RES2    0.0000
     73 O1         8.9909   12.6934    9.1339 O.3       1 RES1    0.0000
     74 O2        10.9789   10.3921    3.3356 O.2       1 RES1    0.0000
     75 O3        10.1012    9.0377    4.7772 O.2       1 RES1    0.0000
     76 O4         7.4935    8.7342   -0.5896 O.2       1 RES1    0.0000
     77 O5         6.1608   10.5278   -0.8495 O.3       1 RES1    0.0000
     78 O6         4.8151    4.7717    9.0349 O.3       2 RES2    0.0000
     79 O7         5.6274    8.7378    4.2381 O.2       2 RES2    0.0000
     80 O8         6.9333    7.2578    3.3818 O.2       2 RES2    0.0000
     81 O9         3.0199    8.9119   -0.6313 O.2       2 RES2    0.0000
     82 O10        1.6771    7.1158   -0.8185 O.3       2 RES2    0.0000
@<TRIPOS>BOND
     1    1    2 1
     2    3    1 1
     3    4    1 1
     4    5    6 ar
     5    6    7 1
     6    8    6 ar
     7    9    8 1
     8   10    8 ar
     9   11   10 ar
    10   12   11 1
    11   13    5 ar
    12   14   13 1
    13   15   10 1
    14   16   15 1
    15   17   15 1
    16   18   17 1
    17   19   17 1
    18   20   19 1
    19   21   19 1
    20   22   19 1
    21   23   22 2
    22   24   23 1
    23   25   15 1
    24   26   25 1
    25   27   25 1
    26   28   22 1
    27   29   30 1
    28   31   29 1
    29   32   29 1
    30   33   32 1
    31   34   32 1
    32   35   32 1
    33   36   37 1
    34   38   36 1
    35   39   36 1
    36   40   41 ar
    37   41   42 1
    38   43   41 ar
    39   44   43 1
    40   45   43 ar
    41   46   45 ar
    42   47   46 1
    43   48   40 ar
    44   49   48 1
    45   50   45 1
    46   51   50 1
    47   52   50 1
    48   53   52 1
    49   54   52 1
    50   55   54 1
    51   56   54 1
    52   57   54 1
    53   58   57 2
    54   59   58 1
    55   60   50 1
    56   61   60 1
    57   62   60 1
    58   63   57 1
    59   64   65 1
    60   66   64 1
    61   67   64 1
    62   68   67 1
    63   69   67 1
    64   70   67 1
    65   71   17 1
    66   72   52 1
    67   73    1 1
    68   74   71 2
    69   75   71 2
    70   76   28 2
    71   77   28 1
    72   78   36 1
    73   79   72 2
    74   80   72 2
    75   81   63 2
    76   82   63 1
    77    5   73 1
    78   11   13 ar
    79   23   25 1
    80   29   77 1
    81   40   78 1
    82   46   48 ar
    83   58   60 1
    84   64   82 1
@<TRIPOS>SUBSTRUCTURE
     1 RES1 1
     2 RES2 36

@<TRIPOS>CRYSIN
   8.8799   17.7248   19.2543  90.0000  90.0000  90.0000  19 1

