# MOL2 file generated by ConQuest
# Please check atom types

@<TRIPOS>MOLECULE
TAXWIA
    96   102     2
SMALL
NO_CHARGES
****
Generated from CSD

@<TRIPOS>ATOM
      1 C1         3.8580   -0.9841    4.2256 C.2       1 RES1    0.0000
      2 C2         3.8440   -2.4529    3.9328 C.ar      1 RES1    0.0000
      3 C3         3.6122   -3.2893    5.0230 C.ar      1 RES1    0.0000
      4 H1         3.5113   -2.9265    5.8951 H         1 RES1    0.0000
      5 C4         3.5319   -4.6439    4.8179 C.ar      1 RES1    0.0000
      6 C5         3.7009   -5.2337    3.5830 C.ar      1 RES1    0.0000
      7 H2         3.6347   -6.1736    3.4615 H         1 RES1    0.0000
      8 C6         3.9710   -4.3798    2.5330 C.ar      1 RES1    0.0000
      9 C7         4.0462   -3.0089    2.6791 C.ar      1 RES1    0.0000
     10 H3         4.2338   -2.4544    1.9312 H         1 RES1    0.0000
     11 C8         2.5595   -0.4820    2.1404 C.3       1 RES1    0.0000
     12 H4         2.0199   -1.2877    2.3411 H         1 RES1    0.0000
     13 H5         3.0977   -0.6496    1.3260 H         1 RES1    0.0000
     14 C9         1.6692    0.7396    1.9624 C.3       1 RES1    0.0000
     15 H6         0.8280    0.6353    2.4734 H         1 RES1    0.0000
     16 H7         1.4461    0.8716    1.0074 H         1 RES1    0.0000
     17 C10        2.4776    1.9223    2.4945 C.3       1 RES1    0.0000
     18 H8         1.8329    2.5637    2.9103 H         1 RES1    0.0000
     19 C11        3.3204    1.3125    3.6325 C.3       1 RES1    0.0000
     20 H9         2.7837    1.3802    4.4740 H         1 RES1    0.0000
     21 C12        4.6649    1.9951    3.8883 C.3       1 RES1    0.0000
     22 H10        4.5481    2.6564    4.6166 H         1 RES1    0.0000
     23 H11        5.3075    1.3133    4.2054 H         1 RES1    0.0000
     24 C13        5.2713    2.7073    2.6796 C.3       1 RES1    0.0000
     25 C14        4.2159    3.6591    2.1211 C.3       1 RES1    0.0000
     26 H12        3.7584    4.1562    2.8447 H         1 RES1    0.0000
     27 H13        4.6121    4.3029    1.4815 H         1 RES1    0.0000
     28 C15        3.2697    2.6931    1.4248 C.3       1 RES1    0.0000
     29 C16        4.2599    1.8614    0.6030 C.3       1 RES1    0.0000
     30 H14        4.4989    2.3284   -0.2364 H         1 RES1    0.0000
     31 H15        3.8754    0.9777    0.3790 H         1 RES1    0.0000
     32 C17        5.4930    1.7059    1.5121 C.3       1 RES1    0.0000
     33 H16        6.3219    1.9238    1.0176 H         1 RES1    0.0000
     34 H17        5.5599    0.7788    1.8541 H         1 RES1    0.0000
     35 C18        6.5443    3.4102    3.1160 C.3       1 RES1    0.0000
     36 H18        6.9406    3.8743    2.3488 H         1 RES1    0.0000
     37 H19        7.1791    2.7491    3.4628 H         1 RES1    0.0000
     38 H20        6.3333    4.0606    3.8174 H         1 RES1    0.0000
     39 C19       11.7615    6.8405    2.2966 C.2       2 RES2    0.0000
     40 C20       11.0871    5.5269    2.5743 C.ar      2 RES2    0.0000
     41 C21       10.7588    5.0390    3.8364 C.ar      2 RES2    0.0000
     42 H21       10.9350    5.5520    4.6166 H         2 RES2    0.0000
     43 C22       10.1702    3.7913    3.9275 C.ar      2 RES2    0.0000
     44 C23        9.8680    3.0142    2.8338 C.ar      2 RES2    0.0000
     45 H22        9.4932    2.1454    2.9231 H         2 RES2    0.0000
     46 C24       10.1384    3.5656    1.6011 C.ar      2 RES2    0.0000
     47 C25       10.7447    4.7868    1.4450 C.ar      2 RES2    0.0000
     48 H23       10.9288    5.1242    0.5756 H         2 RES2    0.0000
     49 C26       13.3019    6.5744    4.2549 C.3       2 RES2    0.0000
     50 H24       13.2923    5.6012    4.0769 H         2 RES2    0.0000
     51 H25       12.8429    6.7503    5.1139 H         2 RES2    0.0000
     52 C27       14.7278    7.1133    4.2757 C.3       2 RES2    0.0000
     53 H26       15.3146    6.5695    3.6928 H         2 RES2    0.0000
     54 H27       15.0918    7.0986    5.1961 H         2 RES2    0.0000
     55 C28       14.6355    8.5492    3.7564 C.3       2 RES2    0.0000
     56 H28       15.4700    8.7354    3.2379 H         2 RES2    0.0000
     57 C29       13.4627    8.5149    2.7512 C.3       2 RES2    0.0000
     58 H29       13.8502    8.3255    1.8490 H         2 RES2    0.0000
     59 C30       12.6485    9.8080    2.6358 C.3       2 RES2    0.0000
     60 H30       12.9758   10.3141    1.8502 H         2 RES2    0.0000
     61 H31       11.7041    9.5681    2.4631 H         2 RES2    0.0000
     62 C31       12.6966   10.7262    3.8531 C.3       2 RES2    0.0000
     63 C32       14.1665   10.9473    4.2130 C.3       2 RES2    0.0000
     64 H32       14.7139   11.1227    3.4075 H         2 RES2    0.0000
     65 H33       14.2749   11.6963    4.8517 H         2 RES2    0.0000
     66 C33       14.5286    9.6130    4.8534 C.3       2 RES2    0.0000
     67 C34       13.3664    9.4393    5.8388 C.3       2 RES2    0.0000
     68 H34       13.5355    9.9430    6.6737 H         2 RES2    0.0000
     69 H35       13.2354    8.4836    6.0621 H         2 RES2    0.0000
     70 C35       12.1405   10.0001    5.1046 C.3       2 RES2    0.0000
     71 H36       11.6471   10.6339    5.6843 H         2 RES2    0.0000
     72 H37       11.5284    9.2686    4.8402 H         2 RES2    0.0000
     73 C36       11.9405   12.0015    3.5373 C.3       2 RES2    0.0000
     74 H38       12.0370   12.6312    4.2812 H         2 RES2    0.0000
     75 H39       10.9921   11.7947    3.4050 H         2 RES2    0.0000
     76 H40       12.3031   12.4026    2.7201 H         2 RES2    0.0000
     77 N1         3.2003   -5.5146    5.9546 N.pl3     1 RES1    0.0000
     78 N2         4.1579   -4.9653    1.1969 N.pl3     1 RES1    0.0000
     79 N3         3.4259   -0.1287    3.2834 N.am      1 RES1    0.0000
     80 N4         9.8658    3.2362    5.2511 N.pl3     2 RES2    0.0000
     81 N5         9.7607    2.7943    0.4110 N.pl3     2 RES2    0.0000
     82 N6        12.6678    7.3197    3.1536 N.am      2 RES2    0.0000
     83 O1         3.1499   -5.0130    7.0697 O.2       1 RES1    0.0000
     84 O2         2.9915   -6.6902    5.7252 O.2       1 RES1    0.0000
     85 O3         4.2220   -6.1810    1.1188 O.2       1 RES1    0.0000
     86 O4         4.2335   -4.1933    0.2513 O.2       1 RES1    0.0000
     87 O5         4.2633   -0.6149    5.3288 O.2       1 RES1    0.0000
     88 O6         2.2771    3.3147    0.6211 O.3       1 RES1    0.0000
     89 O7         9.8736    3.9928    6.2077 O.2       2 RES2    0.0000
     90 O8         9.6407    2.0426    5.3255 O.2       2 RES2    0.0000
     91 O9         9.3635    1.6509    0.5770 O.2       2 RES2    0.0000
     92 O10        9.8505    3.3422   -0.6800 O.2       2 RES2    0.0000
     93 O11       11.4591    7.4266    1.2484 O.2       2 RES2    0.0000
     94 O12       15.8005    9.5863    5.4905 O.3       2 RES2    0.0000
     95 H41        2.6844    3.8018    0.0655 H         1 RES1    0.0000
     96 H42       15.7733   10.1983    6.1276 H         2 RES2    0.0000
@<TRIPOS>BOND
     1    1    2 1
     2    2    3 ar
     3    3    4 1
     4    5    3 ar
     5    6    5 ar
     6    7    6 1
     7    8    6 ar
     8    9    2 ar
     9   10    9 1
    10   11   12 1
    11   13   11 1
    12   14   11 1
    13   15   14 1
    14   16   14 1
    15   17   14 1
    16   18   17 1
    17   19   17 1
    18   20   19 1
    19   21   19 1
    20   22   21 1
    21   23   21 1
    22   24   21 1
    23   25   24 1
    24   26   25 1
    25   27   25 1
    26   28   17 1
    27   29   28 1
    28   30   29 1
    29   31   29 1
    30   32   24 1
    31   33   32 1
    32   34   32 1
    33   35   24 1
    34   36   35 1
    35   37   35 1
    36   38   35 1
    37   39   40 1
    38   40   41 ar
    39   41   42 1
    40   43   41 ar
    41   44   43 ar
    42   45   44 1
    43   46   44 ar
    44   47   40 ar
    45   48   47 1
    46   49   50 1
    47   51   49 1
    48   52   49 1
    49   53   52 1
    50   54   52 1
    51   55   52 1
    52   56   55 1
    53   57   55 1
    54   58   57 1
    55   59   57 1
    56   60   59 1
    57   61   59 1
    58   62   59 1
    59   63   62 1
    60   64   63 1
    61   65   63 1
    62   66   55 1
    63   67   66 1
    64   68   67 1
    65   69   67 1
    66   70   62 1
    67   71   70 1
    68   72   70 1
    69   73   62 1
    70   74   73 1
    71   75   73 1
    72   76   73 1
    73   77    5 1
    74   78    8 1
    75   79    1 1
    76   80   43 1
    77   81   46 1
    78   82   39 1
    79   83   77 2
    80   84   77 2
    81   85   78 2
    82   86   78 2
    83   87    1 2
    84   88   28 1
    85   89   80 2
    86   90   80 2
    87   91   81 2
    88   92   81 2
    89   93   39 2
    90   94   66 1
    91   95   88 1
    92   96   94 1
    93    8    9 ar
    94   11   79 1
    95   19   79 1
    96   25   28 1
    97   29   32 1
    98   46   47 ar
    99   49   82 1
   100   57   82 1
   101   63   66 1
   102   67   70 1
@<TRIPOS>SUBSTRUCTURE
     1 RES1 1
     2 RES2 39

@<TRIPOS>CRYSIN
  10.8402   13.1113   13.9290  89.3830  68.3130  71.5560   2 1

