# MOL2 file generated by ConQuest
# Please check atom types

@<TRIPOS>MOLECULE
TAYBIG
    38    39     1
SMALL
NO_CHARGES
****
Generated from CSD

@<TRIPOS>ATOM
      1 C1         3.9669    1.8618   11.8336 C.ar      1 RES1    0.0000
      2 H1         4.1969    0.9416   11.7731 H         1 RES1    0.0000
      3 C2         4.0449    2.5188   13.0542 C.ar      1 RES1    0.0000
      4 H2         4.3283    2.0451   13.8277 H         1 RES1    0.0000
      5 C3         3.7117    3.8639   13.1522 C.ar      1 RES1    0.0000
      6 H3         3.7741    4.3088   13.9887 H         1 RES1    0.0000
      7 C4         3.2872    4.5592   12.0238 C.ar      1 RES1    0.0000
      8 H4         3.0527    5.4767   12.0905 H         1 RES1    0.0000
      9 C5         3.2073    3.9079   10.7963 C.ar      1 RES1    0.0000
     10 H5         2.9192    4.3846   10.0266 H         1 RES1    0.0000
     11 C6         3.5476    2.5585   10.6894 C.ar      1 RES1    0.0000
     12 C7         3.4234    1.8088    9.3989 C.2       1 RES1    0.0000
     13 C8         2.9615    2.5680    8.1737 C.3       1 RES1    0.0000
     14 H6         3.6239    3.2724    7.9612 H         1 RES1    0.0000
     15 H7         2.1003    3.0133    8.3744 H         1 RES1    0.0000
     16 C9         2.7848    1.6647    6.9560 C.3       1 RES1    0.0000
     17 H8         3.6678    1.2361    6.7628 H         1 RES1    0.0000
     18 C10        2.3402    2.4087    5.6939 C.ar      1 RES1    0.0000
     19 C11        1.7683    3.6783    5.7291 C.ar      1 RES1    0.0000
     20 H9         1.6576    4.1179    6.5635 H         1 RES1    0.0000
     21 C12        1.3550    4.3127    4.5602 C.ar      1 RES1    0.0000
     22 H10        0.9858    5.1873    4.5847 H         1 RES1    0.0000
     23 C13        1.4967    3.6346    3.3623 C.ar      1 RES1    0.0000
     24 C14        2.0564    2.3631    3.2894 C.ar      1 RES1    0.0000
     25 H11        2.1404    1.9161    2.4549 H         1 RES1    0.0000
     26 C15        2.4886    1.7633    4.4600 C.ar      1 RES1    0.0000
     27 H12        2.8906    0.9037    4.4260 H         1 RES1    0.0000
     28 C16        1.7655    0.5522    7.1886 C.2       1 RES1    0.0000
     29 C17       -0.3875    0.0533    8.0501 C.3       1 RES1    0.0000
     30 H13       -0.6439   -0.3109    7.1768 H         1 RES1    0.0000
     31 H14       -1.1576    0.5068    8.4534 H         1 RES1    0.0000
     32 H15       -0.0959   -0.6762    8.6358 H         1 RES1    0.0000
     33 N1         0.9973    4.2603    2.1298 N.pl3     1 RES1    0.0000
     34 O1         3.6649    0.6149    9.3373 O.2       1 RES1    0.0000
     35 O2         0.6572    5.4418    2.1705 O.2       1 RES1    0.0000
     36 O3         0.9125    3.5617    1.1211 O.2       1 RES1    0.0000
     37 O4         0.6997    1.0027    7.8797 O.3       1 RES1    0.0000
     38 O5         1.8551   -0.5717    6.7610 O.2       1 RES1    0.0000
@<TRIPOS>BOND
     1    1    2 1
     2    3    1 ar
     3    4    3 1
     4    5    3 ar
     5    6    5 1
     6    7    5 ar
     7    8    7 1
     8    9    7 ar
     9   10    9 1
    10   11    1 ar
    11   12   11 1
    12   13   12 1
    13   14   13 1
    14   15   13 1
    15   16   13 1
    16   17   16 1
    17   18   16 1
    18   19   18 ar
    19   20   19 1
    20   21   19 ar
    21   22   21 1
    22   23   21 ar
    23   24   23 ar
    24   25   24 1
    25   26   18 ar
    26   27   26 1
    27   28   16 1
    28   29   30 1
    29   31   29 1
    30   32   29 1
    31   33   23 1
    32   34   12 2
    33   35   33 2
    34   36   33 2
    35   37   28 1
    36   38   28 2
    37    9   11 ar
    38   24   26 ar
    39   29   37 1
@<TRIPOS>SUBSTRUCTURE
     1 RES1 1

@<TRIPOS>CRYSIN
   7.4205   12.6395    7.9161  90.0000 104.4190  90.0000   4 1

