# MOL2 file generated by ConQuest
# Please check atom types

@<TRIPOS>MOLECULE
TAYBIG01
    38    39     1
SMALL
NO_CHARGES
****
Generated from CSD

@<TRIPOS>ATOM
      1 C1         0.4955    0.3165   -0.3309 C.ar      1 RES1    0.0000
      2 H1         0.2646   -0.6024   -0.2696 H         1 RES1    0.0000
      3 C2         0.4179    0.9744   -1.5547 C.ar      1 RES1    0.0000
      4 H2         0.1352    0.5014   -2.3282 H         1 RES1    0.0000
      5 C3         0.7504    2.3143   -1.6474 C.ar      1 RES1    0.0000
      6 H3         0.6895    2.7596   -2.4845 H         1 RES1    0.0000
      7 C4         1.1748    3.0111   -0.5200 C.ar      1 RES1    0.0000
      8 H4         1.4083    3.9291   -0.5859 H         1 RES1    0.0000
      9 C5         1.2546    2.3576    0.7008 C.ar      1 RES1    0.0000
     10 H5         1.5450    2.8329    1.4705 H         1 RES1    0.0000
     11 C6         0.9150    1.0124    0.8095 C.ar      1 RES1    0.0000
     12 C7         1.0379    0.2636    2.0992 C.2       1 RES1    0.0000
     13 C8         1.5022    1.0228    3.3223 C.3       1 RES1    0.0000
     14 H6         0.8422    1.7290    3.5345 H         1 RES1    0.0000
     15 H7         2.3659    1.4638    3.1224 H         1 RES1    0.0000
     16 C9         1.6731    0.1170    4.5377 C.3       1 RES1    0.0000
     17 H8         0.7910   -0.3132    4.7284 H         1 RES1    0.0000
     18 C10        2.1189    0.8629    5.8006 C.ar      1 RES1    0.0000
     19 C11        2.6893    2.1260    5.7662 C.ar      1 RES1    0.0000
     20 H9         2.7979    2.5651    4.9306 H         1 RES1    0.0000
     21 C12        3.1075    2.7655    6.9318 C.ar      1 RES1    0.0000
     22 H10        3.4827    3.6386    6.9065 H         1 RES1    0.0000
     23 C13        2.9574    2.0834    8.1296 C.ar      1 RES1    0.0000
     24 C14        2.4020    0.8209    8.2009 C.ar      1 RES1    0.0000
     25 H11        2.3211    0.3738    9.0356 H         1 RES1    0.0000
     26 C15        1.9657    0.2172    7.0306 C.ar      1 RES1    0.0000
     27 H12        1.5591   -0.6403    7.0658 H         1 RES1    0.0000
     28 C16        2.6954   -0.9892    4.3041 C.2       1 RES1    0.0000
     29 C17        4.8459   -1.4901    3.4433 C.3       1 RES1    0.0000
     30 H13        5.1104   -1.8465    4.3164 H         1 RES1    0.0000
     31 H14        5.6107   -1.0382    3.0290 H         1 RES1    0.0000
     32 H15        4.5496   -2.2254    2.8666 H         1 RES1    0.0000
     33 N1         3.4565    2.7117    9.3587 N.pl3     1 RES1    0.0000
     34 O1         0.7980   -0.9297    2.1623 O.2       1 RES1    0.0000
     35 O2         3.8002    3.8907    9.3192 O.2       1 RES1    0.0000
     36 O3         3.5422    2.0153   10.3669 O.2       1 RES1    0.0000
     37 O4         3.7592   -0.5426    3.6163 O.3       1 RES1    0.0000
     38 O5         2.6044   -2.1184    4.7374 O.2       1 RES1    0.0000
@<TRIPOS>BOND
     1    1    2 1
     2    3    1 ar
     3    4    3 1
     4    5    3 ar
     5    6    5 1
     6    7    5 ar
     7    8    7 1
     8    9    7 ar
     9   10    9 1
    10   11    1 ar
    11   12   11 1
    12   13   12 1
    13   14   13 1
    14   15   13 1
    15   16   13 1
    16   17   16 1
    17   18   16 1
    18   19   18 ar
    19   20   19 1
    20   21   19 ar
    21   22   21 1
    22   23   21 ar
    23   24   23 ar
    24   25   24 1
    25   26   18 ar
    26   27   26 1
    27   28   16 1
    28   29   30 1
    29   31   29 1
    30   32   29 1
    31   33   23 1
    32   34   12 2
    33   35   33 2
    34   36   33 2
    35   37   28 1
    36   38   28 2
    37    9   11 ar
    38   24   26 ar
    39   29   37 1
@<TRIPOS>SUBSTRUCTURE
     1 RES1 1

@<TRIPOS>CRYSIN
   7.4175   12.6298    7.9091  90.0000 104.4580  90.0000   4 1

