# MOL2 file generated by ConQuest
# Please check atom types

@<TRIPOS>MOLECULE
TAYHUX
    31    34     1
SMALL
USER_CHARGES
****
Generated from CSD

@<TRIPOS>ATOM
      1 N1         4.2624    6.4106    8.4144 N.pl3     1 RES1    0.0000
      2 N2         5.4371    6.9376    8.8775 N.pl3     1 RES1    1.0000
      3 N3         5.7202    6.6228   10.1436 N.2       1 RES1   -1.0000
      4 C1         4.6026    5.8426   10.5009 C.ar      1 RES1    0.0000
      5 C2         4.2817    5.1661   11.6764 C.ar      1 RES1    0.0000
      6 N4         5.1932    5.1592   12.8234 N.pl3     1 RES1    0.0000
      7 O1         6.0945    5.9766   12.8454 O.2       1 RES1    0.0000
      8 O2         4.9673    4.3047   13.6835 O.2       1 RES1    0.0000
      9 C3         3.0941    4.4660   11.7470 C.ar      1 RES1    0.0000
     10 H1         2.8328    4.0222   12.5234 H         1 RES1    0.0000
     11 C4         2.2917    4.4572   10.5935 C.ar      1 RES1    0.0000
     12 N5         1.0463    3.7083   10.6111 N.pl3     1 RES1    0.0000
     13 O3         0.6451    3.2703   11.6985 O.2       1 RES1    0.0000
     14 O4         0.4609    3.5216    9.5701 O.2       1 RES1    0.0000
     15 N6         2.5420    5.0468    9.4135 N.ar      1 RES1    0.0000
     16 C5         3.6911    5.6999    9.4135 C.ar      1 RES1    0.0000
     17 N7         6.0881    7.6885    7.9865 N.2       1 RES1    0.0000
     18 C6         5.2317    7.6279    6.8815 C.ar      1 RES1    0.0000
     19 C7         5.3537    8.2409    5.6287 C.ar      1 RES1    0.0000
     20 N8         6.4899    9.0699    5.2626 N.pl3     1 RES1    0.0000
     21 O5         7.4958    9.0523    5.9463 O.2       1 RES1    0.0000
     22 O6         6.3564    9.7983    4.2700 O.2       1 RES1    0.0000
     23 C8         4.3651    8.0277    4.6825 C.ar      1 RES1    0.0000
     24 H2         4.4203    8.4188    3.8399 H         1 RES1    0.0000
     25 C9         3.2867    7.2221    5.0133 C.ar      1 RES1    0.0000
     26 N9         2.2416    7.0774    3.9943 N.pl3     1 RES1    0.0000
     27 O7         2.2140    7.8742    3.0746 O.2       1 RES1    0.0000
     28 O8         1.4078    6.1936    4.1487 O.2       1 RES1    0.0000
     29 C10        3.1134    6.6062    6.1955 C.ar      1 RES1    0.0000
     30 H3         2.3790    6.0694    6.3830 H         1 RES1    0.0000
     31 C11        4.0955    6.8311    7.0844 C.ar      1 RES1    0.0000
@<TRIPOS>BOND
     1    1    2 1
     2    2    3 1
     3    3    4 1
     4    4    5 ar
     5    5    6 1
     6    6    7 2
     7    8    6 2
     8    9    5 ar
     9   10    9 1
    10   11    9 ar
    11   12   11 1
    12   13   12 2
    13   14   12 2
    14   15   11 ar
    15   16    1 1
    16   17    2 2
    17   18   17 1
    18   19   18 ar
    19   20   19 1
    20   21   20 2
    21   22   20 2
    22   23   19 ar
    23   24   23 1
    24   25   23 ar
    25   26   25 1
    26   27   26 2
    27   28   26 2
    28   29   25 ar
    29   30   29 1
    30   31    1 1
    31    4   16 ar
    32   15   16 ar
    33   18   31 ar
    34   29   31 ar
@<TRIPOS>SUBSTRUCTURE
     1 RES1 1

@<TRIPOS>CRYSIN
   6.4193    9.7768   22.0560  90.0000  90.0000  90.0000  19 1

