# MOL2 file generated by ConQuest
# Please check atom types

@<TRIPOS>MOLECULE
TAYJIN
    68    70     2
SMALL
NO_CHARGES
****
Generated from CSD

@<TRIPOS>ATOM
      1 C1         1.2525    7.3503    3.0213 C.ar      1 RES1    0.0000
      2 C2         0.9723    8.6635    3.4269 C.ar      1 RES1    0.0000
      3 H1         1.5845    9.1535    3.9632 H         1 RES1    0.0000
      4 C3        -0.2357    9.2222    3.0157 C.ar      1 RES1    0.0000
      5 H2        -0.4601   10.1083    3.2734 H         1 RES1    0.0000
      6 C4        -1.1132    8.4814    2.2272 C.ar      1 RES1    0.0000
      7 H3        -1.9481    8.8466    1.9608 H         1 RES1    0.0000
      8 C5        -0.7420    7.1842    1.8339 C.ar      1 RES1    0.0000
      9 C6        -1.6353    6.3279    0.9811 C.3       1 RES1    0.0000
     10 H4        -1.0879    5.8012    0.3611 H         1 RES1    0.0000
     11 H5        -2.2469    6.9003    0.4723 H         1 RES1    0.0000
     12 H6        -2.1529    5.7245    1.5534 H         1 RES1    0.0000
     13 C7         4.1204    6.7503    5.0298 C.3       1 RES1    0.0000
     14 H7         3.5540    6.1641    5.6092 H         1 RES1    0.0000
     15 C8         4.8811    7.7349    5.8963 C.3       1 RES1    0.0000
     16 H8         5.4722    8.2765    5.3337 H         1 RES1    0.0000
     17 H9         5.4156    7.2449    6.5560 H         1 RES1    0.0000
     18 H10        4.2459    8.3200    6.3616 H         1 RES1    0.0000
     19 C9         5.0267    5.8745    4.1501 C.3       1 RES1    0.0000
     20 H11        5.6822    6.4504    3.6808 H         1 RES1    0.0000
     21 H12        5.5299    5.2448    4.7249 H         1 RES1    0.0000
     22 C10        4.2198    5.0834    3.1164 C.3       1 RES1    0.0000
     23 H13        3.7190    4.3575    3.5882 H         1 RES1    0.0000
     24 C11        3.2111    5.9810    2.3835 C.3       1 RES1    0.0000
     25 H14        2.5970    5.3890    1.8612 H         1 RES1    0.0000
     26 C12        3.8256    6.9942    1.4114 C.3       1 RES1    0.0000
     27 H15        3.1205    7.5735    1.0556 H         1 RES1    0.0000
     28 H16        4.2611    6.5168    0.6737 H         1 RES1    0.0000
     29 H17        4.4891    7.5392    1.8844 H         1 RES1    0.0000
     30 C13        3.1914    6.6473    8.7083 C.ar      2 RES2    0.0000
     31 C14        3.4849    5.3616    8.2568 C.ar      2 RES2    0.0000
     32 H18        2.8851    4.8956    7.6857 H         2 RES2    0.0000
     33 C15        4.6737    4.7845    8.6638 C.ar      2 RES2    0.0000
     34 H19        4.9124    3.9178    8.3571 H         2 RES2    0.0000
     35 C16        5.5255    5.4829    9.5294 C.ar      2 RES2    0.0000
     36 H20        6.3407    5.0971    9.8271 H         2 RES2    0.0000
     37 C17        5.1476    6.7595    9.9440 C.ar      2 RES2    0.0000
     38 C18        5.9877    7.5678   10.8843 C.3       2 RES2    0.0000
     39 H21        6.5257    8.2078   10.3734 H         2 RES2    0.0000
     40 H22        6.5799    6.9713   11.3874 H         2 RES2    0.0000
     41 H23        5.4061    8.0532   11.5078 H         2 RES2    0.0000
     42 C19        0.3402    7.2644    6.6836 C.3       2 RES2    0.0000
     43 H24        0.9157    7.8471    6.1092 H         2 RES2    0.0000
     44 C20       -0.4141    6.2821    5.8162 C.3       2 RES2    0.0000
     45 H25        0.2233    5.7325    5.3129 H         2 RES2    0.0000
     46 H26       -0.9876    6.7721    5.1902 H         2 RES2    0.0000
     47 H27       -0.9674    5.7039    6.3824 H         2 RES2    0.0000
     48 C21       -0.5744    8.1414    7.5619 C.3       2 RES2    0.0000
     49 H28       -1.0839    8.7631    6.9843 H         2 RES2    0.0000
     50 H29       -1.2234    7.5644    8.0376 H         2 RES2    0.0000
     51 C22        0.2317    8.9474    8.5874 C.3       2 RES2    0.0000
     52 H30        0.7280    9.6733    8.1117 H         2 RES2    0.0000
     53 C23        1.2439    8.0578    9.3405 C.3       2 RES2    0.0000
     54 H31        1.8656    8.6623    9.8387 H         2 RES2    0.0000
     55 C24        0.6123    7.0995   10.3561 C.3       2 RES2    0.0000
     56 H32        0.0114    6.4813    9.8919 H         2 RES2    0.0000
     57 H33        0.1049    7.6136   11.0193 H         2 RES2    0.0000
     58 H34        1.3183    6.5923   10.8086 H         2 RES2    0.0000
     59 N1         0.4255    6.6301    2.2525 N.ar      1 RES1    0.0000
     60 N2         2.4079    6.6473    3.4479 N.3       1 RES1    0.0000
     61 N3         4.0032    7.3331    9.5303 N.ar      2 RES2    0.0000
     62 N4         2.0396    7.3548    8.2918 N.3       2 RES2    0.0000
     63 O1         3.2667    7.5506    4.1741 O.3       1 RES1    0.0000
     64 O2         5.0983    4.4914    2.1684 O.3       1 RES1    0.0000
     65 H35        4.9660    3.6625    2.1437 H         1 RES1    0.0000
     66 O3         1.1735    6.4618    7.5580 O.3       2 RES2    0.0000
     67 O4        -0.6568    9.5359    9.5299 O.3       2 RES2    0.0000
     68 H36       -0.5055   10.3613    9.5794 H         2 RES2    0.0000
@<TRIPOS>BOND
     1    1    2 ar
     2    2    3 1
     3    4    2 ar
     4    5    4 1
     5    6    4 ar
     6    7    6 1
     7    8    6 ar
     8    9    8 1
     9   10    9 1
    10   11    9 1
    11   12    9 1
    12   13   14 1
    13   15   13 1
    14   16   15 1
    15   17   15 1
    16   18   15 1
    17   19   13 1
    18   20   19 1
    19   21   19 1
    20   22   19 1
    21   23   22 1
    22   24   22 1
    23   25   24 1
    24   26   24 1
    25   27   26 1
    26   28   26 1
    27   29   26 1
    28   30   31 ar
    29   31   32 1
    30   33   31 ar
    31   34   33 1
    32   35   33 ar
    33   36   35 1
    34   37   35 ar
    35   38   37 1
    36   39   38 1
    37   40   38 1
    38   41   38 1
    39   42   43 1
    40   44   42 1
    41   45   44 1
    42   46   44 1
    43   47   44 1
    44   48   42 1
    45   49   48 1
    46   50   48 1
    47   51   48 1
    48   52   51 1
    49   53   51 1
    50   54   53 1
    51   55   53 1
    52   56   55 1
    53   57   55 1
    54   58   55 1
    55   59    1 ar
    56   60    1 1
    57   61   30 ar
    58   62   30 1
    59   63   13 1
    60   64   22 1
    61   65   64 1
    62   66   42 1
    63   67   51 1
    64   68   67 1
    65    8   59 ar
    66   24   60 1
    67   37   61 ar
    68   53   62 1
    69   60   63 1
    70   62   66 1
@<TRIPOS>SUBSTRUCTURE
     1 RES1 1
     2 RES2 30

@<TRIPOS>CRYSIN
   9.2040   11.4490   23.1510  90.0000  90.5790  90.0000  14 1

