# MOL2 file generated by ConQuest
# Please check atom types

@<TRIPOS>MOLECULE
TAYJUA
    98    98     2
SMALL
NO_CHARGES
****
Generated from CSD

@<TRIPOS>ATOM
      1 O1         5.4610    4.1761    1.4880 O.2       1 RES1    0.0000
      2 O2         7.6758    9.9437    2.0057 O.2       1 RES1    0.0000
      3 O3         7.1789    8.5644    0.4619 O.2       1 RES1    0.0000
      4 O4         1.9938    3.3456    2.9769 O.2       1 RES1    0.0000
      5 N1         4.6758    3.7160    3.5307 N.am      1 RES1    0.0000
      6 H1         4.5015    3.9583    4.2758 H         1 RES1    0.0000
      7 N2         7.2603    8.8704    1.6220 N.pl3     1 RES1    0.0000
      8 N3         2.4418    1.6284    1.5897 N.am      1 RES1    0.0000
      9 C1         5.3106    4.4967    2.6593 C.2       1 RES1    0.0000
     10 C2         5.8611    5.7995    3.1644 C.ar      1 RES1    0.0000
     11 C3         6.0114    6.1006    4.5011 C.ar      1 RES1    0.0000
     12 H2         5.7427    5.4859    5.1453 H         1 RES1    0.0000
     13 C4         6.5553    7.3027    4.8891 C.ar      1 RES1    0.0000
     14 H3         6.6460    7.4921    5.7954 H         1 RES1    0.0000
     15 C5         6.9651    8.2263    3.9630 C.ar      1 RES1    0.0000
     16 H4         7.3308    9.0398    4.2250 H         1 RES1    0.0000
     17 C6         6.8172    7.9097    2.6396 C.ar      1 RES1    0.0000
     18 C7         6.2739    6.7178    2.2203 C.ar      1 RES1    0.0000
     19 H5         6.1864    6.5330    1.3130 H         1 RES1    0.0000
     20 C8         4.1884    2.4086    3.1320 C.3       1 RES1    0.0000
     21 H6         4.7929    2.0382    2.4558 H         1 RES1    0.0000
     22 C9         2.7930    2.5099    2.5394 C.2       1 RES1    0.0000
     23 C10        1.0591    1.6314    1.1066 C.3       1 RES1    0.0000
     24 H7         1.0473    1.3815    0.1685 H         1 RES1    0.0000
     25 H8         0.6949    2.5267    1.1826 H         1 RES1    0.0000
     26 C11        0.1953    0.6779    1.8852 C.3       1 RES1    0.0000
     27 H9        -0.7004    0.7028    1.5403 H         1 RES1    0.0000
     28 H10        0.1892    0.9330    2.8103 H         1 RES1    0.0000
     29 H11        0.5458   -0.2122    1.8009 H         1 RES1    0.0000
     30 C12        3.3381    0.6291    1.0094 C.3       1 RES1    0.0000
     31 H12        2.8203   -0.1502    0.7534 H         1 RES1    0.0000
     32 H13        3.9802    0.3524    1.6817 H         1 RES1    0.0000
     33 C13        4.0828    1.1482   -0.2044 C.3       1 RES1    0.0000
     34 H14        4.6525    0.4565   -0.5500 H         1 RES1    0.0000
     35 H15        4.6162    1.9061    0.0477 H         1 RES1    0.0000
     36 H16        3.4524    1.4095   -0.8790 H         1 RES1    0.0000
     37 C14        4.1626    1.4680    4.3373 C.3       1 RES1    0.0000
     38 H17        3.6291    1.8760    5.0372 H         1 RES1    0.0000
     39 H18        3.7242    0.6427    4.0771 H         1 RES1    0.0000
     40 C15        5.5345    1.1322    4.9046 C.3       1 RES1    0.0000
     41 H19        6.0263    1.9681    5.0452 H         1 RES1    0.0000
     42 C16        6.3409    0.2483    3.9468 C.3       1 RES1    0.0000
     43 H20        6.4499    0.7008    3.1075 H         1 RES1    0.0000
     44 H21        5.8746   -0.5786    3.8053 H         1 RES1    0.0000
     45 H22        7.2043    0.0681    4.3267 H         1 RES1    0.0000
     46 C17        5.3708    0.4389    6.2470 C.3       1 RES1    0.0000
     47 H23        4.8866    1.0111    6.8461 H         1 RES1    0.0000
     48 H24        6.2354    0.2483    6.6172 H         1 RES1    0.0000
     49 H25        4.8863   -0.3804    6.1260 H         1 RES1    0.0000
     50 O5         2.3902    7.8449    5.2698 O.2       2 RES2    0.0000
     51 O6         2.5483    6.3014   -1.5854 O.2       2 RES2    0.0000
     52 O7         2.1819    4.7269   -0.1768 O.2       2 RES2    0.0000
     53 O8         3.8366    4.3853    6.3312 O.2       2 RES2    0.0000
     54 N4         2.0544    5.7054    4.7095 N.am      2 RES2    0.0000
     55 H26        2.0854    5.1115    4.1773 H         2 RES2    0.0000
     56 N5         2.4738    5.8757   -0.4432 N.pl3     2 RES2    0.0000
     57 N6         2.8138    5.1011    8.2093 N.am      2 RES2    0.0000
     58 C18        2.3761    6.9635    4.4217 C.2       2 RES2    0.0000
     59 C19        2.7033    7.2807    2.9904 C.ar      2 RES2    0.0000
     60 C20        3.2337    8.5378    2.7144 C.ar      2 RES2    0.0000
     61 H27        3.3991    9.1319    3.4095 H         2 RES2    0.0000
     62 C21        3.5159    8.9092    1.4117 C.ar      2 RES2    0.0000
     63 H28        3.8724    9.7505    1.2398 H         2 RES2    0.0000
     64 C22        3.2735    8.0457    0.3697 C.ar      2 RES2    0.0000
     65 H29        3.4579    8.2929   -0.5086 H         2 RES2    0.0000
     66 C23        2.7541    6.8115    0.6587 C.ar      2 RES2    0.0000
     67 C24        2.4661    6.4037    1.9470 C.ar      2 RES2    0.0000
     68 H30        2.1200    5.5560    2.1093 H         2 RES2    0.0000
     69 C25        1.6488    5.3125    6.0466 C.3       2 RES2    0.0000
     70 H31        1.1975    6.0665    6.4789 H         2 RES2    0.0000
     71 C26        2.8688    4.9145    6.8792 C.2       2 RES2    0.0000
     72 C27        3.9249    4.6508    9.0347 C.3       2 RES2    0.0000
     73 H32        4.0587    5.2837    9.7581 H         2 RES2    0.0000
     74 H33        4.7325    4.6370    8.4976 H         2 RES2    0.0000
     75 C28        3.7012    3.3010    9.6087 C.3       2 RES2    0.0000
     76 H34        4.4567    3.0513   10.1444 H         2 RES2    0.0000
     77 H35        3.5897    2.6649    8.8966 H         2 RES2    0.0000
     78 H36        2.9116    3.3116   10.1539 H         2 RES2    0.0000
     79 C29        1.7047    5.7446    8.9142 C.3       2 RES2    0.0000
     80 H37        1.6049    5.3338    9.7867 H         2 RES2    0.0000
     81 H38        0.8848    5.5900    8.4197 H         2 RES2    0.0000
     82 C30        1.9006    7.2290    9.0894 C.3       2 RES2    0.0000
     83 H39        1.1456    7.6002    9.5515 H         2 RES2    0.0000
     84 H40        1.9834    7.6442    8.2274 H         2 RES2    0.0000
     85 H41        2.6981    7.3880    9.5992 H         2 RES2    0.0000
     86 C31        0.6823    4.1341    5.9642 C.3       2 RES2    0.0000
     87 H42        1.1475    3.3857    5.5570 H         2 RES2    0.0000
     88 H43        0.4446    3.8722    6.8668 H         2 RES2    0.0000
     89 C32       -0.5960    4.3799    5.1876 C.3       2 RES2    0.0000
     90 H44       -0.3433    4.6330    4.2758 H         2 RES2    0.0000
     91 C33       -1.3873    3.0841    5.1024 C.3       2 RES2    0.0000
     92 H45       -2.1994    3.2375    4.6128 H         2 RES2    0.0000
     93 H46       -1.5989    2.7790    5.9878 H         2 RES2    0.0000
     94 H47       -0.8623    2.4186    4.6510 H         2 RES2    0.0000
     95 C34       -1.4185    5.5149    5.7652 C.3       2 RES2    0.0000
     96 H48       -0.8846    6.3108    5.8018 H         2 RES2    0.0000
     97 H49       -1.7065    5.2837    6.6522 H         2 RES2    0.0000
     98 H50       -2.1861    5.6681    5.2105 H         2 RES2    0.0000
@<TRIPOS>BOND
     1    1    9 2
     2    2    7 2
     3    3    7 2
     4    4   22 2
     5    5    6 1
     6    7   17 1
     7    8   22 1
     8    9    5 1
     9   10    9 1
    10   11   10 ar
    11   12   11 1
    12   13   11 ar
    13   14   13 1
    14   15   13 ar
    15   16   15 1
    16   17   15 ar
    17   18   10 ar
    18   19   18 1
    19   20    5 1
    20   21   20 1
    21   22   20 1
    22   23    8 1
    23   24   23 1
    24   25   23 1
    25   26   23 1
    26   27   26 1
    27   28   26 1
    28   29   26 1
    29   30    8 1
    30   31   30 1
    31   32   30 1
    32   33   30 1
    33   34   33 1
    34   35   33 1
    35   36   33 1
    36   37   20 1
    37   38   37 1
    38   39   37 1
    39   40   37 1
    40   41   40 1
    41   42   40 1
    42   43   42 1
    43   44   42 1
    44   45   42 1
    45   46   40 1
    46   47   46 1
    47   48   46 1
    48   49   46 1
    49   50   58 2
    50   51   56 2
    51   52   56 2
    52   53   71 2
    53   54   55 1
    54   56   66 1
    55   57   71 1
    56   58   54 1
    57   59   58 1
    58   60   59 ar
    59   61   60 1
    60   62   60 ar
    61   63   62 1
    62   64   62 ar
    63   65   64 1
    64   66   64 ar
    65   67   59 ar
    66   68   67 1
    67   69   54 1
    68   70   69 1
    69   71   69 1
    70   72   57 1
    71   73   72 1
    72   74   72 1
    73   75   72 1
    74   76   75 1
    75   77   75 1
    76   78   75 1
    77   79   57 1
    78   80   79 1
    79   81   79 1
    80   82   79 1
    81   83   82 1
    82   84   82 1
    83   85   82 1
    84   86   69 1
    85   87   86 1
    86   88   86 1
    87   89   86 1
    88   90   89 1
    89   91   89 1
    90   92   91 1
    91   93   91 1
    92   94   91 1
    93   95   89 1
    94   96   95 1
    95   97   95 1
    96   98   95 1
    97   17   18 ar
    98   66   67 ar
@<TRIPOS>SUBSTRUCTURE
     1 RES1 1
     2 RES2 50

@<TRIPOS>CRYSIN
  12.0999   20.0216   16.0201  90.0000  97.1570  90.0000 231 1

