# MOL2 file generated by ConQuest
# Please check atom types

@<TRIPOS>MOLECULE
TAYKOT
    35    36     1
SMALL
USER_CHARGES
****
Generated from CSD

@<TRIPOS>ATOM
      1 O1         8.1296    9.5890    1.9979 O.3       1 RES1    0.0000
      2 O2         8.4432    9.4297    4.2087 O.2       1 RES1    0.0000
      3 O3         4.6873    9.4863    1.5406 O.2       1 RES1   -1.0000
      4 N1         5.8483    9.5232    2.0060 N.pl3     1 RES1    1.0000
      5 C1         7.6831    9.4903    3.2770 C.2       1 RES1    0.0000
      6 C2         6.2439    9.4666    3.2526 C.2       1 RES1    0.0000
      7 C3         7.0227    9.6508    1.0689 C.3       1 RES1    0.0000
      8 C4         7.0622   11.0009    0.3473 C.3       1 RES1    0.0000
      9 C5         6.0871   11.0180   -0.8235 C.3       1 RES1    0.0000
     10 C6         6.3114    9.8521   -1.7805 C.3       1 RES1    0.0000
     11 C7         6.1598    8.5191   -1.0499 C.3       1 RES1    0.0000
     12 C8         7.1099    8.4586    0.1470 C.3       1 RES1    0.0000
     13 C9         6.9760   12.2326    1.2718 C.3       1 RES1    0.0000
     14 C10        5.5617   12.6445    1.6985 C.3       1 RES1    0.0000
     15 C11        7.6675   13.4222    0.6034 C.3       1 RES1    0.0000
     16 C12        6.4308    7.3322   -1.9898 C.3       1 RES1    0.0000
     17 H1         8.1099   11.0088   -0.0153 H         1 RES1    0.0000
     18 H2         5.5336    9.2495    4.0247 H         1 RES1    0.0000
     19 H3         4.9822   11.1720   -0.6007 H         1 RES1    0.0000
     20 H4         6.2252   11.9971   -1.4621 H         1 RES1    0.0000
     21 H5         5.6281    9.8442   -2.6465 H         1 RES1    0.0000
     22 H6         7.3124    9.7706   -2.3488 H         1 RES1    0.0000
     23 H7         5.1110    8.3494   -0.8515 H         1 RES1    0.0000
     24 H8         8.1784    8.3112   -0.0983 H         1 RES1    0.0000
     25 H9         7.0300    7.5691    0.6882 H         1 RES1    0.0000
     26 H10        7.7714   12.0958    2.0953 H         1 RES1    0.0000
     27 H11        5.1266   11.8747    2.3632 H         1 RES1    0.0000
     28 H12        5.5388   13.5525    2.2469 H         1 RES1    0.0000
     29 H13        4.9096   12.7182    0.8668 H         1 RES1    0.0000
     30 H14        7.7537   14.2617    1.2078 H         1 RES1    0.0000
     31 H15        7.0777   13.7117   -0.2877 H         1 RES1    0.0000
     32 H16        8.6436   13.1643    0.2084 H         1 RES1    0.0000
     33 H17        5.8265    7.4151   -2.8918 H         1 RES1    0.0000
     34 H18        7.4599    7.3572   -2.3208 H         1 RES1    0.0000
     35 H19        6.2377    6.4071   -1.5460 H         1 RES1    0.0000
@<TRIPOS>BOND
     1    1    5 1
     2    2    5 2
     3    3    4 1
     4    4    6 2
     5    5    6 1
     6    6   18 1
     7    7    1 1
     8    8    7 1
     9    9    8 1
    10   10    9 1
    11   11   10 1
    12   12    7 1
    13   13    8 1
    14   14   13 1
    15   15   13 1
    16   16   11 1
    17   17    8 1
    18   19    9 1
    19   20    9 1
    20   21   10 1
    21   22   10 1
    22   23   11 1
    23   24   12 1
    24   25   12 1
    25   26   13 1
    26   27   14 1
    27   28   14 1
    28   29   14 1
    29   30   15 1
    30   31   15 1
    31   32   15 1
    32   33   16 1
    33   34   16 1
    34   35   16 1
    35    4    7 1
    36   11   12 1
@<TRIPOS>SUBSTRUCTURE
     1 RES1 1

@<TRIPOS>CRYSIN
  10.3840   13.1590    9.0200  90.0000  90.0000  90.0000  19 1

