# MOL2 file generated by ConQuest
# Please check atom types

@<TRIPOS>MOLECULE
TAYKAI
    37    38     1
SMALL
NO_CHARGES
****
Generated from CSD

@<TRIPOS>ATOM
      1 O1         8.0287    1.1337    8.9319 O.3       1 RES1    0.0000
      2 H1         7.8168    0.6048    9.5203 H         1 RES1    0.0000
      3 N1         7.2045    0.9344    7.7997 N.2       1 RES1    0.0000
      4 C1         7.3350    1.8699    6.9324 C.2       1 RES1    0.0000
      5 C2         6.5716    1.7144    5.6805 C.ar      1 RES1    0.0000
      6 C3        10.1413    1.8042    6.0713 C.ar      1 RES1    0.0000
      7 H2         9.5508    1.1298    5.8256 H         1 RES1    0.0000
      8 C4         9.6740    2.8874    6.7737 C.ar      1 RES1    0.0000
      9 C5         5.1446    1.3645    3.2320 C.ar      1 RES1    0.0000
     10 C6         6.7061    2.5881    4.6235 C.ar      1 RES1    0.0000
     11 H3         7.2724    3.3198    4.7163 H         1 RES1    0.0000
     12 C7         8.2181    3.0610    7.1640 C.3       1 RES1    0.0000
     13 H4         8.1790    3.2912    8.1051 H         1 RES1    0.0000
     14 H5         7.8554    3.8106    6.6666 H         1 RES1    0.0000
     15 C8         4.9963    0.4852    4.3045 C.ar      1 RES1    0.0000
     16 H6         4.4143   -0.2358    4.2261 H         1 RES1    0.0000
     17 N2         4.4707    1.1798    2.0445 N.3       1 RES1    0.0000
     18 C9         5.6946    0.6637    5.4775 C.ar      1 RES1    0.0000
     19 H7         5.5707    0.0500    6.1656 H         1 RES1    0.0000
     20 C10        6.0247    2.4146    3.4245 C.ar      1 RES1    0.0000
     21 H8         6.1633    3.0211    2.7339 H         1 RES1    0.0000
     22 C11       11.4741    1.6987    5.7229 C.ar      1 RES1    0.0000
     23 H9        11.7681    0.9608    5.2388 H         1 RES1    0.0000
     24 C12       10.5837    3.8544    7.1305 C.ar      1 RES1    0.0000
     25 H10       10.2956    4.5956    7.6131 H         1 RES1    0.0000
     26 C13       11.9187    3.7477    6.7857 C.ar      1 RES1    0.0000
     27 H11       12.5169    4.4154    7.0334 H         1 RES1    0.0000
     28 C14        4.8104    1.9396    0.8799 C.3       1 RES1    0.0000
     29 H12        4.6045    2.8650    1.0306 H         1 RES1    0.0000
     30 H13        4.3057    1.6178    0.1288 H         1 RES1    0.0000
     31 H14        5.7482    1.8452    0.6978 H         1 RES1    0.0000
     32 C15        3.4948    0.1381    1.9245 C.3       1 RES1    0.0000
     33 H15        3.9351   -0.7154    1.9431 H         1 RES1    0.0000
     34 H16        3.0213    0.2370    1.0950 H         1 RES1    0.0000
     35 H17        2.8757    0.1943    2.6552 H         1 RES1    0.0000
     36 C16       12.3603    2.6645    6.0838 C.ar      1 RES1    0.0000
     37 H18       13.2579    2.5881    5.8543 H         1 RES1    0.0000
@<TRIPOS>BOND
     1    1    2 1
     2    3    1 1
     3    4    3 2
     4    5    4 1
     5    6    7 1
     6    8    6 ar
     7    9   15 ar
     8   10    5 ar
     9   11   10 1
    10   12    4 1
    11   13   12 1
    12   14   12 1
    13   15   16 1
    14   17    9 1
    15   18    5 ar
    16   19   18 1
    17   20    9 ar
    18   21   20 1
    19   22    6 ar
    20   23   22 1
    21   24    8 ar
    22   25   24 1
    23   26   24 ar
    24   27   26 1
    25   28   17 1
    26   29   28 1
    27   30   28 1
    28   31   28 1
    29   32   17 1
    30   33   32 1
    31   34   32 1
    32   35   32 1
    33   36   22 ar
    34   37   36 1
    35    8   12 1
    36   10   20 ar
    37   15   18 ar
    38   26   36 ar
@<TRIPOS>SUBSTRUCTURE
     1 RES1 1

@<TRIPOS>CRYSIN
  14.3610    5.6154   17.9010  90.0000  91.8140  90.0000 231 1

