# MOL2 file generated by ConQuest
# Please check atom types

@<TRIPOS>MOLECULE
TAYRUJ
    45    47     1
SMALL
NO_CHARGES
****
Generated from CSD

@<TRIPOS>ATOM
      1 O1         3.8430    4.2165    9.4578 O.3       1 RES1    0.0000
      2 O2         2.8396    2.6825   10.7625 O.2       1 RES1    0.0000
      3 C1         3.1897    3.0677    9.6854 C.2       1 RES1    0.0000
      4 O3         1.5079    1.5019    4.4802 O.2       1 RES1    0.0000
      5 N1         1.1706    2.3775    5.2515 N.pl3     1 RES1    0.0000
      6 O4         0.7513    3.4816    4.9110 O.2       1 RES1    0.0000
      7 C2         1.9412    3.2239    7.4821 C.3       1 RES1    0.0000
      8 H1         2.4594    3.7686    6.8218 H         1 RES1    0.0000
      9 N2         2.3057    1.0823    8.4791 N.3       1 RES1    0.0000
     10 C3         2.9322    2.3905    8.3519 C.3       1 RES1    0.0000
     11 H2         3.7980    2.2938    7.8613 H         1 RES1    0.0000
     12 C4         0.8141   -0.3716    7.1213 C.ar      1 RES1    0.0000
     13 C5         0.8071   -1.3022    6.0902 C.ar      1 RES1    0.0000
     14 H3         1.4791   -1.2746    5.4209 H         1 RES1    0.0000
     15 C6        -0.1863   -2.2763    6.0391 C.ar      1 RES1    0.0000
     16 H4        -0.1950   -2.9012    5.3244 H         1 RES1    0.0000
     17 C7         1.0342    4.1378    8.2800 C.ar      1 RES1    0.0000
     18 C8         3.9440    5.1178   10.5870 C.3       1 RES1    0.0000
     19 H5         4.3709    4.6539   11.3384 H         1 RES1    0.0000
     20 H6         3.0476    5.4121   10.8518 H         1 RES1    0.0000
     21 H7         4.4831    5.8970   10.3363 H         1 RES1    0.0000
     22 C9        -1.1317   -1.4521    8.0665 C.ar      1 RES1    0.0000
     23 H8        -1.7808   -1.5142    8.7583 H         1 RES1    0.0000
     24 C10        1.8096    0.7704    7.1285 C.3       1 RES1    0.0000
     25 H9         2.5759    0.5613    6.5209 H         1 RES1    0.0000
     26 C11        3.2288    0.0652    8.9740 C.3       1 RES1    0.0000
     27 H10        3.9864   -0.0157    8.3580 H         1 RES1    0.0000
     28 H11        2.7644   -0.7953    9.0348 H         1 RES1    0.0000
     29 H12        3.5551    0.3240    9.8612 H         1 RES1    0.0000
     30 C12        0.1259    3.6212    9.2059 C.ar      1 RES1    0.0000
     31 H13        0.0523    2.6807    9.3170 H         1 RES1    0.0000
     32 C13        1.1778    2.1071    6.7338 C.3       1 RES1    0.0000
     33 H14        0.2309    2.1093    7.0550 H         1 RES1    0.0000
     34 C14       -0.1590   -0.4626    8.1172 C.ar      1 RES1    0.0000
     35 H15       -0.1558    0.1586    8.8361 H         1 RES1    0.0000
     36 C15       -1.1600   -2.3443    7.0154 C.ar      1 RES1    0.0000
     37 H16       -1.8440   -3.0014    6.9643 H         1 RES1    0.0000
     38 C16        1.1328    5.5144    8.1340 C.ar      1 RES1    0.0000
     39 H17        1.7449    5.8902    7.5129 H         1 RES1    0.0000
     40 C17       -0.6709    4.4638    9.9670 C.ar      1 RES1    0.0000
     41 H18       -1.2831    4.0982   10.5941 H         1 RES1    0.0000
     42 C18        0.3082    6.3492    8.9224 C.ar      1 RES1    0.0000
     43 H19        0.3714    7.2919    8.8303 H         1 RES1    0.0000
     44 C19       -0.5794    5.8216    9.8180 C.ar      1 RES1    0.0000
     45 H20       -1.1328    6.3953   10.3349 H         1 RES1    0.0000
@<TRIPOS>BOND
     1    1    3 1
     2    2    3 2
     3    3   10 1
     4    4    5 2
     5    5    6 2
     6    7    8 1
     7    9   10 1
     8   10    7 1
     9   11   10 1
    10   12   13 ar
    11   13   14 1
    12   15   13 ar
    13   16   15 1
    14   17    7 1
    15   18    1 1
    16   19   18 1
    17   20   18 1
    18   21   18 1
    19   22   23 1
    20   24    9 1
    21   25   24 1
    22   26    9 1
    23   27   26 1
    24   28   26 1
    25   29   26 1
    26   30   17 ar
    27   31   30 1
    28   32    5 1
    29   33   32 1
    30   34   12 ar
    31   35   34 1
    32   36   15 ar
    33   37   36 1
    34   38   17 ar
    35   39   38 1
    36   40   30 ar
    37   41   40 1
    38   42   38 ar
    39   43   42 1
    40   44   40 ar
    41   45   44 1
    42    7   32 1
    43   12   24 1
    44   22   34 ar
    45   22   36 ar
    46   24   32 1
    47   42   44 ar
@<TRIPOS>SUBSTRUCTURE
     1 RES1 1

@<TRIPOS>CRYSIN
  10.8919   11.2495   14.3980  90.0000  90.0000  90.0000  19 1

