# MOL2 file generated by ConQuest
# Please check atom types

@<TRIPOS>MOLECULE
TAYROD
    51    53     1
SMALL
NO_CHARGES
****
Generated from CSD

@<TRIPOS>ATOM
      1 O1        -0.4138    1.5558    7.3623 O.2       1 RES1    0.0000
      2 O2         1.4166    0.5946    8.2786 O.3       1 RES1    0.0000
      3 O3         2.5818    1.2958    2.4255 O.2       1 RES1    0.0000
      4 O4         1.8747    3.2886    2.8295 O.2       1 RES1    0.0000
      5 N1        -0.2033   -0.0719    5.1555 N.3       1 RES1    0.0000
      6 N2         1.9507    2.1045    3.0954 N.pl3     1 RES1    0.0000
      7 C1         0.9595    0.0642    6.0608 C.3       1 RES1    0.0000
      8 H1         1.2808   -0.8449    6.3256 H         1 RES1    0.0000
      9 C2         2.0676    0.7812    5.2225 C.3       1 RES1    0.0000
     10 H2         2.5138    0.0784    4.6677 H         1 RES1    0.0000
     11 C3         1.1992    1.6071    4.2792 C.3       1 RES1    0.0000
     12 H3         0.7814    2.3709    4.7719 H         1 RES1    0.0000
     13 C4         0.1226    0.5769    3.8766 C.3       1 RES1    0.0000
     14 H4         0.5534   -0.1052    3.2861 H         1 RES1    0.0000
     15 C5         0.5552    0.8390    7.3068 C.2       1 RES1    0.0000
     16 C6         1.2600    1.1823    9.6332 C.3       1 RES1    0.0000
     17 C7         0.0234    0.5818   10.2662 C.3       1 RES1    0.0000
     18 H5        -0.7715    0.8806    9.7775 H         1 RES1    0.0000
     19 H6        -0.0388    0.8707   11.1995 H         1 RES1    0.0000
     20 H7         0.0802   -0.3961   10.2303 H         1 RES1    0.0000
     21 C8         2.5255    0.7138   10.3219 C.3       1 RES1    0.0000
     22 H8         2.5390   -0.2661   10.3493 H         1 RES1    0.0000
     23 H9         2.5498    1.0663   11.2357 H         1 RES1    0.0000
     24 H10        3.3060    1.0375    9.8264 H         1 RES1    0.0000
     25 C9         1.2222    2.6955    9.5641 C.3       1 RES1    0.0000
     26 H11        2.0207    3.0222    9.0995 H         1 RES1    0.0000
     27 H12        1.1987    3.0639   10.4726 H         1 RES1    0.0000
     28 H13        0.4209    2.9805    9.0761 H         1 RES1    0.0000
     29 C10        3.1569    1.4878    5.9998 C.ar      1 RES1    0.0000
     30 C11        4.2458    0.7407    6.4347 C.ar      1 RES1    0.0000
     31 H14        4.2857   -0.1867    6.2321 H         1 RES1    0.0000
     32 C12        5.2736    1.3215    7.1582 C.ar      1 RES1    0.0000
     33 H15        6.0063    0.7943    7.4522 H         1 RES1    0.0000
     34 C13        5.2293    2.6773    7.4513 C.ar      1 RES1    0.0000
     35 H16        5.9378    3.0857    7.9347 H         1 RES1    0.0000
     36 C14        4.1487    3.4292    7.0345 C.ar      1 RES1    0.0000
     37 H17        4.1118    4.3555    7.2417 H         1 RES1    0.0000
     38 C15        3.1104    2.8410    6.3139 C.ar      1 RES1    0.0000
     39 H18        2.3695    3.3667    6.0366 H         1 RES1    0.0000
     40 C16       -1.0616    1.1452    3.1426 C.ar      1 RES1    0.0000
     41 C17       -1.0329    1.2013    1.7502 C.ar      1 RES1    0.0000
     42 H19       -0.2749    0.8717    1.2817 H         1 RES1    0.0000
     43 C18       -2.0982    1.7345    1.0413 C.ar      1 RES1    0.0000
     44 H20       -2.0622    1.7752    0.0935 H         1 RES1    0.0000
     45 C19       -3.2069    2.2041    1.7049 C.ar      1 RES1    0.0000
     46 H21       -3.9414    2.5585    1.2158 H         1 RES1    0.0000
     47 C20       -3.2492    2.1601    3.0780 C.ar      1 RES1    0.0000
     48 H22       -4.0144    2.4850    3.5369 H         1 RES1    0.0000
     49 C21       -2.1794    1.6426    3.7969 C.ar      1 RES1    0.0000
     50 H23       -2.2136    1.6292    4.7464 H         1 RES1    0.0000
     51 H24       -0.9374    0.4170    5.5944 H         1 RES1    0.0000
@<TRIPOS>BOND
     1    1   15 2
     2    2   15 1
     3    3    6 2
     4    4    6 2
     5    5    7 1
     6    6   11 1
     7    7    8 1
     8    9    7 1
     9   10    9 1
    10   11    9 1
    11   12   11 1
    12   13    5 1
    13   14   13 1
    14   15    7 1
    15   16    2 1
    16   17   16 1
    17   18   17 1
    18   19   17 1
    19   20   17 1
    20   21   16 1
    21   22   21 1
    22   23   21 1
    23   24   21 1
    24   25   16 1
    25   26   25 1
    26   27   25 1
    27   28   25 1
    28   29    9 1
    29   30   29 ar
    30   31   30 1
    31   32   30 ar
    32   33   32 1
    33   34   32 ar
    34   35   34 1
    35   36   34 ar
    36   37   36 1
    37   38   29 ar
    38   39   38 1
    39   40   13 1
    40   41   40 ar
    41   42   41 1
    42   43   41 ar
    43   44   43 1
    44   45   43 ar
    45   46   45 1
    46   47   45 ar
    47   48   47 1
    48   49   40 ar
    49   50   49 1
    50   51    5 1
    51   11   13 1
    52   36   38 ar
    53   47   49 ar
@<TRIPOS>SUBSTRUCTURE
     1 RES1 1

@<TRIPOS>CRYSIN
   9.0131    9.9283   21.2555  90.0000  90.0000  90.0000  19 1

