# MOL2 file generated by ConQuest
# Please check atom types

@<TRIPOS>MOLECULE
TAYSAQ
    54    56     1
SMALL
NO_CHARGES
****
Generated from CSD

@<TRIPOS>ATOM
      1 O1         2.9994    6.6906    1.4767 O.2       1 RES1    0.0000
      2 O2         1.4072    6.9645   -0.1032 O.3       1 RES1    0.0000
      3 O3         0.1483    5.9162    6.6784 O.2       1 RES1    0.0000
      4 O4         1.9808    5.5803    5.5856 O.2       1 RES1    0.0000
      5 N1         0.6036    5.0012    2.3717 N.3       1 RES1    0.0000
      6 N2         0.7916    5.8768    5.6436 N.pl3     1 RES1    0.0000
      7 C1         1.8485    6.7101    1.1245 C.2       1 RES1    0.0000
      8 C2         0.6746    6.4329    2.0591 C.3       1 RES1    0.0000
      9 H1        -0.1842    6.7585    1.6631 H         1 RES1    0.0000
     10 C3         0.0990    4.2013    1.2496 C.3       1 RES1    0.0000
     11 H2         0.0979    3.2532    1.4987 H         1 RES1    0.0000
     12 H3         0.6762    4.3338    0.4690 H         1 RES1    0.0000
     13 H4        -0.8141    4.4830    1.0323 H         1 RES1    0.0000
     14 C4         0.9200    7.0596    3.4344 C.3       1 RES1    0.0000
     15 H5         1.8779    6.8990    3.6716 H         1 RES1    0.0000
     16 C5         0.0592    6.1838    4.3649 C.3       1 RES1    0.0000
     17 H6        -0.7904    6.6658    4.5790 H         1 RES1    0.0000
     18 C6        -0.2728    4.8971    3.5467 C.3       1 RES1    0.0000
     19 H7        -1.2190    4.9711    3.2306 H         1 RES1    0.0000
     20 C7         2.3448    7.2814   -1.2109 C.3       1 RES1    0.0000
     21 C8         3.2848    6.1139   -1.4532 C.3       1 RES1    0.0000
     22 H8         3.9541    6.0792   -0.7379 H         1 RES1    0.0000
     23 H9         3.7348    6.2298   -2.3156 H         1 RES1    0.0000
     24 H10        2.7726    5.2782   -1.4618 H         1 RES1    0.0000
     25 C9         1.3951    7.4552   -2.3796 C.3       1 RES1    0.0000
     26 H11        0.9100    6.6180   -2.5335 H         1 RES1    0.0000
     27 H12        1.9052    7.6899   -3.1822 H         1 RES1    0.0000
     28 H13        0.7563    8.1708   -2.1780 H         1 RES1    0.0000
     29 C10        3.0792    8.5590   -0.8934 C.3       1 RES1    0.0000
     30 H14        2.4344    9.2542   -0.6436 H         1 RES1    0.0000
     31 H15        3.5841    8.8501   -1.6822 H         1 RES1    0.0000
     32 H16        3.6977    8.4054   -0.1491 H         1 RES1    0.0000
     33 C11        0.6591    8.5401    3.5709 C.ar      1 RES1    0.0000
     34 C12       -0.5296    9.1253    3.1416 C.ar      1 RES1    0.0000
     35 H17       -1.1803    8.6010    2.6890 H         1 RES1    0.0000
     36 C13       -0.7654   10.4740    3.3734 C.ar      1 RES1    0.0000
     37 H18       -1.5782   10.8678    3.0803 H         1 RES1    0.0000
     38 C14        0.1761   11.2503    4.0322 C.ar      1 RES1    0.0000
     39 H19        0.0049   12.1700    4.1979 H         1 RES1    0.0000
     40 C15        1.3557   10.6847    4.4420 C.ar      1 RES1    0.0000
     41 H20        2.0081   11.2140    4.8848 H         1 RES1    0.0000
     42 C16        1.5968    9.3376    4.2090 C.ar      1 RES1    0.0000
     43 H21        2.4192    8.9558    4.4923 H         1 RES1    0.0000
     44 C17       -0.1320    3.5802    4.2827 C.ar      1 RES1    0.0000
     45 C18       -1.1656    3.1552    5.1165 C.ar      1 RES1    0.0000
     46 H22       -1.9339    3.7008    5.2327 H         1 RES1    0.0000
     47 C19       -1.0765    1.9393    5.7765 C.ar      1 RES1    0.0000
     48 H23       -1.7787    1.6628    6.3530 H         1 RES1    0.0000
     49 C20        0.0302    1.1234    5.6005 C.ar      1 RES1    0.0000
     50 H24        0.0744    0.2767    6.0293 H         1 RES1    0.0000
     51 C21        1.0739    1.5562    4.7908 C.ar      1 RES1    0.0000
     52 H25        1.8426    1.0096    4.6784 H         1 RES1    0.0000
     53 C22        0.9995    2.7850    4.1440 C.ar      1 RES1    0.0000
     54 H26        1.7242    3.0823    3.6053 H         1 RES1    0.0000
@<TRIPOS>BOND
     1    1    7 2
     2    2    7 1
     3    3    6 2
     4    4    6 2
     5    5    8 1
     6    6   16 1
     7    7    8 1
     8    8    9 1
     9   10    5 1
    10   11   10 1
    11   12   10 1
    12   13   10 1
    13   14    8 1
    14   15   14 1
    15   16   14 1
    16   17   16 1
    17   18    5 1
    18   19   18 1
    19   20    2 1
    20   21   20 1
    21   22   21 1
    22   23   21 1
    23   24   21 1
    24   25   20 1
    25   26   25 1
    26   27   25 1
    27   28   25 1
    28   29   20 1
    29   30   29 1
    30   31   29 1
    31   32   29 1
    32   33   14 1
    33   34   33 ar
    34   35   34 1
    35   36   34 ar
    36   37   36 1
    37   38   36 ar
    38   39   38 1
    39   40   38 ar
    40   41   40 1
    41   42   33 ar
    42   43   42 1
    43   44   18 1
    44   45   44 ar
    45   46   45 1
    46   47   45 ar
    47   48   47 1
    48   49   47 ar
    49   50   49 1
    50   51   49 ar
    51   52   51 1
    52   53   44 ar
    53   54   53 1
    54   16   18 1
    55   40   42 ar
    56   51   53 ar
@<TRIPOS>SUBSTRUCTURE
     1 RES1 1

@<TRIPOS>CRYSIN
   5.6696   14.4846   12.9286  90.0000  99.6900  90.0000   4 1

