# MOL2 file generated by ConQuest
# Please check atom types

@<TRIPOS>MOLECULE
TAYTIY
    58    61     1
SMALL
NO_CHARGES
****
Generated from CSD

@<TRIPOS>ATOM
      1 O1         4.2307    5.6027   10.1823 O.3       1 RES1    0.0000
      2 O2         2.6518    4.5278   11.3650 O.2       1 RES1    0.0000
      3 O3         8.2474    3.3006    8.8791 O.2       1 RES1    0.0000
      4 O4         8.8707    1.5040    9.9200 O.2       1 RES1    0.0000
      5 O5         5.7141   -0.7323   12.8307 O.2       1 RES1    0.0000
      6 O6         3.8067    0.2099   13.2606 O.2       1 RES1    0.0000
      7 N1         8.0765    2.4143    9.7018 N.pl3     1 RES1    0.0000
      8 N2         4.9044    0.1871   12.7378 N.pl3     1 RES1    0.0000
      9 C1         2.0521   10.1586    7.6723 C.3       1 RES1    0.0000
     10 C2         1.4040    9.4306    6.5196 C.3       1 RES1    0.0000
     11 C3         2.1053    8.0345    6.4135 C.3       1 RES1    0.0000
     12 C4         2.8988    7.8762    7.7416 C.3       1 RES1    0.0000
     13 C5         4.4050    8.0609    7.4801 C.3       1 RES1    0.0000
     14 C6         5.1912    7.9422    8.7975 C.3       1 RES1    0.0000
     15 C7         4.2422    8.0105   10.0051 C.3       1 RES1    0.0000
     16 C8         3.3544    6.7620    9.9190 C.3       1 RES1    0.0000
     17 C9         2.7373    6.5773    8.5294 C.3       1 RES1    0.0000
     18 C10        3.3241    9.2723    9.8552 C.3       1 RES1    0.0000
     19 C11        2.3913    9.0168    8.6373 C.3       1 RES1    0.0000
     20 C12        2.4546    9.5085   11.1108 C.3       1 RES1    0.0000
     21 C13        4.1796   10.5340    9.6658 C.3       1 RES1    0.0000
     22 C14        5.0411    8.0129   11.3159 C.3       1 RES1    0.0000
     23 C15        1.0910    6.9359    6.1163 C.3       1 RES1    0.0000
     24 C16        3.7603    4.5923   10.8921 C.2       1 RES1    0.0000
     25 C17        4.7671    3.4937   11.0323 C.ar      1 RES1    0.0000
     26 C18        5.9840    3.5141   10.3635 C.ar      1 RES1    0.0000
     27 C19        6.8206    2.4275   10.4809 C.ar      1 RES1    0.0000
     28 C20        6.5170    1.3289   11.2665 C.ar      1 RES1    0.0000
     29 C21        5.3009    1.3565   11.9188 C.ar      1 RES1    0.0000
     30 C22        4.4225    2.4107   11.8195 C.ar      1 RES1    0.0000
     31 H1         1.4726   10.8362    8.0822 H         1 RES1    0.0000
     32 H2         2.8833   10.5903    7.3654 H         1 RES1    0.0000
     33 H3         1.5116    9.9163    5.6796 H         1 RES1    0.0000
     34 H4         0.4449    9.2950    6.6827 H         1 RES1    0.0000
     35 H5         2.7359    8.0609    5.6770 H         1 RES1    0.0000
     36 H6         4.5430    8.9484    7.0792 H         1 RES1    0.0000
     37 H7         4.6864    7.3617    6.8481 H         1 RES1    0.0000
     38 H8         5.8622    8.6666    8.8700 H         1 RES1    0.0000
     39 H9         5.6488    7.0726    8.8253 H         1 RES1    0.0000
     40 H10        2.6410    6.8004   10.6082 H         1 RES1    0.0000
     41 H11        1.8037    6.3626    8.6100 H         1 RES1    0.0000
     42 H12        3.1788    5.8385    8.0455 H         1 RES1    0.0000
     43 H13        1.5184    8.7241    9.0065 H         1 RES1    0.0000
     44 H14        1.8414   10.2413   10.9706 H         1 RES1    0.0000
     45 H15        2.9896    9.7364   11.9001 H         1 RES1    0.0000
     46 H16        1.9397    8.7134   11.3198 H         1 RES1    0.0000
     47 H17        3.6162   11.3208    9.6656 H         1 RES1    0.0000
     48 H18        4.8318   10.6119   10.3877 H         1 RES1    0.0000
     49 H19        4.6689   10.4908    8.8411 H         1 RES1    0.0000
     50 H20        4.4549    7.8918   12.0708 H         1 RES1    0.0000
     51 H21        5.5149    8.8513   11.4170 H         1 RES1    0.0000
     52 H22        5.6791    7.2777   11.3330 H         1 RES1    0.0000
     53 H23        1.5298    6.0676    6.1076 H         1 RES1    0.0000
     54 H24        0.4045    6.9179    6.7877 H         1 RES1    0.0000
     55 H25        0.6562    7.0546    5.2595 H         1 RES1    0.0000
     56 H26        6.2283    4.2589    9.8336 H         1 RES1    0.0000
     57 H27        7.1154    0.6093   11.3251 H         1 RES1    0.0000
     58 H28        3.5752    2.3831   12.2572 H         1 RES1    0.0000
@<TRIPOS>BOND
     1    1   16 1
     2    2   24 2
     3    3    7 2
     4    4    7 2
     5    5    8 2
     6    6    8 2
     7    7   27 1
     8    8   29 1
     9    9   10 1
    10   10   11 1
    11   11   12 1
    12   12   13 1
    13   13   14 1
    14   14   15 1
    15   15   16 1
    16   16   17 1
    17   17   12 1
    18   18   15 1
    19   19    9 1
    20   20   18 1
    21   21   18 1
    22   22   15 1
    23   23   11 1
    24   24    1 1
    25   25   24 1
    26   26   25 ar
    27   27   26 ar
    28   28   27 ar
    29   29   28 ar
    30   30   25 ar
    31   31    9 1
    32   32    9 1
    33   33   10 1
    34   34   10 1
    35   35   11 1
    36   36   13 1
    37   37   13 1
    38   38   14 1
    39   39   14 1
    40   40   16 1
    41   41   17 1
    42   42   17 1
    43   43   19 1
    44   44   20 1
    45   45   20 1
    46   46   20 1
    47   47   21 1
    48   48   21 1
    49   49   21 1
    50   50   22 1
    51   51   22 1
    52   52   22 1
    53   53   23 1
    54   54   23 1
    55   55   23 1
    56   56   26 1
    57   57   28 1
    58   58   30 1
    59   12   19 1
    60   18   19 1
    61   29   30 ar
@<TRIPOS>SUBSTRUCTURE
     1 RES1 1

@<TRIPOS>CRYSIN
   6.7304   11.9936   26.2580  90.0000  90.0000  90.0000  19 1

