# MOL2 file generated by ConQuest
# Please check atom types

@<TRIPOS>MOLECULE
TAYVUK
    46    50     1
SMALL
NO_CHARGES
****
Generated from CSD

@<TRIPOS>ATOM
      1 O1        10.3917   10.2820    4.7886 O.3       1 RES1    0.0000
      2 O2         7.1606    9.1478    5.9637 O.3       1 RES1    0.0000
      3 N1        10.1064    9.9158    3.4214 N.3       1 RES1    0.0000
      4 C1        10.1017    9.1342    5.6149 C.3       1 RES1    0.0000
      5 C2         9.1415    8.2773    4.8379 C.3       1 RES1    0.0000
      6 C3         8.8705    9.1300    3.5888 C.3       1 RES1    0.0000
      7 C4        11.2295    9.0390    2.9299 C.3       1 RES1    0.0000
      8 C5        12.5669    9.7138    3.2118 C.3       1 RES1    0.0000
      9 C6        11.0343    8.7701    1.4500 C.ar      1 RES1    0.0000
     10 C7        10.6296    7.4884    1.0430 C.ar      1 RES1    0.0000
     11 C8        10.4722    7.1881   -0.2960 C.ar      1 RES1    0.0000
     12 C9        10.7661    8.1559   -1.2614 C.ar      1 RES1    0.0000
     13 C10       11.1622    9.4450   -0.8580 C.ar      1 RES1    0.0000
     14 C11       11.2874    9.7306    0.4880 C.ar      1 RES1    0.0000
     15 C12        7.6705   10.0476    3.7791 C.ar      1 RES1    0.0000
     16 C13        7.2526   10.9527    2.7537 C.ar      1 RES1    0.0000
     17 C14        6.1522   11.8044    2.9774 C.ar      1 RES1    0.0000
     18 C15        5.5162   11.8033    4.2389 C.ar      1 RES1    0.0000
     19 C16        5.8991   10.9370    5.1991 C.ar      1 RES1    0.0000
     20 C17        6.9445   10.0351    4.9454 C.ar      1 RES1    0.0000
     21 C18        7.8525    7.9561    5.5567 C.3       1 RES1    0.0000
     22 C19        7.8904   10.9966    1.4870 C.ar      1 RES1    0.0000
     23 C20        7.4165   11.8242    0.4757 C.ar      1 RES1    0.0000
     24 C21        6.2962   12.6487    0.7153 C.ar      1 RES1    0.0000
     25 C22        5.6944   12.6560    1.9415 C.ar      1 RES1    0.0000
     26 H1        11.0694    9.0118    6.0905 H         1 RES1    0.0000
     27 H2         9.7548    9.5841    6.4341 H         1 RES1    0.0000
     28 H3         9.4780    7.2540    4.6441 H         1 RES1    0.0000
     29 H4         8.7984    8.6267    2.9123 H         1 RES1    0.0000
     30 H5        11.2911    7.9906    3.4091 H         1 RES1    0.0000
     31 H6        12.6427    9.8907    4.0257 H         1 RES1    0.0000
     32 H7        12.6427   10.4630    2.8206 H         1 RES1    0.0000
     33 H8        13.4389    9.3183    2.8206 H         1 RES1    0.0000
     34 H9        10.5329    6.7026    1.9256 H         1 RES1    0.0000
     35 H10       10.1680    6.3040   -0.5743 H         1 RES1    0.0000
     36 H11       10.7073    7.9519   -2.2058 H         1 RES1    0.0000
     37 H12       11.3357   10.1407   -1.5187 H         1 RES1    0.0000
     38 H13       11.5395   10.6074    0.7576 H         1 RES1    0.0000
     39 H14        4.5845   12.4646    4.3094 H         1 RES1    0.0000
     40 H15        5.2755   10.7486    6.1240 H         1 RES1    0.0000
     41 H16        7.9037    7.2540    6.1240 H         1 RES1    0.0000
     42 H17        7.1085    7.5407    4.9542 H         1 RES1    0.0000
     43 H18        8.6439   10.2244    1.4235 H         1 RES1    0.0000
     44 H19        7.6279   11.5145   -0.5391 H         1 RES1    0.0000
     45 H20        5.7816   13.0484    0.0018 H         1 RES1    0.0000
     46 H21        4.9598   13.1269    2.2322 H         1 RES1    0.0000
@<TRIPOS>BOND
     1    1    3 1
     2    2   20 1
     3    3    6 1
     4    4    1 1
     5    5    4 1
     6    6    5 1
     7    7    3 1
     8    8    7 1
     9    9    7 1
    10   10    9 ar
    11   11   10 ar
    12   12   11 ar
    13   13   12 ar
    14   14    9 ar
    15   15    6 1
    16   16   15 ar
    17   17   16 ar
    18   18   17 ar
    19   19   18 ar
    20   20   15 ar
    21   21    2 1
    22   22   16 ar
    23   23   22 ar
    24   24   23 ar
    25   25   17 ar
    26   26    4 1
    27   27    4 1
    28   28    5 1
    29   29    6 1
    30   30    7 1
    31   31    8 1
    32   32    8 1
    33   33    8 1
    34   34   10 1
    35   35   11 1
    36   36   12 1
    37   37   13 1
    38   38   14 1
    39   39   18 1
    40   40   19 1
    41   41   21 1
    42   42   21 1
    43   43   22 1
    44   44   23 1
    45   45   24 1
    46   46   25 1
    47    5   21 1
    48   13   14 ar
    49   19   20 ar
    50   24   25 ar
@<TRIPOS>SUBSTRUCTURE
     1 RES1 1

@<TRIPOS>CRYSIN
   9.4780   10.4630   17.6180  90.0000  90.0000  90.0000  19 1

