# MOL2 file generated by ConQuest
# Please check atom types

@<TRIPOS>MOLECULE
TAYVUN
    33    36     1
SMALL
NO_CHARGES
****
Generated from CSD

@<TRIPOS>ATOM
      1 O1        -0.1942    5.4694    9.1957 O.2       1 RES1    0.0000
      2 O2        -3.0499    2.1269    7.6328 O.3       1 RES1    0.0000
      3 O3        -6.3253   -2.4794    6.0643 O.2       1 RES1    0.0000
      4 O4        -6.9090   -0.4171    5.9561 O.2       1 RES1    0.0000
      5 N1        -1.2931    0.1978    8.6980 N.2       1 RES1    0.0000
      6 N2        -6.1144   -1.2917    6.2585 N.pl3     1 RES1    0.0000
      7 C1         1.1208    0.9348    9.9297 C.ar      1 RES1    0.0000
      8 H1         0.9438    0.0273    9.8277 H         1 RES1    0.0000
      9 C2         2.2757    1.3444   10.5595 C.ar      1 RES1    0.0000
     10 H2         2.8767    0.7124   10.8829 H         1 RES1    0.0000
     11 C3         2.5448    2.6933   10.7146 C.ar      1 RES1    0.0000
     12 H3         3.3271    2.9637   11.1388 H         1 RES1    0.0000
     13 C4         1.6573    3.6367   10.2413 C.ar      1 RES1    0.0000
     14 H4         1.8425    4.5420   10.3540 H         1 RES1    0.0000
     15 C5         0.4898    3.2475    9.5973 C.ar      1 RES1    0.0000
     16 C6        -0.4371    4.2745    9.0707 C.2       1 RES1    0.0000
     17 C7        -1.6587    3.8357    8.3941 C.2       1 RES1    0.0000
     18 C8        -1.8925    2.5148    8.2755 C.2       1 RES1    0.0000
     19 C9        -3.3624    0.7917    7.5607 C.ar      1 RES1    0.0000
     20 C10       -4.5433    0.4431    6.9606 C.ar      1 RES1    0.0000
     21 H5        -5.1168    1.0877    6.6141 H         1 RES1    0.0000
     22 C11       -4.8514   -0.8982    6.8901 C.ar      1 RES1    0.0000
     23 C12       -4.0298   -1.8767    7.3923 C.ar      1 RES1    0.0000
     24 H6        -4.2646   -2.7738    7.3273 H         1 RES1    0.0000
     25 C13       -2.8481   -1.4996    7.9955 C.ar      1 RES1    0.0000
     26 H7        -2.2834   -2.1510    8.3455 H         1 RES1    0.0000
     27 C14       -2.4917   -0.1613    8.0872 C.ar      1 RES1    0.0000
     28 C15       -1.0204    1.4604    8.7847 C.2       1 RES1    0.0000
     29 C16        0.2186    1.8827    9.4449 C.ar      1 RES1    0.0000
     30 C17       -2.6036    4.8781    7.8643 C.3       1 RES1    0.0000
     31 H8        -2.1702    5.3775    7.1682 H         1 RES1    0.0000
     32 H9        -2.8571    5.4717    8.5748 H         1 RES1    0.0000
     33 H10       -3.3859    4.4494    7.5103 H         1 RES1    0.0000
@<TRIPOS>BOND
     1    1   16 2
     2    2   18 1
     3    3    6 2
     4    4    6 2
     5    5   27 1
     6    6   22 1
     7    7    8 1
     8    9    7 ar
     9   10    9 1
    10   11    9 ar
    11   12   11 1
    12   13   11 ar
    13   14   13 1
    14   15   13 ar
    15   16   15 1
    16   17   16 1
    17   18   17 2
    18   19    2 1
    19   20   19 ar
    20   21   20 1
    21   22   20 ar
    22   23   22 ar
    23   24   23 1
    24   25   23 ar
    25   26   25 1
    26   27   19 ar
    27   28    5 2
    28   29    7 ar
    29   30   17 1
    30   31   30 1
    31   32   30 1
    32   33   30 1
    33   15   29 ar
    34   18   28 1
    35   25   27 ar
    36   28   29 1
@<TRIPOS>SUBSTRUCTURE
     1 RES1 1

@<TRIPOS>CRYSIN
  13.4920   15.1908   13.6607  90.0000 103.9580  90.0000  15 1

