# MOL2 file generated by ConQuest
# Please check atom types

@<TRIPOS>MOLECULE
TAYVOE
    36    36     1
SMALL
NO_CHARGES
****
Generated from CSD

@<TRIPOS>ATOM
      1 O1        -5.6422   -4.2155   -4.1773 O.3       1 RES1    0.0000
      2 O2        -5.0354   -0.9390   -3.0837 O.3       1 RES1    0.0000
      3 O3        -6.9841   -2.8784   -2.8956 O.2       1 RES1    0.0000
      4 O4        -7.5100   -6.8081   -5.4672 O.2       1 RES1    0.0000
      5 N1        -7.0903   -4.7565   -6.2730 N.am      1 RES1    0.0000
      6 N2        -6.6089   -5.2668   -4.0543 N.am      1 RES1    0.0000
      7 C1        -5.9534   -3.1131   -3.4401 C.2       1 RES1    0.0000
      8 C2        -3.7463   -2.8784   -2.2918 C.ar      1 RES1    0.0000
      9 C3        -7.0832   -5.6751   -5.3221 C.2       1 RES1    0.0000
     10 C4        -4.6762   -2.2660   -3.3704 C.3       1 RES1    0.0000
     11 C5        -2.7577   -3.7562   -2.6529 C.ar      1 RES1    0.0000
     12 C6        -6.0322   -6.3385   -3.2125 C.3       1 RES1    0.0000
     13 C7        -3.9397   -2.5722   -0.9636 C.ar      1 RES1    0.0000
     14 C8        -3.1350   -3.1335   -0.0023 C.ar      1 RES1    0.0000
     15 C9        -6.0167   -5.9201   -1.7659 C.3       1 RES1    0.0000
     16 C10       -3.9622   -0.0408   -3.2172 C.3       1 RES1    0.0000
     17 C11       -4.7037   -6.7468   -3.6978 C.1       1 RES1    0.0000
     18 C12       -1.9529   -4.3584   -1.6858 C.ar      1 RES1    0.0000
     19 C13       -2.1276   -4.0011   -0.3773 C.ar      1 RES1    0.0000
     20 C14       -3.6430   -7.0122   -4.1158 C.1       1 RES1    0.0000
     21 H1        -4.2206   -2.3394   -4.2215 H         1 RES1    0.0000
     22 H2        -2.6597   -4.0410   -3.5887 H         1 RES1    0.0000
     23 H3        -6.5945   -7.1286   -3.2822 H         1 RES1    0.0000
     24 H4        -4.6231   -2.0179   -0.7187 H         1 RES1    0.0000
     25 H5        -3.2422   -2.9702    0.9160 H         1 RES1    0.0000
     26 H6        -5.6552   -6.6917   -1.2400 H         1 RES1    0.0000
     27 H7        -6.9057   -5.8037   -1.4757 H         1 RES1    0.0000
     28 H8        -5.4850   -5.2025   -1.6428 H         1 RES1    0.0000
     29 H9        -3.6134   -0.1266   -4.1355 H         1 RES1    0.0000
     30 H10       -3.2360   -0.3236   -2.6436 H         1 RES1    0.0000
     31 H11       -4.2191    0.8033   -3.0523 H         1 RES1    0.0000
     32 H12       -1.2818   -5.0157   -1.9273 H         1 RES1    0.0000
     33 H13       -1.5432   -4.3829    0.2752 H         1 RES1    0.0000
     34 H14       -2.8287   -7.2990   -4.4119 H         1 RES1    0.0000
     35 H15       -7.3923   -5.0321   -7.1495 H         1 RES1    0.0000
     36 H16       -6.8056   -3.9134   -6.0953 H         1 RES1    0.0000
@<TRIPOS>BOND
     1    1    6 1
     2    2   10 1
     3    3    7 2
     4    4    9 2
     5    5    9 1
     6    6    9 1
     7    7    1 1
     8    8   10 1
     9   10    7 1
    10   11    8 ar
    11   12    6 1
    12   13    8 ar
    13   14   13 ar
    14   15   12 1
    15   16    2 1
    16   17   12 1
    17   18   11 ar
    18   19   14 ar
    19   20   17 3
    20   21   10 1
    21   22   11 1
    22   23   12 1
    23   24   13 1
    24   25   14 1
    25   26   15 1
    26   27   15 1
    27   28   15 1
    28   29   16 1
    29   30   16 1
    30   31   16 1
    31   32   18 1
    32   33   19 1
    33   34   20 1
    34   35    5 1
    35   36    5 1
    36   18   19 ar
@<TRIPOS>SUBSTRUCTURE
     1 RES1 1

@<TRIPOS>CRYSIN
  12.2020   10.2070   12.4580  90.0000 111.2600  90.0000   5 1

