# MOL2 file generated by ConQuest
# Please check atom types

@<TRIPOS>MOLECULE
TAYWAU
    34    36     2
SMALL
NO_CHARGES
****
Generated from CSD

@<TRIPOS>ATOM
      1 O1         6.7998   -2.1022   -1.8256 O.2       1 RES1    0.0000
      2 O2         7.7317   -1.2946    2.6798 O.3       1 RES1    0.0000
      3 O3         8.2812    3.4824    6.6280 O.2       1 RES1    0.0000
      4 O4         8.5089    1.8537    7.9945 O.2       1 RES1    0.0000
      5 N1         7.3513    1.4334    2.2032 N.2       1 RES1    0.0000
      6 N2         8.3239    2.2954    6.8667 N.pl3     1 RES1    0.0000
      7 C1         6.7252    2.4240   -0.3643 C.ar      1 RES1    0.0000
      8 H1         6.8385    3.0468    0.3169 H         1 RES1    0.0000
      9 C2         6.3902    2.8476   -1.6393 C.ar      1 RES1    0.0000
     10 H2         6.2829    3.7545   -1.8148 H         1 RES1    0.0000
     11 C3         6.2175    1.9289   -2.6449 C.ar      1 RES1    0.0000
     12 H3         5.9870    2.2173   -3.4990 H         1 RES1    0.0000
     13 C4         6.3799    0.5975   -2.4012 C.ar      1 RES1    0.0000
     14 H4         6.2547   -0.0139   -3.0907 H         1 RES1    0.0000
     15 C5         6.9457   -1.3004   -0.9082 C.2       1 RES1    0.0000
     16 C6         7.3317   -1.7551    0.4300 C.2       1 RES1    0.0000
     17 C7         8.1428   -0.8894    4.9687 C.ar      1 RES1    0.0000
     18 H5         8.2448   -1.8025    5.1092 H         1 RES1    0.0000
     19 C8         8.2909    0.0046    6.0067 C.ar      1 RES1    0.0000
     20 H6         8.4882   -0.2991    6.8642 H         1 RES1    0.0000
     21 C9         8.1457    1.3490    5.7613 C.ar      1 RES1    0.0000
     22 C10        7.8413    1.8501    4.5154 C.ar      1 RES1    0.0000
     23 H7         7.7570    2.7662    4.3807 H         1 RES1    0.0000
     24 C11        7.5742   -3.2119    0.6421 C.3       1 RES1    0.0000
     25 H8         8.0962   -3.3367    1.4380 H         1 RES1    0.0000
     26 H9         8.0474   -3.5710   -0.1115 H         1 RES1    0.0000
     27 H10        6.7329   -3.6651    0.7377 H         1 RES1    0.0000
     28 C12        6.7293    0.1425   -1.1345 C.ar      1 RES1    0.0000
     29 C13        7.4277   -0.8356    1.4156 C.2       1 RES1    0.0000
     30 C14        7.8369   -0.3969    3.7053 C.ar      1 RES1    0.0000
     31 C15        7.6626    0.9574    3.4633 C.ar      1 RES1    0.0000
     32 C16        7.2342    0.5936    1.2401 C.2       1 RES1    0.0000
     33 C17        6.8930    1.0687   -0.1006 C.ar      1 RES1    0.0000
     34 H11        7.2382    2.2743    2.0677 Du        2 SUP2    0.0000
@<TRIPOS>BOND
     1    1   15 2
     2    2   29 1
     3    3    6 2
     4    4    6 2
     5    5   31 1
     6    6   21 1
     7    7    8 1
     8    9    7 ar
     9   10    9 1
    10   11    9 ar
    11   12   11 1
    12   13   11 ar
    13   14   13 1
    14   15   16 1
    15   16   24 1
    16   17   18 1
    17   19   17 ar
    18   20   19 1
    19   21   19 ar
    20   22   21 ar
    21   23   22 1
    22   24   25 1
    23   26   24 1
    24   27   24 1
    25   28   13 ar
    26   29   16 2
    27   30    2 1
    28   31   22 ar
    29   32    5 2
    30   33    7 ar
    31   15   28 1
    32   17   30 ar
    33   28   33 ar
    34   29   32 1
    35   30   31 ar
    36   32   33 1
@<TRIPOS>SUBSTRUCTURE
     1 RES1 1
     2 SUP2 34

@<TRIPOS>CRYSIN
  10.5028   15.4190    8.4959  90.0000 101.7730  90.0000  14 1

