# MOL2 file generated by ConQuest
# Please check atom types

@<TRIPOS>MOLECULE
TAYXOG
    58    61     1
SMALL
NO_CHARGES
****
Generated from CSD

@<TRIPOS>ATOM
      1 O1         1.5685    7.0973    9.2539 O.2       1 RES1    0.0000
      2 N1         1.5188    6.0636    9.9677 N.pl3     1 RES1    0.0000
      3 C1         1.4935    4.7014    9.3601 C.3       1 RES1    0.0000
      4 C2         0.4486    4.6855    8.2342 C.3       1 RES1    0.0000
      5 C3         0.9730    3.8803    7.0594 C.3       1 RES1    0.0000
      6 C4         2.2881    4.5377    6.5984 C.3       1 RES1    0.0000
      7 C5         2.9655    3.6116    7.6138 C.3       1 RES1    0.0000
      8 C6         2.9242    4.2957    8.9586 C.3       1 RES1    0.0000
      9 C7         1.7974    2.6219    7.4269 C.3       1 RES1    0.0000
     10 C8         1.9995    1.7080    6.1990 C.3       1 RES1    0.0000
     11 C9         1.4078    1.7312    8.5889 C.3       1 RES1    0.0000
     12 C10       -0.9117    4.2334    8.7440 C.3       1 RES1    0.0000
     13 H1         1.1919    4.0746   10.0505 H         1 RES1    0.0000
     14 H2         0.3460    5.6091    7.9261 H         1 RES1    0.0000
     15 H3         0.3200    3.7386    6.3435 H         1 RES1    0.0000
     16 H4         2.5223    4.3593    5.6743 H         1 RES1    0.0000
     17 H5         2.3585    5.4821    6.8066 H         1 RES1    0.0000
     18 H6         3.8451    3.2719    7.3462 H         1 RES1    0.0000
     19 H7         3.4838    5.0875    8.9289 H         1 RES1    0.0000
     20 H8         3.2871    3.6983    9.6299 H         1 RES1    0.0000
     21 H9         2.2483    2.2419    5.4406 H         1 RES1    0.0000
     22 H10        1.1819    1.2425    6.0078 H         1 RES1    0.0000
     23 H11        2.6946    1.0727    6.3838 H         1 RES1    0.0000
     24 H12        0.6721    1.1717    8.3298 H         1 RES1    0.0000
     25 H13        1.1498    2.2762    9.3367 H         1 RES1    0.0000
     26 H14        2.1556    1.1827    8.8354 H         1 RES1    0.0000
     27 H15       -1.1758    4.7869    9.4833 H         1 RES1    0.0000
     28 H16       -0.8589    3.3195    9.0329 H         1 RES1    0.0000
     29 H17       -1.5593    4.3104    8.0409 H         1 RES1    0.0000
     30 N1B        1.5188    6.1541   11.2763 N.pl3     1 RES1    0.0000
     31 O1B        1.5685    5.1204   11.9901 O.2       1 RES1    0.0000
     32 C1B        1.4935    7.5163   11.8839 C.3       1 RES1    0.0000
     33 C2B        0.4486    7.5322   13.0098 C.3       1 RES1    0.0000
     34 C3B        0.9730    8.3374   14.1846 C.3       1 RES1    0.0000
     35 C4B        2.2881    7.6800   14.6456 C.3       1 RES1    0.0000
     36 C5B        2.9655    8.6061   13.6302 C.3       1 RES1    0.0000
     37 C6B        2.9242    7.9220   12.2854 C.3       1 RES1    0.0000
     38 H1B        1.1919    8.1431   11.1935 H         1 RES1    0.0000
     39 H7B        3.4838    7.1302   12.3151 H         1 RES1    0.0000
     40 H8B        3.2871    8.5194   11.6141 H         1 RES1    0.0000
     41 C7B        1.7974    9.5958   13.8171 C.3       1 RES1    0.0000
     42 H3B        0.3200    8.4791   14.9005 H         1 RES1    0.0000
     43 C8B        1.9995   10.5097   15.0450 C.3       1 RES1    0.0000
     44 H9B        2.2483    9.9758   15.8034 H         1 RES1    0.0000
     45 H10B       1.1819   10.9752   15.2362 H         1 RES1    0.0000
     46 H11B       2.6946   11.1450   14.8602 H         1 RES1    0.0000
     47 C9B        1.4078   10.4865   12.6551 C.3       1 RES1    0.0000
     48 H12B       0.6721   11.0460   12.9142 H         1 RES1    0.0000
     49 H13B       1.1498    9.9415   11.9073 H         1 RES1    0.0000
     50 H14B       2.1556   11.0350   12.4086 H         1 RES1    0.0000
     51 H6B        3.8451    8.9458   13.8978 H         1 RES1    0.0000
     52 H4B        2.5223    7.8584   15.5697 H         1 RES1    0.0000
     53 H5B        2.3585    6.7356   14.4374 H         1 RES1    0.0000
     54 C10B      -0.9117    7.9843   12.5000 C.3       1 RES1    0.0000
     55 H15B      -1.1758    7.4308   11.7607 H         1 RES1    0.0000
     56 H16B      -0.8589    8.8982   12.2111 H         1 RES1    0.0000
     57 H17B      -1.5593    7.9073   13.2031 H         1 RES1    0.0000
     58 H2B        0.3460    6.6086   13.3179 H         1 RES1    0.0000
@<TRIPOS>BOND
     1    1    2 1
     2    2    3 1
     3    3    4 1
     4    4    5 1
     5    5    6 1
     6    6    7 1
     7    7    8 1
     8    8    3 1
     9    9    5 1
    10   10    9 1
    11   11    9 1
    12   12    4 1
    13   13    3 1
    14   14    4 1
    15   15    5 1
    16   16    6 1
    17   17    6 1
    18   18    7 1
    19   19    8 1
    20   20    8 1
    21   21   10 1
    22   22   10 1
    23   23   10 1
    24   24   11 1
    25   25   11 1
    26   26   11 1
    27   27   12 1
    28   28   12 1
    29   29   12 1
    30   30    2 2
    31   31   30 1
    32   32   30 1
    33   33   32 1
    34   34   33 1
    35   35   34 1
    36   36   35 1
    37   37   32 1
    38   38   32 1
    39   39   37 1
    40   40   37 1
    41   41   34 1
    42   42   34 1
    43   43   41 1
    44   44   43 1
    45   45   43 1
    46   46   43 1
    47   47   41 1
    48   48   47 1
    49   49   47 1
    50   50   47 1
    51   51   36 1
    52   52   35 1
    53   53   35 1
    54   54   33 1
    55   55   54 1
    56   56   54 1
    57   57   54 1
    58   58   33 1
    59    7    9 1
    60   36   37 1
    61   36   41 1
@<TRIPOS>SUBSTRUCTURE
     1 RES1 1

@<TRIPOS>CRYSIN
   7.6550   12.2177   21.2440  90.0000  90.0000  90.0000  20 1

