# MOL2 file generated by ConQuest
# Please check atom types

@<TRIPOS>MOLECULE
TAZHUA
    37    38     1
SMALL
USER_CHARGES
****
Generated from CSD

@<TRIPOS>ATOM
      1 O1         6.6719    4.0698    6.0125 O.2       1 RES1    0.0000
      2 O2         5.0479    6.6387    2.5245 O.2       1 RES1   -1.0000
      3 N1         5.7383    5.8008    3.2011 N.pl3     1 RES1    1.0000
      4 N2         4.0149    7.0035    7.3661 N.pl3     1 RES1    0.0000
      5 N3         6.4954    4.5640    4.8400 N.3       1 RES1    0.0000
      6 N4         4.3299    7.5559    5.2440 N.2       1 RES1    0.0000
      7 C1         6.3961    4.5178    1.1896 C.3       1 RES1    0.0000
      8 H1         5.5409    4.0856    1.2584 H         1 RES1    0.0000
      9 H2         7.0416    3.8968    0.8445 H         1 RES1    0.0000
     10 H3         6.3272    5.2705    0.5973 H         1 RES1    0.0000
     11 C2         6.8348    4.9933    2.5638 C.3       1 RES1    0.0000
     12 C3         5.6943    5.6009    4.5329 C.2       1 RES1    0.0000
     13 C4         4.9350    6.3449    5.5070 C.2       1 RES1    0.0000
     14 C5         4.7502    6.0088    6.8155 C.2       1 RES1    0.0000
     15 H4         5.0665    5.2466    7.2452 H         1 RES1    0.0000
     16 C6         3.5521    7.0832    8.7568 C.3       1 RES1    0.0000
     17 H5         2.9739    6.3257    8.9421 H         1 RES1    0.0000
     18 H6         3.0273    7.8915    8.8694 H         1 RES1    0.0000
     19 C7         4.6759    7.0910    9.7427 C.3       1 RES1    0.0000
     20 H7         5.1614    6.2654    9.6804 H         1 RES1    0.0000
     21 H8         4.3219    7.1876   10.6301 H         1 RES1    0.0000
     22 H9         5.2650    7.8244    9.5506 H         1 RES1    0.0000
     23 C8         8.4236    3.3920    3.8237 C.3       1 RES1    0.0000
     24 H10        8.9693    4.1277    4.1098 H         1 RES1    0.0000
     25 H11        8.7671    3.0395    2.9990 H         1 RES1    0.0000
     26 H12        8.4358    2.7052    4.4946 H         1 RES1    0.0000
     27 C9         7.0038    3.8676    3.6160 C.3       1 RES1    0.0000
     28 C10        8.0214    5.9309    2.4508 C.3       1 RES1    0.0000
     29 H13        7.7620    6.7180    1.9654 H         1 RES1    0.0000
     30 H14        8.7355    5.4888    1.9855 H         1 RES1    0.0000
     31 H15        8.3176    6.1801    3.3290 H         1 RES1    0.0000
     32 C11        3.8045    7.9022    6.3885 C.2       1 RES1    0.0000
     33 H16        3.3310    8.6931    6.5148 H         1 RES1    0.0000
     34 C12        6.0584    2.6888    3.3996 C.3       1 RES1    0.0000
     35 H17        6.1195    2.0889    4.1467 H         1 RES1    0.0000
     36 H18        6.3040    2.2253    2.5963 H         1 RES1    0.0000
     37 H19        5.1580    3.0110    3.3200 H         1 RES1    0.0000
@<TRIPOS>BOND
     1    1    5 1
     2    2    3 1
     3    3   11 1
     4    4   14 1
     5    5   12 1
     6    6   13 1
     7    7    8 1
     8    9    7 1
     9   10    7 1
    10   11    7 1
    11   12    3 2
    12   13   12 1
    13   14   13 2
    14   15   14 1
    15   16    4 1
    16   17   16 1
    17   18   16 1
    18   19   16 1
    19   20   19 1
    20   21   19 1
    21   22   19 1
    22   23   24 1
    23   25   23 1
    24   26   23 1
    25   27    5 1
    26   28   11 1
    27   29   28 1
    28   30   28 1
    29   31   28 1
    30   32    4 1
    31   33   32 1
    32   34   27 1
    33   35   34 1
    34   36   34 1
    35   37   34 1
    36    6   32 2
    37   11   27 1
    38   23   27 1
@<TRIPOS>SUBSTRUCTURE
     1 RES1 1

@<TRIPOS>CRYSIN
  10.4880   11.3710   12.0580  90.0000 111.9230  90.0000  14 1

