# MOL2 file generated by ConQuest
# Please check atom types

@<TRIPOS>MOLECULE
TAZNUE
   128   138     2
SMALL
NO_CHARGES
****
Generated from CSD

@<TRIPOS>ATOM
      1 N1         2.7377    6.6444    0.1784 N.2       1 RES1    0.0000
      2 N2         7.1147    6.4987    0.9848 N.am      1 RES1    0.0000
      3 O1         3.8129    5.7234    0.3660 O.3       1 RES1    0.0000
      4 O2         5.6694    7.8659   -0.0827 O.2       1 RES1    0.0000
      5 C1         2.7535    7.5055    1.1185 C.2       1 RES1    0.0000
      6 C2         3.8307    7.2693    2.1670 C.3       1 RES1    0.0000
      7 H1         4.3408    8.1084    2.3570 H         1 RES1    0.0000
      8 C3         4.6958    6.2528    1.3967 C.3       1 RES1    0.0000
      9 H2         5.0163    5.5237    2.0016 H         1 RES1    0.0000
     10 C4         5.8742    6.9409    0.6966 C.2       1 RES1    0.0000
     11 C5         8.2748    7.1211    0.3227 C.3       1 RES1    0.0000
     12 H3         8.2136    8.1148    0.4150 H         1 RES1    0.0000
     13 C6         9.4559    6.6036    1.1619 C.3       1 RES1    0.0000
     14 H4        10.2718    6.5140    0.6076 H         1 RES1    0.0000
     15 H5         9.6474    7.2131    1.9175 H         1 RES1    0.0000
     16 C7         8.9866    5.2386    1.6659 C.3       1 RES1    0.0000
     17 H6         9.4624    4.9891    2.4971 H         1 RES1    0.0000
     18 H7         9.1452    4.5388    0.9841 H         1 RES1    0.0000
     19 C8         7.4752    5.4123    1.9285 C.3       1 RES1    0.0000
     20 H8         6.9961    4.5746    1.6671 H         1 RES1    0.0000
     21 C9         1.7468    8.5834    1.1895 C.ar      1 RES1    0.0000
     22 C10        2.1185    9.8622    1.5872 C.ar      1 RES1    0.0000
     23 H9         3.0224   10.0414    1.8177 H         1 RES1    0.0000
     24 C11        1.1717   10.8819    1.6519 C.ar      1 RES1    0.0000
     25 H10        1.4325   11.7572    1.9140 H         1 RES1    0.0000
     26 C12       -0.1514   10.6225    1.3330 C.ar      1 RES1    0.0000
     27 H11       -0.8014   11.3132    1.3957 H         1 RES1    0.0000
     28 C13       -0.5242    9.3539    0.9234 C.ar      1 RES1    0.0000
     29 H12       -1.4296    9.1799    0.6935 H         1 RES1    0.0000
     30 C14        0.4132    8.3331    0.8458 C.ar      1 RES1    0.0000
     31 H13        0.1499    7.4662    0.5604 H         1 RES1    0.0000
     32 C15        3.2197    6.6947    3.4364 C.ar      1 RES1    0.0000
     33 C16        3.3582    7.3555    4.6451 C.ar      1 RES1    0.0000
     34 H14        3.8147    8.1875    4.6826 H         1 RES1    0.0000
     35 C17        2.8236    6.7945    5.8110 C.ar      1 RES1    0.0000
     36 H15        2.9209    7.2490    6.6386 H         1 RES1    0.0000
     37 C18        2.1569    5.5881    5.7660 C.ar      1 RES1    0.0000
     38 H16        1.8090    5.2053    6.5633 H         1 RES1    0.0000
     39 C19        1.9968    4.9353    4.5554 C.ar      1 RES1    0.0000
     40 H17        1.5276    4.1106    4.5179 H         1 RES1    0.0000
     41 C20        2.5234    5.4902    3.3920 C.ar      1 RES1    0.0000
     42 H18        2.4066    5.0439    2.5619 H         1 RES1    0.0000
     43 C21        8.3643    6.7551   -1.1526 C.ar      1 RES1    0.0000
     44 C22        7.7216    5.6387   -1.6821 C.ar      1 RES1    0.0000
     45 H19        7.1979    5.0819   -1.1190 H         1 RES1    0.0000
     46 C23        7.8436    5.3350   -3.0414 C.ar      1 RES1    0.0000
     47 H20        7.3960    4.5778   -3.3990 H         1 RES1    0.0000
     48 C24        8.6155    6.1322   -3.8674 C.ar      1 RES1    0.0000
     49 H21        8.7052    5.9181   -4.7894 H         1 RES1    0.0000
     50 C25        9.2577    7.2426   -3.3447 C.ar      1 RES1    0.0000
     51 H22        9.7871    7.7931   -3.9085 H         1 RES1    0.0000
     52 C26        9.1285    7.5545   -1.9951 C.ar      1 RES1    0.0000
     53 H23        9.5668    8.3215   -1.6461 H         1 RES1    0.0000
     54 C27        7.1144    5.7682    3.3618 C.ar      1 RES1    0.0000
     55 C28        7.3549    7.0412    3.8825 C.ar      1 RES1    0.0000
     56 H24        7.7693    7.7014    3.3394 H         1 RES1    0.0000
     57 C29        6.9934    7.3544    5.1906 C.ar      1 RES1    0.0000
     58 H25        7.1764    8.2192    5.5389 H         1 RES1    0.0000
     59 C30        6.3682    6.4085    5.9868 C.ar      1 RES1    0.0000
     60 H26        6.1120    6.6257    6.8750 H         1 RES1    0.0000
     61 C31        6.1207    5.1473    5.4795 C.ar      1 RES1    0.0000
     62 H27        5.6910    4.4955    6.0222 H         1 RES1    0.0000
     63 C32        6.4978    4.8235    4.1738 C.ar      1 RES1    0.0000
     64 H28        6.3306    3.9503    3.8385 H         1 RES1    0.0000
     65 N3         8.2456    2.0221    8.4873 N.2       2 RES2    0.0000
     66 N4        11.8991    0.2724    9.5008 N.am      2 RES2    0.0000
     67 O3         9.6640    2.0397    8.4587 O.3       2 RES2    0.0000
     68 O4        10.0113   -0.9819    9.5034 O.2       2 RES2    0.0000
     69 C33        7.8250    1.0123    7.8272 C.2       2 RES2    0.0000
     70 C34        8.9108    0.1767    7.1942 C.3       2 RES2    0.0000
     71 H29        8.8082   -0.7856    7.4459 H         2 RES2    0.0000
     72 C35       10.1368    0.7895    7.8772 C.3       2 RES2    0.0000
     73 H30       10.8556    0.9691    7.2059 H         2 RES2    0.0000
     74 C36       10.6832   -0.0674    9.0306 C.2       2 RES2    0.0000
     75 C37       12.8389    1.1894    8.8086 C.3       2 RES2    0.0000
     76 H31       12.4100    2.0827    8.6769 H         2 RES2    0.0000
     77 C38       13.9715    1.2971    9.8430 C.3       2 RES2    0.0000
     78 H32       14.8315    1.5207    9.4054 H         2 RES2    0.0000
     79 H33       13.7657    1.9878   10.5226 H         2 RES2    0.0000
     80 C39       14.0211   -0.0977   10.4744 C.3       2 RES2    0.0000
     81 H34       14.4391   -0.0643   11.3719 H         2 RES2    0.0000
     82 H35       14.5317   -0.7255    9.9045 H         2 RES2    0.0000
     83 C40       12.5371   -0.5232   10.5732 C.3       2 RES2    0.0000
     84 H36       12.4606   -1.4943   10.3475 H         2 RES2    0.0000
     85 C41        6.3732    0.7741    7.6912 C.ar      2 RES2    0.0000
     86 C42        5.8756   -0.5273    7.6220 C.ar      2 RES2    0.0000
     87 H37        6.4731   -1.2665    7.6490 H         2 RES2    0.0000
     88 C43        4.5044   -0.7466    7.5143 C.ar      2 RES2    0.0000
     89 H38        4.1702   -1.6346    7.4686 H         2 RES2    0.0000
     90 C44        3.6295    0.3195    7.4709 C.ar      2 RES2    0.0000
     91 H39        2.6951    0.1656    7.3986 H         2 RES2    0.0000
     92 C45        4.1153    1.6208    7.5346 C.ar      2 RES2    0.0000
     93 H40        3.5132    2.3538    7.5036 H         2 RES2    0.0000
     94 C46        5.4811    1.8497    7.6450 C.ar      2 RES2    0.0000
     95 H41        5.8097    2.7397    7.6893 H         2 RES2    0.0000
     96 C47        8.9863    0.3343    5.6786 C.ar      2 RES2    0.0000
     97 C48        8.4873    1.4563    5.0356 C.ar      2 RES2    0.0000
     98 H42        8.0087    2.1112    5.5301 H         2 RES2    0.0000
     99 C49        8.6831    1.6261    3.6672 C.ar      2 RES2    0.0000
    100 H43        8.3378    2.3980    3.2344 H         2 RES2    0.0000
    101 C50        9.3686    0.6886    2.9410 C.ar      2 RES2    0.0000
    102 H44        9.4952    0.8078    2.0068 H         2 RES2    0.0000
    103 C51        9.8745   -0.4292    3.5734 C.ar      2 RES2    0.0000
    104 H45       10.3630   -1.0725    3.0733 H         2 RES2    0.0000
    105 C52        9.6757   -0.6190    4.9375 C.ar      2 RES2    0.0000
    106 H46       10.0124   -1.3994    5.3620 H         2 RES2    0.0000
    107 C53       13.3075    0.6348    7.4681 C.ar      2 RES2    0.0000
    108 C54       13.3565   -0.7382    7.2306 C.ar      2 RES2    0.0000
    109 H47       13.0552   -1.3424    7.8994 H         2 RES2    0.0000
    110 C55       13.8407   -1.2325    6.0287 C.ar      2 RES2    0.0000
    111 H48       13.8869   -2.1713    5.8891 H         2 RES2    0.0000
    112 C56       14.2553   -0.3659    5.0328 C.ar      2 RES2    0.0000
    113 H49       14.5851   -0.7055    4.2097 H         2 RES2    0.0000
    114 C57       14.1850    1.0050    5.2496 C.ar      2 RES2    0.0000
    115 H50       14.4525    1.6050    4.5635 H         2 RES2    0.0000
    116 C58       13.7256    1.5073    6.4654 C.ar      2 RES2    0.0000
    117 H51       13.6983    2.4455    6.6106 H         2 RES2    0.0000
    118 C59       11.9534   -0.2870   11.9564 C.ar      2 RES2    0.0000
    119 C60       11.9019   -1.3509   12.8495 C.ar      2 RES2    0.0000
    120 H52       12.1628   -2.2188   12.5662 H         2 RES2    0.0000
    121 C61       11.4683   -1.1558   14.1573 C.ar      2 RES2    0.0000
    122 H53       11.4400   -1.8876   14.7621 H         2 RES2    0.0000
    123 C62       11.0786    0.1044   14.5795 C.ar      2 RES2    0.0000
    124 H54       10.7837    0.2373   15.4731 H         2 RES2    0.0000
    125 C63       11.1180    1.1695   13.6953 C.ar      2 RES2    0.0000
    126 H55       10.8474    2.0353   13.9811 H         2 RES2    0.0000
    127 C64       11.5530    0.9733   12.3881 C.ar      2 RES2    0.0000
    128 H56       11.5783    1.7073   11.7852 H         2 RES2    0.0000
@<TRIPOS>BOND
     1    1    3 1
     2    2   10 1
     3    3    8 1
     4    4   10 2
     5    5    1 2
     6    6    5 1
     7    7    6 1
     8    8    6 1
     9    9    8 1
    10   10    8 1
    11   11    2 1
    12   12   11 1
    13   13   11 1
    14   14   13 1
    15   15   13 1
    16   16   13 1
    17   17   16 1
    18   18   16 1
    19   19    2 1
    20   20   19 1
    21   21    5 1
    22   22   21 ar
    23   23   22 1
    24   24   22 ar
    25   25   24 1
    26   26   24 ar
    27   27   26 1
    28   28   26 ar
    29   29   28 1
    30   30   21 ar
    31   31   30 1
    32   32    6 1
    33   33   32 ar
    34   34   33 1
    35   35   33 ar
    36   36   35 1
    37   37   35 ar
    38   38   37 1
    39   39   37 ar
    40   40   39 1
    41   41   32 ar
    42   42   41 1
    43   43   11 1
    44   44   43 ar
    45   45   44 1
    46   46   44 ar
    47   47   46 1
    48   48   46 ar
    49   49   48 1
    50   50   48 ar
    51   51   50 1
    52   52   43 ar
    53   53   52 1
    54   54   19 1
    55   55   54 ar
    56   56   55 1
    57   57   55 ar
    58   58   57 1
    59   59   57 ar
    60   60   59 1
    61   61   59 ar
    62   62   61 1
    63   63   54 ar
    64   64   63 1
    65   65   67 1
    66   66   74 1
    67   67   72 1
    68   68   74 2
    69   69   65 2
    70   70   69 1
    71   71   70 1
    72   72   70 1
    73   73   72 1
    74   74   72 1
    75   75   66 1
    76   76   75 1
    77   77   75 1
    78   78   77 1
    79   79   77 1
    80   80   77 1
    81   81   80 1
    82   82   80 1
    83   83   66 1
    84   84   83 1
    85   85   69 1
    86   86   85 ar
    87   87   86 1
    88   88   86 ar
    89   89   88 1
    90   90   88 ar
    91   91   90 1
    92   92   90 ar
    93   93   92 1
    94   94   85 ar
    95   95   94 1
    96   96   70 1
    97   97   96 ar
    98   98   97 1
    99   99   97 ar
   100  100   99 1
   101  101   99 ar
   102  102  101 1
   103  103  101 ar
   104  104  103 1
   105  105   96 ar
   106  106  105 1
   107  107   75 1
   108  108  107 ar
   109  109  108 1
   110  110  108 ar
   111  111  110 1
   112  112  110 ar
   113  113  112 1
   114  114  112 ar
   115  115  114 1
   116  116  107 ar
   117  117  116 1
   118  118   83 1
   119  119  118 ar
   120  120  119 1
   121  121  119 ar
   122  122  121 1
   123  123  121 ar
   124  124  123 1
   125  125  123 ar
   126  126  125 1
   127  127  118 ar
   128  128  127 1
   129   16   19 1
   130   28   30 ar
   131   39   41 ar
   132   50   52 ar
   133   61   63 ar
   134   80   83 1
   135   92   94 ar
   136  103  105 ar
   137  114  116 ar
   138  125  127 ar
@<TRIPOS>SUBSTRUCTURE
     1 RES1 1
     2 RES2 65

@<TRIPOS>CRYSIN
  13.4615   10.5455   17.8450  90.0000 101.0960  90.0000   4 1

