# MOL2 file generated by ConQuest
# Please check atom types

@<TRIPOS>MOLECULE
TAZVAS
    33    35     1
SMALL
NO_CHARGES
****
Generated from CSD

@<TRIPOS>ATOM
      1 C1         0.8696    6.0533   10.1940 C.ar      1 RES1    0.0000
      2 C2         0.4823    4.7492   10.4235 C.ar      1 RES1    0.0000
      3 H1         0.2009    4.4786   11.2678 H         1 RES1    0.0000
      4 C3         0.5208    3.8558    9.3788 C.ar      1 RES1    0.0000
      5 H2         0.2662    2.9718    9.5158 H         1 RES1    0.0000
      6 C4         0.9363    4.2694    8.1234 C.ar      1 RES1    0.0000
      7 C5         1.2983    5.5929    7.9260 C.ar      1 RES1    0.0000
      8 H3         1.5623    5.8772    7.0810 H         1 RES1    0.0000
      9 C6         1.2714    6.4922    8.9706 C.ar      1 RES1    0.0000
     10 H4         1.5216    7.3778    8.8421 H         1 RES1    0.0000
     11 C7         1.0277    3.3277    6.9998 C.2       1 RES1    0.0000
     12 H5         1.3439    3.6323    6.1807 H         1 RES1    0.0000
     13 C8         0.7637    1.2634    5.9793 C.ar      1 RES1    0.0000
     14 C9         0.4830    1.6802    4.7131 C.ar      1 RES1    0.0000
     15 H6         0.2459    2.5683    4.5655 H         1 RES1    0.0000
     16 C10        0.5469    0.7885    3.6246 C.ar      1 RES1    0.0000
     17 H7         0.3358    1.0837    2.7679 H         1 RES1    0.0000
     18 C11        0.9153   -0.4945    3.8252 C.ar      1 RES1    0.0000
     19 H8         0.9886   -1.0652    3.0949 H         1 RES1    0.0000
     20 C12        1.1902   -0.9883    5.1109 C.ar      1 RES1    0.0000
     21 C13        1.5688   -2.3199    5.3454 C.ar      1 RES1    0.0000
     22 H9         1.6558   -2.9017    4.6248 H         1 RES1    0.0000
     23 C14        1.8096   -2.7750    6.5913 C.ar      1 RES1    0.0000
     24 H10        2.0620   -3.6606    6.7190 H         1 RES1    0.0000
     25 C15        1.6812   -1.9140    7.6969 C.ar      1 RES1    0.0000
     26 H11        1.8277   -2.2375    8.5562 H         1 RES1    0.0000
     27 C16        1.3439   -0.6150    7.5131 C.ar      1 RES1    0.0000
     28 H12        1.2743   -0.0492    8.2475 H         1 RES1    0.0000
     29 C17        1.0973   -0.1081    6.2156 C.ar      1 RES1    0.0000
     30 N1         0.8892    6.9928   11.3288 N.pl3     1 RES1    0.0000
     31 N2         0.6868    2.1130    7.1138 N.2       1 RES1    0.0000
     32 O1         1.1844    8.1568   11.1008 O.2       1 RES1    0.0000
     33 O2         0.6332    6.5672   12.4396 O.2       1 RES1    0.0000
@<TRIPOS>BOND
     1    1    2 ar
     2    2    3 1
     3    4    2 ar
     4    5    4 1
     5    6    4 ar
     6    7    6 ar
     7    8    7 1
     8    9    1 ar
     9   10    9 1
    10   11    6 1
    11   12   11 1
    12   13   14 ar
    13   14   15 1
    14   16   14 ar
    15   17   16 1
    16   18   16 ar
    17   19   18 1
    18   20   18 ar
    19   21   20 ar
    20   22   21 1
    21   23   21 ar
    22   24   23 1
    23   25   23 ar
    24   26   25 1
    25   27   25 ar
    26   28   27 1
    27   29   13 ar
    28   30    1 1
    29   31   11 2
    30   32   30 2
    31   33   30 2
    32    7    9 ar
    33   13   31 1
    34   20   29 ar
    35   27   29 ar
@<TRIPOS>SUBSTRUCTURE
     1 RES1 1

@<TRIPOS>CRYSIN
   7.2528   12.3005   15.2083  90.0000  90.0000  90.0000  19 1

