# MOL2 file generated by ConQuest
# Please check atom types

@<TRIPOS>MOLECULE
TAZWIB
    43    45     1
SMALL
NO_CHARGES
****
Generated from CSD

@<TRIPOS>ATOM
      1 N1         1.6037    6.8914    2.2996 N.pl3     1 RES1    0.0000
      2 C1         2.2286    6.6416    1.1347 C.2       1 RES1    0.0000
      3 C2         1.3866    6.8298    0.0844 C.2       1 RES1    0.0000
      4 C3         0.0150    7.1784    0.5469 C.3       1 RES1    0.0000
      5 H1        -0.6117    6.4630    0.3504 H         1 RES1    0.0000
      6 H2         0.2871    7.9969    0.1288 H         1 RES1    0.0000
      7 C4         0.1864    7.3623    2.0680 C.3       1 RES1    0.0000
      8 H3        -0.4353    6.7681    2.5391 H         1 RES1    0.0000
      9 C5         2.0835    6.6905    3.6362 C.ar      1 RES1    0.0000
     10 C6         1.5236    5.6860    4.3881 C.ar      1 RES1    0.0000
     11 H4         0.8481    5.1566    4.0271 H         1 RES1    0.0000
     12 C7         1.9628    5.4596    5.6925 C.ar      1 RES1    0.0000
     13 H5         1.5769    4.7941    6.1568 H         1 RES1    0.0000
     14 C8         3.0015    6.2696    6.1821 C.ar      1 RES1    0.0000
     15 H6         3.3449    6.1112    7.0327 H         1 RES1    0.0000
     16 C9         3.5185    7.2890    5.4265 C.ar      1 RES1    0.0000
     17 H7         4.1796    7.8364    5.7874 H         1 RES1    0.0000
     18 C10        3.0797    7.5186    4.1496 C.ar      1 RES1    0.0000
     19 H8         3.4370    8.2095    3.6388 H         1 RES1    0.0000
     20 C11        3.6714    6.1782    1.1334 C.3       1 RES1    0.0000
     21 H9         4.0525    6.3217    2.0136 H         1 RES1    0.0000
     22 H10        4.1754    6.7128    0.4981 H         1 RES1    0.0000
     23 C12        3.8053    4.6953    0.7619 C.3       1 RES1    0.0000
     24 H11        3.4361    4.5613   -0.1266 H         1 RES1    0.0000
     25 H12        4.7479    4.4667    0.7261 H         1 RES1    0.0000
     26 C13        3.1115    3.7524    1.7223 C.3       1 RES1    0.0000
     27 H13        2.1643    3.9012    1.6885 H         1 RES1    0.0000
     28 H14        3.4290    3.9150    2.6130 H         1 RES1    0.0000
     29 H15        3.3028    2.8435    1.4754 H         1 RES1    0.0000
     30 N2         1.6516    6.6810   -1.2634 N.pl3     1 RES1    0.0000
     31 O1         0.7001    6.7511   -2.0657 O.2       1 RES1    0.0000
     32 O2         2.8445    6.4503   -1.6322 O.2       1 RES1    0.0000
     33 C14        0.0110    8.7442    2.5560 C.ar      1 RES1    0.0000
     34 C15       -0.9095    9.0174    3.5480 C.ar      1 RES1    0.0000
     35 H16       -1.3681    8.3180    3.9554 H         1 RES1    0.0000
     36 C16       -1.1503   10.3015    3.9343 C.ar      1 RES1    0.0000
     37 H17       -1.7847   10.4631    4.5970 H         1 RES1    0.0000
     38 C17       -0.4822   11.3667    3.3707 C.ar      1 RES1    0.0000
     39 H18       -0.6612   12.2404    3.6367 H         1 RES1    0.0000
     40 C18        0.4622   11.0977    2.3956 C.ar      1 RES1    0.0000
     41 H19        0.9374   11.7950    2.0030 H         1 RES1    0.0000
     42 C19        0.6956    9.8072    2.0136 C.ar      1 RES1    0.0000
     43 H20        1.3409    9.6403    1.3656 H         1 RES1    0.0000
@<TRIPOS>BOND
     1    1    2 1
     2    2    3 2
     3    3    4 1
     4    4    5 1
     5    6    4 1
     6    7    1 1
     7    8    7 1
     8    9    1 1
     9   10    9 ar
    10   11   10 1
    11   12   10 ar
    12   13   12 1
    13   14   12 ar
    14   15   14 1
    15   16   14 ar
    16   17   16 1
    17   18    9 ar
    18   19   18 1
    19   20    2 1
    20   21   20 1
    21   22   20 1
    22   23   20 1
    23   24   23 1
    24   25   23 1
    25   26   23 1
    26   27   26 1
    27   28   26 1
    28   29   26 1
    29   30    3 1
    30   31   30 2
    31   32   30 2
    32   33    7 1
    33   34   33 ar
    34   35   34 1
    35   36   34 ar
    36   37   36 1
    37   38   36 ar
    38   39   38 1
    39   40   38 ar
    40   41   40 1
    41   42   33 ar
    42   43   42 1
    43    4    7 1
    44   16   18 ar
    45   40   42 ar
@<TRIPOS>SUBSTRUCTURE
     1 RES1 1

@<TRIPOS>CRYSIN
  14.3700   10.6300   21.1200  90.0000  92.0400  90.0000 231 1

