# MOL2 file generated by ConQuest
# Please check atom types

@<TRIPOS>MOLECULE
TAZWIC
    40    41     1
SMALL
NO_CHARGES
****
Generated from CSD

@<TRIPOS>ATOM
      1 C1         8.9149   14.0929    9.2404 C.2       1 RES1    0.0000
      2 C2         7.4335   13.7797    9.5193 C.3       1 RES1    0.0000
      3 C3         7.5157   12.4148   10.2294 C.3       1 RES1    0.0000
      4 C4         8.8652   12.5501   10.9582 C.3       1 RES1    0.0000
      5 C5         6.6001   13.7712    8.2493 C.2       1 RES1    0.0000
      6 C6         5.2898   15.0950    6.7726 C.3       1 RES1    0.0000
      7 C7         6.3388   12.0230   11.1269 C.2       1 RES1    0.0000
      8 C8         5.7174   10.8336   11.0291 C.2       1 RES1    0.0000
      9 C9         4.5905   10.4337   11.9521 C.3       1 RES1    0.0000
     10 C10        6.0931    9.7460   10.0294 C.3       1 RES1    0.0000
     11 C11        5.9344   13.0330   12.1752 C.ar      1 RES1    0.0000
     12 C12        6.4701   12.9587   13.4701 C.ar      1 RES1    0.0000
     13 C13        6.1134   13.8731   14.4594 C.ar      1 RES1    0.0000
     14 C14        5.2100   14.8775   14.1356 C.ar      1 RES1    0.0000
     15 C15        4.6471   14.9851   12.8701 C.ar      1 RES1    0.0000
     16 C16        5.0176   14.0580   11.8917 C.ar      1 RES1    0.0000
     17 O1         9.3814   14.8640    8.4409 O.2       1 RES1    0.0000
     18 O2         9.6923   13.3521   10.0586 O.3       1 RES1    0.0000
     19 O3         6.4135   12.7889    7.5728 O.2       1 RES1    0.0000
     20 O4         6.1032   14.9732    7.9805 O.3       1 RES1    0.0000
     21 O5         5.3128   15.7157   16.3167 O.2       1 RES1    0.0000
     22 O6         4.1006   16.7903   14.8797 O.2       1 RES1    0.0000
     23 N1         4.8502   15.8684   15.1844 N.pl3     1 RES1    0.0000
     24 H1         7.1023   14.4691   10.1207 H         1 RES1    0.0000
     25 H2         7.6229   11.7161    9.5310 H         1 RES1    0.0000
     26 H3         8.7791   13.0354   11.8188 H         1 RES1    0.0000
     27 H4         9.2877   11.6867   11.1107 H         1 RES1    0.0000
     28 H5         5.2369   16.0155    6.5283 H         1 RES1    0.0000
     29 H6         5.6766   14.5916    6.0299 H         1 RES1    0.0000
     30 H7         4.4044   14.7598    6.9287 H         1 RES1    0.0000
     31 H8         4.1915   11.1723   12.4166 H         1 RES1    0.0000
     32 H9         3.8916   10.0080   11.4634 H         1 RES1    0.0000
     33 H10        4.9196    9.8072   12.5841 H         1 RES1    0.0000
     34 H11        5.3684    9.1214    9.9328 H         1 RES1    0.0000
     35 H12        6.8462    9.2406   10.3467 H         1 RES1    0.0000
     36 H13        6.3169   10.1060    9.1593 H         1 RES1    0.0000
     37 H14        7.0912   12.2680   13.6572 H         1 RES1    0.0000
     38 H15        6.4886   13.8127   15.3390 H         1 RES1    0.0000
     39 H16        4.0170   15.6562   12.6767 H         1 RES1    0.0000
     40 H17        4.6491   14.1099   11.0208 H         1 RES1    0.0000
@<TRIPOS>BOND
     1    1    2 1
     2    2    3 1
     3    3    4 1
     4    4   18 1
     5    5    2 1
     6    6   20 1
     7    7    3 1
     8    8    7 2
     9    9    8 1
    10   10    8 1
    11   11    7 1
    12   12   11 ar
    13   13   12 ar
    14   14   13 ar
    15   15   14 ar
    16   16   11 ar
    17   17    1 2
    18   18    1 1
    19   19    5 2
    20   20    5 1
    21   21   23 2
    22   22   23 2
    23   23   14 1
    24   24    2 1
    25   25    3 1
    26   26    4 1
    27   27    4 1
    28   28    6 1
    29   29    6 1
    30   30    6 1
    31   31    9 1
    32   32    9 1
    33   33    9 1
    34   34   10 1
    35   35   10 1
    36   36   10 1
    37   37   12 1
    38   38   13 1
    39   39   15 1
    40   40   16 1
    41   15   16 ar
@<TRIPOS>SUBSTRUCTURE
     1 RES1 1

@<TRIPOS>CRYSIN
   7.3215   16.3290   13.6581  90.0000  94.4070  90.0000 231 1

