# MOL2 file generated by ConQuest
# Please check atom types

@<TRIPOS>MOLECULE
TBMNBZ01
   112   112     2
SMALL
NO_CHARGES
****
Generated from CSD

@<TRIPOS>ATOM
      1 O1         1.8494    3.4480    1.2773 O.3       1 RES1    0.0000
      2 O2         2.4278    5.5380    0.5616 O.2       1 RES1    0.0000
      3 O3         7.5629    0.9071   -1.4454 O.2       1 RES1    0.0000
      4 O4         8.4037    2.8990   -1.5902 O.2       1 RES1    0.0000
      5 N1         7.5008    2.1165   -1.2843 N.pl3     1 RES1    0.0000
      6 C1         3.8856    3.7132    0.1681 C.ar      1 RES1    0.0000
      7 C2         4.9216    4.5673   -0.1658 C.ar      1 RES1    0.0000
      8 C3         6.1378    4.0395   -0.6130 C.ar      1 RES1    0.0000
      9 C4         6.2458    2.6868   -0.7577 C.ar      1 RES1    0.0000
     10 C5         5.1997    1.8089   -0.4822 C.ar      1 RES1    0.0000
     11 C6         4.0238    2.3526    0.0152 C.ar      1 RES1    0.0000
     12 C7         2.6121    4.3630    0.6795 C.2       1 RES1    0.0000
     13 C8         0.4817    3.5488    1.9335 C.3       1 RES1    0.0000
     14 C9        -0.5824    3.5276    0.7344 C.3       1 RES1    0.0000
     15 C10        0.5819    2.1563    2.7870 C.3       1 RES1    0.0000
     16 C11        0.4165    4.8696    2.8885 C.3       1 RES1    0.0000
     17 C12       -0.2582    4.5699   -0.3666 C.3       1 RES1    0.0000
     18 C13       -2.0268    3.7954    1.2458 C.3       1 RES1    0.0000
     19 C14       -0.6530    2.2359   -0.0759 C.3       1 RES1    0.0000
     20 C15       -0.8056    1.6524    3.2808 C.3       1 RES1    0.0000
     21 C16        1.2173    0.9920    1.9638 C.3       1 RES1    0.0000
     22 C17        1.4812    2.2651    4.0362 C.3       1 RES1    0.0000
     23 C18       -0.0211    6.1586    2.2347 C.3       1 RES1    0.0000
     24 C19       -0.5896    4.6946    4.0514 C.3       1 RES1    0.0000
     25 C20        1.8009    5.2091    3.5284 C.3       1 RES1    0.0000
     26 O5         6.9446    9.5934    0.1401 O.3       2 RES2    0.0000
     27 O6         6.3750    7.4954    0.8430 O.2       2 RES2    0.0000
     28 O7         1.1594   12.0521    2.7227 O.2       2 RES2    0.0000
     29 O8         0.4104   10.1026    3.0041 O.2       2 RES2    0.0000
     30 N2         1.2630   10.8638    2.6340 N.pl3     2 RES2    0.0000
     31 C21        4.9131    9.3043    1.2283 C.ar      2 RES2    0.0000
     32 C22        3.8587    8.4449    1.5377 C.ar      2 RES2    0.0000
     33 C23        2.6472    8.9860    1.9954 C.ar      2 RES2    0.0000
     34 C24        2.5366   10.3095    2.1401 C.ar      2 RES2    0.0000
     35 C25        3.5627   11.1794    1.8728 C.ar      2 RES2    0.0000
     36 C26        4.7690   10.6463    1.3976 C.ar      2 RES2    0.0000
     37 C27        6.1723    8.6624    0.7227 C.2       2 RES2    0.0000
     38 C28        8.3159    9.4979   -0.5020 C.3       2 RES2    0.0000
     39 C29        9.3453    9.5907    0.7169 C.3       2 RES2    0.0000
     40 C30        8.2165   10.8426   -1.3941 C.3       2 RES2    0.0000
     41 C31        8.4388    8.1611   -1.4057 C.3       2 RES2    0.0000
     42 C32        9.0513    8.5749    1.8634 C.3       2 RES2    0.0000
     43 C33       10.8434    9.3308    0.2709 C.3       2 RES2    0.0000
     44 C34        9.3498   10.9222    1.4524 C.3       2 RES2    0.0000
     45 C35        9.5932   11.3837   -1.8763 C.3       2 RES2    0.0000
     46 C36        7.5120   12.0335   -0.6573 C.3       2 RES2    0.0000
     47 C37        7.3431   10.6729   -2.6679 C.3       2 RES2    0.0000
     48 C38        8.8813    6.8588   -0.6889 C.3       2 RES2    0.0000
     49 C39        9.4823    8.3203   -2.5488 C.3       2 RES2    0.0000
     50 C40        7.1167    7.7712   -2.0689 C.3       2 RES2    0.0000
     51 H1         4.7638    5.5698   -0.1985 H         1 RES1    0.0000
     52 H2         6.8856    4.5885   -0.8990 H         1 RES1    0.0000
     53 H3         5.1370    0.9018   -0.7122 H         1 RES1    0.0000
     54 H4         3.2435    1.7505    0.2102 H         1 RES1    0.0000
     55 H5        -0.3197    5.4903    0.0117 H         1 RES1    0.0000
     56 H6        -0.9104    4.4824   -1.1209 H         1 RES1    0.0000
     57 H7         0.6698    4.4028   -0.7122 H         1 RES1    0.0000
     58 H8        -2.6158    4.0315    0.4787 H         1 RES1    0.0000
     59 H9        -2.3773    2.9706    1.6930 H         1 RES1    0.0000
     60 H10       -2.0192    4.5620    1.9031 H         1 RES1    0.0000
     61 H11       -0.9553    1.4853    0.5137 H         1 RES1    0.0000
     62 H12        0.2521    2.0157   -0.4437 H         1 RES1    0.0000
     63 H13       -1.2967    2.3605   -0.8290 H         1 RES1    0.0000
     64 H14       -1.2517    1.1405    2.5453 H         1 RES1    0.0000
     65 H15       -0.6848    1.0609    4.0748 H         1 RES1    0.0000
     66 H16       -1.3807    2.4401    3.5377 H         1 RES1    0.0000
     67 H17        1.0559    0.1326    2.4402 H         1 RES1    0.0000
     68 H18        0.8003    0.9548    1.0625 H         1 RES1    0.0000
     69 H19        2.2049    1.1405    1.8681 H         1 RES1    0.0000
     70 H20        2.4449    2.3340    3.7479 H         1 RES1    0.0000
     71 H21        1.3525    1.4588    4.6118 H         1 RES1    0.0000
     72 H22        1.2298    3.0767    4.5535 H         1 RES1    0.0000
     73 H23        0.5554    6.3390    1.4361 H         1 RES1    0.0000
     74 H24       -0.9820    6.0738    1.9498 H         1 RES1    0.0000
     75 H25        0.0698    6.9225    2.8839 H         1 RES1    0.0000
     76 H26       -1.5156    4.8007    3.7012 H         1 RES1    0.0000
     77 H27       -0.4082    5.3842    4.7520 H         1 RES1    0.0000
     78 H28       -0.4868    3.7928    4.4484 H         1 RES1    0.0000
     79 H29        1.6557    5.7024    4.3900 H         1 RES1    0.0000
     80 H30        2.3317    5.7820    2.8955 H         1 RES1    0.0000
     81 H31        2.3030    4.3498    3.7128 H         1 RES1    0.0000
     82 H32        4.0471    7.4530    1.5295 H         2 RES2    0.0000
     83 H33        2.1976    8.1691    2.2067 H         2 RES2    0.0000
     84 H34        3.4324   12.1210    1.8681 H         2 RES2    0.0000
     85 H35        5.4463   11.1397    1.1909 H         2 RES2    0.0000
     86 H36        8.6213    9.0443    2.6270 H         2 RES2    0.0000
     87 H37        9.9018    8.1691    2.1717 H         2 RES2    0.0000
     88 H38        8.4384    7.8508    1.5295 H         2 RES2    0.0000
     89 H39       11.0043    8.3547    0.1985 H         2 RES2    0.0000
     90 H40       11.4636    9.7339    0.9457 H         2 RES2    0.0000
     91 H41       11.0078    9.7605   -0.6188 H         2 RES2    0.0000
     92 H42        9.9739   10.8744    2.2300 H         2 RES2    0.0000
     93 H43        8.4196   11.1397    1.7747 H         2 RES2    0.0000
     94 H44        9.6616   11.6436    0.8290 H         2 RES2    0.0000
     95 H45       10.0175   11.9088   -1.1442 H         2 RES2    0.0000
     96 H46        9.4665   11.9619   -2.6854 H         2 RES2    0.0000
     97 H47       10.1905   10.6092   -2.1133 H         2 RES2    0.0000
     98 H48        7.8840   12.1210    0.2685 H         2 RES2    0.0000
     99 H49        7.6703   12.8902   -1.1676 H         2 RES2    0.0000
    100 H50        6.5246   11.8558   -0.6071 H         2 RES2    0.0000
    101 H51        6.3753   10.6622   -2.4052 H         2 RES2    0.0000
    102 H52        7.5123   11.4314   -3.2925 H         2 RES2    0.0000
    103 H53        7.5766    9.8135   -3.1174 H         2 RES2    0.0000
    104 H54        8.2004    6.6042    0.0000 H         2 RES2    0.0000
    105 H55        8.9507    6.1268   -1.3544 H         2 RES2    0.0000
    106 H56        9.7631    7.0021   -0.2452 H         2 RES2    0.0000
    107 H57       10.4062    8.3017   -2.1600 H         2 RES2    0.0000
    108 H58        9.3841    7.5591   -3.1991 H         2 RES2    0.0000
    109 H59        9.3219    9.1770   -3.0240 H         2 RES2    0.0000
    110 H60        6.5271    8.5669   -2.1366 H         2 RES2    0.0000
    111 H61        7.2998    7.4264   -2.9889 H         2 RES2    0.0000
    112 H62        6.6684    7.0551   -1.5178 H         2 RES2    0.0000
@<TRIPOS>BOND
     1    1   12 1
     2    2   12 2
     3    3    5 2
     4    4    5 2
     5    5    9 1
     6    6    7 ar
     7    7    8 ar
     8    8    9 ar
     9    9   10 ar
    10   10   11 ar
    11   11    6 ar
    12   12    6 1
    13   13    1 1
    14   14   13 1
    15   15   13 1
    16   16   13 1
    17   17   14 1
    18   18   14 1
    19   19   14 1
    20   20   15 1
    21   21   15 1
    22   22   15 1
    23   23   16 1
    24   24   16 1
    25   25   16 1
    26   26   37 1
    27   27   37 2
    28   28   30 2
    29   29   30 2
    30   30   34 1
    31   31   32 ar
    32   32   33 ar
    33   33   34 ar
    34   34   35 ar
    35   35   36 ar
    36   36   31 ar
    37   37   31 1
    38   38   26 1
    39   39   38 1
    40   40   38 1
    41   41   38 1
    42   42   39 1
    43   43   39 1
    44   44   39 1
    45   45   40 1
    46   46   40 1
    47   47   40 1
    48   48   41 1
    49   49   41 1
    50   50   41 1
    51   51    7 1
    52   52    8 1
    53   53   10 1
    54   54   11 1
    55   55   17 1
    56   56   17 1
    57   57   17 1
    58   58   18 1
    59   59   18 1
    60   60   18 1
    61   61   19 1
    62   62   19 1
    63   63   19 1
    64   64   20 1
    65   65   20 1
    66   66   20 1
    67   67   21 1
    68   68   21 1
    69   69   21 1
    70   70   22 1
    71   71   22 1
    72   72   22 1
    73   73   23 1
    74   74   23 1
    75   75   23 1
    76   76   24 1
    77   77   24 1
    78   78   24 1
    79   79   25 1
    80   80   25 1
    81   81   25 1
    82   82   32 1
    83   83   33 1
    84   84   35 1
    85   85   36 1
    86   86   42 1
    87   87   42 1
    88   88   42 1
    89   89   43 1
    90   90   43 1
    91   91   43 1
    92   92   44 1
    93   93   44 1
    94   94   44 1
    95   95   45 1
    96   96   45 1
    97   97   45 1
    98   98   46 1
    99   99   46 1
   100  100   46 1
   101  101   47 1
   102  102   47 1
   103  103   47 1
   104  104   48 1
   105  105   48 1
   106  106   48 1
   107  107   49 1
   108  108   49 1
   109  109   49 1
   110  110   50 1
   111  111   50 1
   112  112   50 1
@<TRIPOS>SUBSTRUCTURE
     1 RES1 1
     2 RES2 26

@<TRIPOS>CRYSIN
  12.6550   26.5230   12.1340  90.0000 105.8000  90.0000  14 1

