# MOL2 file generated by ConQuest
# Please check atom types

@<TRIPOS>MOLECULE
TEBBEH
   100   104     2
SMALL
NO_CHARGES
****
Generated from CSD

@<TRIPOS>ATOM
      1 O1         3.0743    1.3930   -0.6591 O.2       1 RES1    0.0000
      2 O2         2.5118    3.1055   -1.8148 O.2       1 RES1    0.0000
      3 O3         6.0224    6.3738   -1.9382 O.2       1 RES1    0.0000
      4 O4         7.2002    6.7638   -0.1800 O.2       1 RES1    0.0000
      5 N1         3.3374    2.3398    2.0804 N.3       1 RES1    0.0000
      6 N2         3.0943    2.5890   -0.8740 N.pl3     1 RES1    0.0000
      7 N3         6.3230    6.1481   -0.7680 N.pl3     1 RES1    0.0000
      8 C1         4.1499    3.1497    1.3444 C.ar      1 RES1    0.0000
      9 C2         3.9409    3.4499   -0.0319 C.ar      1 RES1    0.0000
     10 C3         4.6159    4.4238   -0.7085 C.ar      1 RES1    0.0000
     11 C4         5.6157    5.0978   -0.0653 C.ar      1 RES1    0.0000
     12 C5         5.9701    4.7720    1.2282 C.ar      1 RES1    0.0000
     13 C6         5.2622    3.8219    1.9019 C.ar      1 RES1    0.0000
     14 C7         3.8516    1.4989    3.1925 C.3       1 RES1    0.0000
     15 C8         1.8628    2.3936    1.8757 C.3       1 RES1    0.0000
     16 C9         1.2010    1.0242    1.7494 C.3       1 RES1    0.0000
     17 C10       -0.2733    1.2122    1.3792 C.3       1 RES1    0.0000
     18 C11       -0.9953    2.0855    2.3897 C.3       1 RES1    0.0000
     19 C12       -0.2937    3.4081    2.6002 C.3       1 RES1    0.0000
     20 C13        1.1784    3.2208    2.9544 C.3       1 RES1    0.0000
     21 C14        5.0408    0.6660    2.7308 C.3       1 RES1    0.0000
     22 C15        5.4610   -0.3427    3.7936 C.3       1 RES1    0.0000
     23 C16        5.7103    0.3413    5.1220 C.3       1 RES1    0.0000
     24 C17        4.5076    1.1391    5.5691 C.3       1 RES1    0.0000
     25 C18        4.1238    2.1861    4.5296 C.3       1 RES1    0.0000
     26 O5         0.4096    4.2627   -8.0909 O.2       2 RES2    0.0000
     27 O6         1.2516    6.0379   -8.9518 O.2       2 RES2    0.0000
     28 O7        -2.4270    9.2153   -9.1449 O.2       2 RES2    0.0000
     29 O8        -3.7129    9.4686   -7.4347 O.2       2 RES2    0.0000
     30 N4         0.2229    5.0803   -5.1960 N.3       2 RES2    0.0000
     31 N5         0.5179    5.4661   -8.1620 N.pl3     2 RES2    0.0000
     32 N6        -2.7696    8.9308   -7.9936 N.pl3     2 RES2    0.0000
     33 C19       -0.5742    5.9013   -5.9175 C.ar      2 RES2    0.0000
     34 C20       -0.3348    6.2717   -7.2750 C.ar      2 RES2    0.0000
     35 C21       -1.0000    7.2769   -7.9297 C.ar      2 RES2    0.0000
     36 C22       -2.0516    7.8788   -7.2968 C.ar      2 RES2    0.0000
     37 C23       -2.4409    7.4714   -6.0395 C.ar      2 RES2    0.0000
     38 C24       -1.7379    6.5106   -5.3818 C.ar      2 RES2    0.0000
     39 C25       -0.2843    4.2563   -4.0679 C.3       2 RES2    0.0000
     40 C26        1.6854    5.0063   -5.4631 C.3       2 RES2    0.0000
     41 C27        2.2063    3.6035   -5.7448 C.3       2 RES2    0.0000
     42 C28        3.6634    3.6916   -6.1600 C.3       2 RES2    0.0000
     43 C29        4.5133    4.3936   -5.1191 C.3       2 RES2    0.0000
     44 C30        3.9409    5.7394   -4.7634 C.3       2 RES2    0.0000
     45 C31        2.4874    5.6489   -4.3380 C.3       2 RES2    0.0000
     46 C32       -1.4697    3.4132   -4.4875 C.3       2 RES2    0.0000
     47 C33       -1.7695    2.3785   -3.4190 C.3       2 RES2    0.0000
     48 C34       -2.0248    3.0527   -2.0775 C.3       2 RES2    0.0000
     49 C35       -0.8632    3.9333   -1.6710 C.3       2 RES2    0.0000
     50 C36       -0.5383    4.9614   -2.7352 C.3       2 RES2    0.0000
     51 H1         4.3629    4.6584   -1.7320 H         1 RES1    0.0000
     52 H2         6.8067    5.2650    1.7015 H         1 RES1    0.0000
     53 H3         5.5619    3.5741    2.9094 H         1 RES1    0.0000
     54 H4         3.0132    0.8650    3.4379 H         1 RES1    0.0000
     55 H5         1.7337    2.8812    0.9204 H         1 RES1    0.0000
     56 H6         1.6967    0.4509    0.9814 H         1 RES1    0.0000
     57 H7         1.2713    0.5009    2.6916 H         1 RES1    0.0000
     58 H8        -0.7549    0.2457    1.3502 H         1 RES1    0.0000
     59 H9        -0.3347    1.6757    0.4036 H         1 RES1    0.0000
     60 H10       -1.0379    1.5642    3.3333 H         1 RES1    0.0000
     61 H11       -1.9983    2.2748    2.0369 H         1 RES1    0.0000
     62 H12       -0.3645    3.9875    1.6913 H         1 RES1    0.0000
     63 H13       -0.7830    3.9386    3.4030 H         1 RES1    0.0000
     64 H14        1.2575    2.7138    3.9039 H         1 RES1    0.0000
     65 H15        1.6560    4.1875    3.0212 H         1 RES1    0.0000
     66 H16        4.7649    0.1322    1.8322 H         1 RES1    0.0000
     67 H17        5.8722    1.3219    2.5189 H         1 RES1    0.0000
     68 H18        6.3662   -0.8370    3.4742 H         1 RES1    0.0000
     69 H19        4.6756   -1.0734    3.9155 H         1 RES1    0.0000
     70 H20        6.5555    1.0056    5.0232 H         1 RES1    0.0000
     71 H21        5.9289   -0.4104    5.8682 H         1 RES1    0.0000
     72 H22        3.6756    0.4664    5.7157 H         1 RES1    0.0000
     73 H23        4.7371    1.6356    6.5012 H         1 RES1    0.0000
     74 H24        3.2336    2.7043    4.8563 H         1 RES1    0.0000
     75 H25        4.9317    2.8947    4.4164 H         1 RES1    0.0000
     76 H26       -0.6935    7.5872   -8.9184 H         2 RES2    0.0000
     77 H27       -3.3127    7.9123   -5.5793 H         2 RES2    0.0000
     78 H28       -2.0753    6.1994   -4.4048 H         2 RES2    0.0000
     79 H29        0.5587    3.6228   -3.8342 H         2 RES2    0.0000
     80 H30        1.8279    5.5619   -6.3792 H         2 RES2    0.0000
     81 H31        1.6295    3.1562   -6.5404 H         2 RES2    0.0000
     82 H32        2.1204    3.0000   -4.8534 H         2 RES2    0.0000
     83 H33        4.0458    2.6917   -6.2994 H         2 RES2    0.0000
     84 H34        3.7308    4.2352   -7.0921 H         2 RES2    0.0000
     85 H35        5.5121    4.5253   -5.5081 H         2 RES2    0.0000
     86 H36        4.5506    3.7838   -4.2276 H         2 RES2    0.0000
     87 H37        4.5168    6.1564   -3.9504 H         2 RES2    0.0000
     88 H38        4.0129    6.3866   -5.6257 H         2 RES2    0.0000
     89 H39        2.4082    5.0475   -3.4451 H         2 RES2    0.0000
     90 H40        2.1030    6.6384   -4.1420 H         2 RES2    0.0000
     91 H41       -2.3313    4.0509   -4.6211 H         2 RES2    0.0000
     92 H42       -1.2435    2.9149   -5.4181 H         2 RES2    0.0000
     93 H43       -2.6467    1.8165   -3.7050 H         2 RES2    0.0000
     94 H44       -0.9280    1.7075   -3.3261 H         2 RES2    0.0000
     95 H45       -2.1726    2.2941   -1.3226 H         2 RES2    0.0000
     96 H46       -2.9135    3.6631   -2.1530 H         2 RES2    0.0000
     97 H47       -1.1076    4.4416   -0.7506 H         2 RES2    0.0000
     98 H48        0.0058    3.3103   -1.5186 H         2 RES2    0.0000
     99 H49       -1.3755    5.6359   -2.8412 H         2 RES2    0.0000
    100 H50        0.3390    5.5210   -2.4463 H         2 RES2    0.0000
@<TRIPOS>BOND
     1    1    6 2
     2    2    6 2
     3    3    7 2
     4    4    7 2
     5    5    8 1
     6    6    9 1
     7    7   11 1
     8    8    9 ar
     9    9   10 ar
    10   10   11 ar
    11   11   12 ar
    12   12   13 ar
    13   13    8 ar
    14   14    5 1
    15   15    5 1
    16   16   15 1
    17   17   16 1
    18   18   17 1
    19   19   18 1
    20   20   15 1
    21   21   14 1
    22   22   21 1
    23   23   22 1
    24   24   23 1
    25   25   14 1
    26   26   31 2
    27   27   31 2
    28   28   32 2
    29   29   32 2
    30   30   33 1
    31   31   34 1
    32   32   36 1
    33   33   34 ar
    34   34   35 ar
    35   35   36 ar
    36   36   37 ar
    37   37   38 ar
    38   38   33 ar
    39   39   30 1
    40   40   30 1
    41   41   40 1
    42   42   41 1
    43   43   42 1
    44   44   43 1
    45   45   40 1
    46   46   39 1
    47   47   46 1
    48   48   47 1
    49   49   48 1
    50   50   39 1
    51   51   10 1
    52   52   12 1
    53   53   13 1
    54   54   14 1
    55   55   15 1
    56   56   16 1
    57   57   16 1
    58   58   17 1
    59   59   17 1
    60   60   18 1
    61   61   18 1
    62   62   19 1
    63   63   19 1
    64   64   20 1
    65   65   20 1
    66   66   21 1
    67   67   21 1
    68   68   22 1
    69   69   22 1
    70   70   23 1
    71   71   23 1
    72   72   24 1
    73   73   24 1
    74   74   25 1
    75   75   25 1
    76   76   35 1
    77   77   37 1
    78   78   38 1
    79   79   39 1
    80   80   40 1
    81   81   41 1
    82   82   41 1
    83   83   42 1
    84   84   42 1
    85   85   43 1
    86   86   43 1
    87   87   44 1
    88   88   44 1
    89   89   45 1
    90   90   45 1
    91   91   46 1
    92   92   46 1
    93   93   47 1
    94   94   47 1
    95   95   48 1
    96   96   48 1
    97   97   49 1
    98   98   49 1
    99   99   50 1
   100  100   50 1
   101   19   20 1
   102   24   25 1
   103   44   45 1
   104   49   50 1
@<TRIPOS>SUBSTRUCTURE
     1 RES1 1
     2 RES2 26

@<TRIPOS>CRYSIN
   9.8810   12.6870   15.4380 109.6500  90.9400  95.7800   2 1

