# MOL2 file generated by ConQuest
# Please check atom types

@<TRIPOS>MOLECULE
TEBBUX
    56    64     2
SMALL
NO_CHARGES
****
Generated from CSD

@<TRIPOS>ATOM
      1 O1        -2.2007    2.6211    7.2968 O.2       1 RES1    0.0000
      2 O2        -4.3914    1.8777   10.1896 O.2       1 RES1    0.0000
      3 O3         0.3795   -1.4531    7.1865 O.2       1 RES1    0.0000
      4 O4         0.3245   -2.0788    9.2185 O.2       1 RES1    0.0000
      5 N1        -0.1293   -1.4610    8.2845 N.pl3     1 RES1    0.0000
      6 C1        -2.1005    1.4379    7.5127 C.2       1 RES1    0.0000
      7 C2        -1.0880    0.8512    8.4866 C.3       1 RES1    0.0000
      8 C3        -1.3885    1.2950    9.9275 C.3       1 RES1    0.0000
      9 C4        -2.5098    0.3691   10.3878 C.3       1 RES1    0.0000
     10 C5        -3.8620    0.8347    9.8651 C.2       1 RES1    0.0000
     11 C6        -4.4340   -0.1131    8.8215 C.3       1 RES1    0.0000
     12 C7        -4.4489    0.5529    7.4347 C.3       1 RES1    0.0000
     13 C8        -3.0068    0.3724    6.9195 C.3       1 RES1    0.0000
     14 C9        -1.3660   -0.6482    8.4799 C.3       1 RES1    0.0000
     15 C10       -2.2544   -0.9716    9.6927 C.3       1 RES1    0.0000
     16 C11       -3.4328   -1.2620    8.7190 C.3       1 RES1    0.0000
     17 C12       -2.5256   -0.9524    7.5039 C.3       1 RES1    0.0000
     18 O5         0.6577   -3.3176    2.4636 O.2       2 RES2    0.0000
     19 O6         4.2517   -2.4366    2.1151 O.2       2 RES2    0.0000
     20 O7        -0.9613    0.8155    4.2559 O.2       2 RES2    0.0000
     21 O8         0.7351    1.5153    5.3451 O.2       2 RES2    0.0000
     22 N2         0.2326    0.8644    4.4553 N.pl3     2 RES2    0.0000
     23 C13        0.7692   -2.1218    2.5734 C.2       2 RES2    0.0000
     24 C14        1.0486   -1.4260    3.9107 C.3       2 RES2    0.0000
     25 C15        2.4408   -1.7448    4.4654 C.3       2 RES2    0.0000
     26 C16        3.3814   -0.8148    3.6759 C.3       2 RES2    0.0000
     27 C17        3.6655   -1.3942    2.3018 C.2       2 RES2    0.0000
     28 C18        3.0510   -0.5662    1.1923 C.3       2 RES2    0.0000
     29 C19        1.9299   -1.3235    0.4972 C.3       2 RES2    0.0000
     30 C20        0.7103   -1.1369    1.4248 C.3       2 RES2    0.0000
     31 C21        1.1015    0.0582    3.5624 C.3       2 RES2    0.0000
     32 C22        2.5820    0.4636    3.4213 C.3       2 RES2    0.0000
     33 C23        2.3754    0.6204    1.8902 C.3       2 RES2    0.0000
     34 C24        0.8839    0.2467    2.0373 C.3       2 RES2    0.0000
     35 H1        -0.1861    1.1178    8.1482 H         1 RES1    0.0000
     36 H2        -1.6825    2.1694    9.9206 H         1 RES1    0.0000
     37 H3        -0.5852    1.1178   10.5190 H         1 RES1    0.0000
     38 H4        -2.5750    0.2579   11.3476 H         1 RES1    0.0000
     39 H5        -5.3907   -0.4365    9.0689 H         1 RES1    0.0000
     40 H6        -4.8266    1.5477    7.5037 H         1 RES1    0.0000
     41 H7        -5.0944    0.0992    6.9053 H         1 RES1    0.0000
     42 H8        -2.9256    0.4233    5.9615 H         1 RES1    0.0000
     43 H9        -1.8994   -1.6733   10.2888 H         1 RES1    0.0000
     44 H10       -3.8236   -2.0570    8.7236 H         1 RES1    0.0000
     45 H11       -2.3396   -1.6535    6.9283 H         1 RES1    0.0000
     46 H12        0.3769   -1.6601    4.4884 H         2 RES2    0.0000
     47 H13        2.7807   -2.7316    4.2813 H         2 RES2    0.0000
     48 H14        2.4212   -1.5146    5.4552 H         2 RES2    0.0000
     49 H15        4.3109   -0.6614    4.1662 H         2 RES2    0.0000
     50 H16        3.7605   -0.3373    0.5754 H         2 RES2    0.0000
     51 H17        2.0831   -2.4141    0.3913 H         2 RES2    0.0000
     52 H18        1.7698   -0.9260   -0.3913 H         2 RES2    0.0000
     53 H19       -0.1384   -1.3162    1.0128 H         2 RES2    0.0000
     54 H20        2.9421    1.2434    3.9590 H         2 RES2    0.0000
     55 H21        2.5951    1.4154    1.5192 H         2 RES2    0.0000
     56 H22        0.2809    0.9260    1.8184 H         2 RES2    0.0000
@<TRIPOS>BOND
     1    1    6 2
     2    2   10 2
     3    3    5 2
     4    4    5 2
     5    5   14 1
     6    6    7 1
     7    7    8 1
     8    8    9 1
     9    9   10 1
    10   10   11 1
    11   11   12 1
    12   12   13 1
    13   13    6 1
    14   14    7 1
    15   15    9 1
    16   16   11 1
    17   17   13 1
    18   18   23 2
    19   19   27 2
    20   20   22 2
    21   21   22 2
    22   22   31 1
    23   23   24 1
    24   24   25 1
    25   25   26 1
    26   26   27 1
    27   27   28 1
    28   28   29 1
    29   29   30 1
    30   30   23 1
    31   31   24 1
    32   32   26 1
    33   33   28 1
    34   34   30 1
    35   35    7 1
    36   36    8 1
    37   37    8 1
    38   38    9 1
    39   39   11 1
    40   40   12 1
    41   41   12 1
    42   42   13 1
    43   43   15 1
    44   44   16 1
    45   45   17 1
    46   46   24 1
    47   47   25 1
    48   48   25 1
    49   49   26 1
    50   50   28 1
    51   51   29 1
    52   52   29 1
    53   53   30 1
    54   54   32 1
    55   55   33 1
    56   56   34 1
    57   14   15 1
    58   14   17 1
    59   15   16 1
    60   16   17 1
    61   31   32 1
    62   31   34 1
    63   32   33 1
    64   33   34 1
@<TRIPOS>SUBSTRUCTURE
     1 RES1 1
     2 RES2 18

@<TRIPOS>CRYSIN
  13.3780    6.6140   23.0400  90.0000  92.5300  90.0000 231 1

