# MOL2 file generated by ConQuest
# Please check atom types

@<TRIPOS>MOLECULE
TEBCAE
    32    37     1
SMALL
NO_CHARGES
****
Generated from CSD

@<TRIPOS>ATOM
      1 O1         2.1260    1.4185   12.6702 O.2       1 RES1    0.0000
      2 O2         1.0446    1.4386   10.8610 O.2       1 RES1    0.0000
      3 O3        -0.2672    3.6688   12.5270 O.2       1 RES1    0.0000
      4 O4        -0.8405    4.1153   10.5257 O.2       1 RES1    0.0000
      5 O5         5.9433    5.3928    9.1736 O.2       1 RES1    0.0000
      6 O6         5.3253    3.5584    8.2821 O.2       1 RES1    0.0000
      7 N1         1.8439    1.9237   11.6320 N.pl3     1 RES1    0.0000
      8 N2         0.0115    4.0435   11.4076 N.pl3     1 RES1    0.0000
      9 N3         5.1865    4.4507    9.0698 N.pl3     1 RES1    0.0000
     10 C1         2.4700    3.2362   11.2644 C.3       1 RES1    0.0000
     11 C2         3.1236    3.1924    9.8681 C.3       1 RES1    0.0000
     12 C3         2.0159    3.6145    8.9027 C.3       1 RES1    0.0000
     13 C4         1.6627    4.8902    9.6617 C.3       1 RES1    0.0000
     14 C5         1.4414    4.4218   11.1105 C.3       1 RES1    0.0000
     15 C6         1.9987    5.4664   12.1177 C.3       1 RES1    0.0000
     16 C7         2.5881    4.6057   13.2466 C.3       1 RES1    0.0000
     17 C8         3.4642    3.7738   12.3134 C.3       1 RES1    0.0000
     18 C9         3.9997    4.4428    9.9720 C.3       1 RES1    0.0000
     19 C10        2.9998    5.6187    9.8323 C.3       1 RES1    0.0000
     20 C11        3.1924    5.9698   11.3253 C.3       1 RES1    0.0000
     21 C12        4.2095    4.8053   11.4744 C.3       1 RES1    0.0000
     22 H1         3.4974    2.5743    9.6068 H         1 RES1    0.0000
     23 H2         1.1123    3.0646    8.6759 H         1 RES1    0.0000
     24 H3         2.3393    3.7125    8.0315 H         1 RES1    0.0000
     25 H4         0.8600    5.7790    9.3442 H         1 RES1    0.0000
     26 H5         1.5939    6.1292   12.4113 H         1 RES1    0.0000
     27 H6         1.8233    4.1941   13.8314 H         1 RES1    0.0000
     28 H7         3.1076    5.2536   13.8791 H         1 RES1    0.0000
     29 H8         4.0823    2.9508   12.7335 H         1 RES1    0.0000
     30 H9         3.3254    6.3919    9.1414 H         1 RES1    0.0000
     31 H10        3.7497    6.6721   11.5639 H         1 RES1    0.0000
     32 H11        5.0913    5.1748   11.8981 H         1 RES1    0.0000
@<TRIPOS>BOND
     1    1    7 2
     2    2    7 2
     3    3    8 2
     4    4    8 2
     5    5    9 2
     6    6    9 2
     7    7   10 1
     8    8   14 1
     9    9   18 1
    10   10   11 1
    11   11   12 1
    12   12   13 1
    13   13   14 1
    14   14   10 1
    15   15   14 1
    16   16   15 1
    17   17   10 1
    18   18   11 1
    19   19   13 1
    20   20   15 1
    21   21   17 1
    22   22   11 1
    23   23   12 1
    24   24   12 1
    25   25   13 1
    26   26   15 1
    27   27   16 1
    28   28   16 1
    29   29   17 1
    30   30   19 1
    31   31   20 1
    32   32   21 1
    33   16   17 1
    34   18   19 1
    35   18   21 1
    36   19   20 1
    37   20   21 1
@<TRIPOS>SUBSTRUCTURE
     1 RES1 1

@<TRIPOS>CRYSIN
  11.4670    8.7560   11.9339  90.0000  90.0000  90.0000  33 1

