# MOL2 file generated by ConQuest
# Please check atom types

@<TRIPOS>MOLECULE
TEBKEQ
   112   117     1
SMALL
NO_CHARGES
****
Generated from CSD

@<TRIPOS>ATOM
      1 O1         6.5687    3.4289    8.6225 O.3       1 RES1    0.0000
      2 O2         5.0919    3.5695    5.6165 O.3       1 RES1    0.0000
      3 O3        10.6226    0.7429    4.9963 O.2       1 RES1    0.0000
      4 O4        10.7678    2.1952    3.4305 O.2       1 RES1    0.0000
      5 O5         7.4391    5.9283    6.5478 O.3       1 RES1    0.0000
      6 O6         8.5361    6.2188    9.6218 O.3       1 RES1    0.0000
      7 O7        12.4520    1.9277    7.4193 O.2       1 RES1    0.0000
      8 O8        12.8054    3.4472    6.0244 O.2       1 RES1    0.0000
      9 N1        10.1493    1.6663    4.3535 N.pl3     1 RES1    0.0000
     10 N2        12.2184    3.0131    6.9969 N.pl3     1 RES1    0.0000
     11 C1         7.1652    2.2319    8.9748 C.ar      1 RES1    0.0000
     12 C2         8.0842    2.1937    9.9597 C.ar      1 RES1    0.0000
     13 C3         8.6599    0.9432   10.2955 C.ar      1 RES1    0.0000
     14 C4         8.2404   -0.2201    9.6650 C.ar      1 RES1    0.0000
     15 C5         7.3580   -0.0933    8.6184 C.ar      1 RES1    0.0000
     16 C6         6.7661    1.0976    8.2434 C.ar      1 RES1    0.0000
     17 C7         5.9973    1.2092    7.0134 C.3       1 RES1    0.0000
     18 C8         5.1630    3.6001    9.1417 C.3       1 RES1    0.0000
     19 C9         5.1927    4.0816   10.3862 C.3       1 RES1    0.0000
     20 C10        3.6059    4.2345   10.8065 C.3       1 RES1    0.0000
     21 C11        8.9116   -1.5593    9.9659 C.3       1 RES1    0.0000
     22 C12        9.9596   -1.9934    8.9089 C.ar      1 RES1    0.0000
     23 C13       10.2742   -3.3326    8.6658 C.ar      1 RES1    0.0000
     24 C14       11.1840   -3.7147    7.7551 C.ar      1 RES1    0.0000
     25 C15       11.9081   -2.7196    7.0855 C.ar      1 RES1    0.0000
     26 C16       11.6451   -1.3972    7.2586 C.ar      1 RES1    0.0000
     27 C17       10.6870   -0.9937    8.2166 C.ar      1 RES1    0.0000
     28 C18        9.5952   -4.3813    9.3045 C.3       1 RES1    0.0000
     29 C19        6.3611    3.0696    5.2951 C.ar      1 RES1    0.0000
     30 C20        7.1803    3.8432    4.4338 C.ar      1 RES1    0.0000
     31 C21        8.4211    3.3142    4.1269 C.ar      1 RES1    0.0000
     32 C22        8.8534    2.1677    4.7141 C.ar      1 RES1    0.0000
     33 C23        8.0522    1.4645    5.6185 C.ar      1 RES1    0.0000
     34 C24        6.8284    1.9216    5.9544 C.ar      1 RES1    0.0000
     35 C25        6.7368    5.1823    3.9023 C.3       1 RES1    0.0000
     36 C26        4.0393    3.0054    4.8212 C.3       1 RES1    0.0000
     37 C27        2.7370    3.6322    5.2868 C.3       1 RES1    0.0000
     38 C28        2.6480    5.1104    5.0705 C.3       1 RES1    0.0000
     39 C29        8.1799    6.4924    5.5176 C.ar      1 RES1    0.0000
     40 C30        9.2686    7.2262    5.8163 C.ar      1 RES1    0.0000
     41 C31        9.9937    7.7841    4.7841 C.ar      1 RES1    0.0000
     42 C32        9.6014    7.6297    3.4758 C.ar      1 RES1    0.0000
     43 C33        8.5304    6.8180    3.1894 C.ar      1 RES1    0.0000
     44 C34        7.7817    6.2249    4.1990 C.ar      1 RES1    0.0000
     45 C35        9.7645    7.2904    7.2421 C.3       1 RES1    0.0000
     46 C36        6.1429    6.4878    6.7641 C.3       1 RES1    0.0000
     47 C37        6.0218    7.3989    7.8664 C.3       1 RES1    0.0000
     48 C38        4.6092    7.8086    8.1610 C.3       1 RES1    0.0000
     49 C39        9.4421    5.3978    8.9480 C.ar      1 RES1    0.0000
     50 C40        9.6221    4.0939    9.3704 C.ar      1 RES1    0.0000
     51 C41       10.5375    3.3066    8.6967 C.ar      1 RES1    0.0000
     52 C42       11.2248    3.8539    7.6459 C.ar      1 RES1    0.0000
     53 C43       11.0103    5.1211    7.1885 C.ar      1 RES1    0.0000
     54 C44       10.1006    5.9283    7.8210 C.ar      1 RES1    0.0000
     55 C45        8.7159    3.4640   10.4562 C.3       1 RES1    0.0000
     56 C46        9.1805    6.9648   10.6849 C.3       1 RES1    0.0000
     57 C47        8.0605    7.8529   11.2762 C.3       1 RES1    0.0000
     58 C48        8.6174    8.7472   12.3476 C.3       1 RES1    0.0000
     59 H1         9.2950    0.8958   11.0001 H         1 RES1    0.0000
     60 H2         7.1317   -0.9218    8.2125 H         1 RES1    0.0000
     61 H3         5.2173    1.7198    7.1968 H         1 RES1    0.0000
     62 H4         5.7484    0.3562    6.6796 H         1 RES1    0.0000
     63 H5         4.7262    2.7578    9.1335 H         1 RES1    0.0000
     64 H6         4.6897    4.2100    8.5916 H         1 RES1    0.0000
     65 H7         5.6348    4.9194   10.4150 H         1 RES1    0.0000
     66 H8         5.6413    3.4671   10.9589 H         1 RES1    0.0000
     67 H9         3.5379    4.5586   11.6924 H         1 RES1    0.0000
     68 H10        3.1855    4.8292   10.2069 H         1 RES1    0.0000
     69 H11        3.1921    3.3769   10.7508 H         1 RES1    0.0000
     70 H12        8.2282   -2.2212   10.0235 H         1 RES1    0.0000
     71 H13        9.3480   -1.4844   10.8044 H         1 RES1    0.0000
     72 H14       11.3347   -4.6289    7.5470 H         1 RES1    0.0000
     73 H15       12.6375   -2.9657    6.5292 H         1 RES1    0.0000
     74 H16       12.0895   -0.7338    6.7394 H         1 RES1    0.0000
     75 H17       10.5240   -0.0688    8.3856 H         1 RES1    0.0000
     76 H18        8.9687   -4.0205    9.9226 H         1 RES1    0.0000
     77 H19        9.1340   -4.9102    8.6617 H         1 RES1    0.0000
     78 H20       10.2228   -4.9209    9.7681 H         1 RES1    0.0000
     79 H21        8.9213    3.7117    3.4243 H         1 RES1    0.0000
     80 H22        8.2820    0.5687    5.8349 H         1 RES1    0.0000
     81 H23        6.6703    5.0952    2.9586 H         1 RES1    0.0000
     82 H24        5.8923    5.4345    4.2587 H         1 RES1    0.0000
     83 H25        4.0264    2.0592    4.9118 H         1 RES1    0.0000
     84 H26        4.1731    3.2332    3.9085 H         1 RES1    0.0000
     85 H27        2.6526    3.4503    6.2140 H         1 RES1    0.0000
     86 H28        2.0194    3.2225    4.8171 H         1 RES1    0.0000
     87 H29        1.8155    5.4391    5.3940 H         1 RES1    0.0000
     88 H30        3.3571    5.5308    5.5423 H         1 RES1    0.0000
     89 H31        2.7257    5.3015    4.1433 H         1 RES1    0.0000
     90 H32       10.7501    8.3161    5.0025 H         1 RES1    0.0000
     91 H33       10.1143    8.0838    2.8165 H         1 RES1    0.0000
     92 H34        8.3347    6.6575    2.2746 H         1 RES1    0.0000
     93 H35        9.1009    7.7169    7.7716 H         1 RES1    0.0000
     94 H36       10.5459    7.8315    7.2174 H         1 RES1    0.0000
     95 H37        5.8833    6.9434    5.9729 H         1 RES1    0.0000
     96 H38        5.5459    5.7663    6.9248 H         1 RES1    0.0000
     97 H39        6.3951    6.9923    8.6390 H         1 RES1    0.0000
     98 H40        6.5108    8.1862    7.6562 H         1 RES1    0.0000
     99 H41        4.5711    8.4140    8.8924 H         1 RES1    0.0000
    100 H42        4.2324    8.2183    7.3925 H         1 RES1    0.0000
    101 H43        4.1166    7.0244    8.3753 H         1 RES1    0.0000
    102 H44       10.6781    2.4046    8.9563 H         1 RES1    0.0000
    103 H45       11.3339    5.3749    6.3314 H         1 RES1    0.0000
    104 H46        9.3018    3.1430   11.1320 H         1 RES1    0.0000
    105 H47        8.0895    4.0648   10.8415 H         1 RES1    0.0000
    106 H48        9.8681    7.5105   10.3285 H         1 RES1    0.0000
    107 H49        9.5428    6.3930   11.3525 H         1 RES1    0.0000
    108 H50        7.3842    7.2950   11.6430 H         1 RES1    0.0000
    109 H51        7.6867    8.3971   10.5922 H         1 RES1    0.0000
    110 H52        8.9944    8.1801   13.0090 H         1 RES1    0.0000
    111 H53        7.9635    9.3098   12.7494 H         1 RES1    0.0000
    112 H54        9.2969    9.2823   11.9582 H         1 RES1    0.0000
@<TRIPOS>BOND
     1    1   11 1
     2    2   29 1
     3    3    9 2
     4    4    9 2
     5    5   39 1
     6    6   49 1
     7    7   10 2
     8    8   10 2
     9    9   32 1
    10   10   52 1
    11   11   12 ar
    12   12   13 ar
    13   13   14 ar
    14   14   15 ar
    15   15   16 ar
    16   16   11 ar
    17   17   16 1
    18   18    1 1
    19   19   18 1
    20   20   19 1
    21   21   14 1
    22   22   21 1
    23   23   22 ar
    24   24   23 ar
    25   25   24 ar
    26   26   25 ar
    27   27   22 ar
    28   28   23 1
    29   29   30 ar
    30   30   31 ar
    31   31   32 ar
    32   32   33 ar
    33   33   34 ar
    34   34   17 1
    35   35   30 1
    36   36    2 1
    37   37   36 1
    38   38   37 1
    39   39   40 ar
    40   40   41 ar
    41   41   42 ar
    42   42   43 ar
    43   43   44 ar
    44   44   35 1
    45   45   40 1
    46   46    5 1
    47   47   46 1
    48   48   47 1
    49   49   50 ar
    50   50   51 ar
    51   51   52 ar
    52   52   53 ar
    53   53   54 ar
    54   54   45 1
    55   55   12 1
    56   56    6 1
    57   57   56 1
    58   58   57 1
    59   59   13 1
    60   60   15 1
    61   61   17 1
    62   62   17 1
    63   63   18 1
    64   64   18 1
    65   65   19 1
    66   66   19 1
    67   67   20 1
    68   68   20 1
    69   69   20 1
    70   70   21 1
    71   71   21 1
    72   72   24 1
    73   73   25 1
    74   74   26 1
    75   75   27 1
    76   76   28 1
    77   77   28 1
    78   78   28 1
    79   79   31 1
    80   80   33 1
    81   81   35 1
    82   82   35 1
    83   83   36 1
    84   84   36 1
    85   85   37 1
    86   86   37 1
    87   87   38 1
    88   88   38 1
    89   89   38 1
    90   90   41 1
    91   91   42 1
    92   92   43 1
    93   93   45 1
    94   94   45 1
    95   95   46 1
    96   96   46 1
    97   97   47 1
    98   98   47 1
    99   99   48 1
   100  100   48 1
   101  101   48 1
   102  102   51 1
   103  103   53 1
   104  104   55 1
   105  105   55 1
   106  106   56 1
   107  107   56 1
   108  108   57 1
   109  109   57 1
   110  110   58 1
   111  111   58 1
   112  112   58 1
   113   26   27 ar
   114   29   34 ar
   115   39   44 ar
   116   49   54 ar
   117   50   55 1
@<TRIPOS>SUBSTRUCTURE
     1 RES1 1

@<TRIPOS>CRYSIN
  13.4090   15.2870   21.0210  90.0000 101.4400  90.0000  14 1

