# MOL2 file generated by ConQuest
# Please check atom types

@<TRIPOS>MOLECULE
TEBLES
    78    82     1
SMALL
USER_CHARGES
****
Generated from CSD

@<TRIPOS>ATOM
      1 O1         6.4173   14.2532    7.9547 O.3       1 RES1    0.0000
      2 O2         5.1063   13.0969    9.6587 O.2       1 RES1   -1.0000
      3 O3         6.5541   10.7710   10.3046 O.3       1 RES1    0.0000
      4 O4         7.0507   13.7194   12.3843 O.3       1 RES1    0.0000
      5 O5         4.9723   14.5544   12.6598 O.2       1 RES1    0.0000
      6 O6         6.4013   11.7666   14.2816 O.3       1 RES1    0.0000
      7 O7         8.1790   11.0655   15.4756 O.2       1 RES1    0.0000
      8 O8         7.2878    8.9990   13.4194 O.3       1 RES1    0.0000
      9 O9         5.4783    9.0007   14.7719 O.2       1 RES1    0.0000
     10 O10        5.3068    8.3029   10.7887 O.3       1 RES1    0.0000
     11 O11        5.4877    6.1377   10.2092 O.2       1 RES1    0.0000
     12 N1         7.1557   13.4918    8.8105 N.2       1 RES1    0.0000
     13 N2         6.3610   12.9446    9.6352 N.pl3     1 RES1    1.0000
     14 C1         6.9908   12.0662   10.6312 C.3       1 RES1    0.0000
     15 H1         7.9672   12.1247   10.5670 H         1 RES1    0.0000
     16 C2         6.5269   12.4309   12.0343 C.3       1 RES1    0.0000
     17 H2         5.5476   12.4560   12.0600 H         1 RES1    0.0000
     18 C3         7.0357   11.4119   13.0368 C.3       1 RES1    0.0000
     19 H3         8.0094   11.4822   13.1225 H         1 RES1    0.0000
     20 C4         6.6525   10.0164   12.5891 C.3       1 RES1    0.0000
     21 H4         5.6788    9.9126   12.6277 H         1 RES1    0.0000
     22 C5         7.1351    9.7671   11.1689 C.3       1 RES1    0.0000
     23 H5         8.1115    9.8457   11.1432 H         1 RES1    0.0000
     24 C6         6.7359    8.4385   10.6034 C.3       1 RES1    0.0000
     25 H6         6.9580    8.3933    9.6609 H         1 RES1    0.0000
     26 H7         7.2026    7.7223   11.0639 H         1 RES1    0.0000
     27 C7         6.1689   14.6966   12.7455 C.2       1 RES1    0.0000
     28 C8         6.8652   15.8813   13.2725 C.ar      1 RES1    0.0000
     29 C9         8.2390   15.9047   13.4588 C.ar      1 RES1    0.0000
     30 H8         8.7516   15.1651   13.2253 H         1 RES1    0.0000
     31 C10        8.8490   17.0275   13.9901 C.ar      1 RES1    0.0000
     32 H9         9.7674   17.0375   14.1379 H         1 RES1    0.0000
     33 C11        8.0750   18.1469   14.3049 C.ar      1 RES1    0.0000
     34 H10        8.4817   18.9116   14.6434 H         1 RES1    0.0000
     35 C12        6.7246   18.1218   14.1164 C.ar      1 RES1    0.0000
     36 H11        6.2167   18.8681   14.3414 H         1 RES1    0.0000
     37 C13        6.1033   17.0108   13.6023 C.ar      1 RES1    0.0000
     38 H12        5.1822   17.0074   13.4738 H         1 RES1    0.0000
     39 C14        7.0882   11.5424   15.4445 C.2       1 RES1    0.0000
     40 C15        6.2945   11.9658   16.6056 C.ar      1 RES1    0.0000
     41 C16        5.1934   12.7874   16.5049 C.ar      1 RES1    0.0000
     42 H13        4.9291   13.1003   15.6695 H         1 RES1    0.0000
     43 C17        4.4718   13.1538   17.6338 C.ar      1 RES1    0.0000
     44 H14        3.7353   13.7160   17.5609 H         1 RES1    0.0000
     45 C18        4.8664   12.6719   18.8676 C.ar      1 RES1    0.0000
     46 H15        4.3931   12.9179   19.6302 H         1 RES1    0.0000
     47 C19        5.9459   11.8353   18.9833 C.ar      1 RES1    0.0000
     48 H16        6.1895   11.5073   19.8187 H         1 RES1    0.0000
     49 C20        6.6703   11.4788   17.8673 C.ar      1 RES1    0.0000
     50 H17        7.4068   10.9166   17.9508 H         1 RES1    0.0000
     51 C21        6.5822    8.5773   14.5020 C.2       1 RES1    0.0000
     52 C22        7.2831    7.5616   15.3010 C.ar      1 RES1    0.0000
     53 C23        6.6722    7.0965   16.4685 C.ar      1 RES1    0.0000
     54 H18        5.8756    7.4830   16.7534 H         1 RES1    0.0000
     55 C24        7.2363    6.0741   17.2032 C.ar      1 RES1    0.0000
     56 H19        6.8305    5.7846   17.9894 H         1 RES1    0.0000
     57 C25        8.4011    5.4817   16.7705 C.ar      1 RES1    0.0000
     58 H20        8.7713    4.7756   17.2503 H         1 RES1    0.0000
     59 C26        9.0074    5.9268   15.6416 C.ar      1 RES1    0.0000
     60 H21        9.7936    5.5219   15.3546 H         1 RES1    0.0000
     61 C27        8.4723    6.9844   14.9026 C.ar      1 RES1    0.0000
     62 H22        8.9146    7.2973   14.1464 H         1 RES1    0.0000
     63 C28        4.7961    7.0630   10.5820 C.2       1 RES1    0.0000
     64 C29        3.3548    6.9860   10.8862 C.ar      1 RES1    0.0000
     65 C30        2.6520    8.0820   11.3767 C.ar      1 RES1    0.0000
     66 H23        3.0756    8.9036   11.4752 H         1 RES1    0.0000
     67 C31        1.3110    7.9398   11.7130 C.ar      1 RES1    0.0000
     68 H24        0.8378    8.6643   12.0493 H         1 RES1    0.0000
     69 C32        0.6785    6.7166   11.5502 C.ar      1 RES1    0.0000
     70 H25       -0.2212    6.6263   11.7666 H         1 RES1    0.0000
     71 C33        1.3785    5.6390   11.0682 C.ar      1 RES1    0.0000
     72 H26        0.9596    4.8141   10.9761 H         1 RES1    0.0000
     73 C34        2.7073    5.7846   10.7255 C.ar      1 RES1    0.0000
     74 H27        3.1721    5.0567   10.3785 H         1 RES1    0.0000
     75 C35        7.2925   14.8187    6.9640 C.3       1 RES1    0.0000
     76 H28        6.7790   15.3475    6.3492 H         1 RES1    0.0000
     77 H29        7.7339   14.1126    6.4863 H         1 RES1    0.0000
     78 H30        7.9475   15.3726    7.3945 H         1 RES1    0.0000
@<TRIPOS>BOND
     1    1   12 1
     2    2   13 1
     3    3   14 1
     4    4   16 1
     5    5   27 2
     6    6   18 1
     7    7   39 2
     8    8   20 1
     9    9   51 2
    10   10   24 1
    11   11   63 2
    12   12   13 2
    13   13   14 1
    14   14   15 1
    15   16   14 1
    16   17   16 1
    17   18   16 1
    18   19   18 1
    19   20   18 1
    20   21   20 1
    21   22    3 1
    22   23   22 1
    23   24   22 1
    24   25   24 1
    25   26   24 1
    26   27    4 1
    27   28   27 1
    28   29   28 ar
    29   30   29 1
    30   31   29 ar
    31   32   31 1
    32   33   31 ar
    33   34   33 1
    34   35   33 ar
    35   36   35 1
    36   37   28 ar
    37   38   37 1
    38   39    6 1
    39   40   39 1
    40   41   40 ar
    41   42   41 1
    42   43   41 ar
    43   44   43 1
    44   45   43 ar
    45   46   45 1
    46   47   45 ar
    47   48   47 1
    48   49   40 ar
    49   50   49 1
    50   51    8 1
    51   52   51 1
    52   53   52 ar
    53   54   53 1
    54   55   53 ar
    55   56   55 1
    56   57   55 ar
    57   58   57 1
    58   59   57 ar
    59   60   59 1
    60   61   52 ar
    61   62   61 1
    62   63   10 1
    63   64   63 1
    64   65   64 ar
    65   66   65 1
    66   67   65 ar
    67   68   67 1
    68   69   67 ar
    69   70   69 1
    70   71   69 ar
    71   72   71 1
    72   73   64 ar
    73   74   73 1
    74   75    1 1
    75   76   75 1
    76   77   75 1
    77   78   75 1
    78   20   22 1
    79   35   37 ar
    80   47   49 ar
    81   59   61 ar
    82   71   73 ar
@<TRIPOS>SUBSTRUCTURE
     1 RES1 1

@<TRIPOS>CRYSIN
   9.3710   16.7330   21.4210  90.0000  90.0000  90.0000  19 1

