# MOL2 file generated by ConQuest
# Please check atom types

@<TRIPOS>MOLECULE
TEBLIW
    50    50     1
SMALL
NO_CHARGES
****
Generated from CSD

@<TRIPOS>ATOM
      1 O1         4.1960    6.3399    1.8565 O.2       1 RES1    0.0000
      2 O2         1.6905    5.8909    1.8948 O.3       1 RES1    0.0000
      3 O3         1.2384    3.0988    2.5149 O.3       1 RES1    0.0000
      4 O4         0.0200    1.3458    5.4959 O.3       1 RES1    0.0000
      5 O5        -2.1999    1.3659    5.1690 O.2       1 RES1    0.0000
      6 O6         0.1288    4.0074    6.3464 O.3       1 RES1    0.0000
      7 O7         1.7861    3.9755    7.8509 O.2       1 RES1    0.0000
      8 O8         2.4546    5.3944    5.0310 O.3       1 RES1    0.0000
      9 O9         0.9426    6.9603    5.5920 O.2       1 RES1    0.0000
     10 O10        0.8596    0.5563    1.4337 O.3       1 RES1    0.0000
     11 O11       -0.8968   -0.5523    0.6118 O.2       1 RES1    0.0000
     12 N1         3.9265    5.2558    2.3442 N.2       1 RES1    0.0000
     13 N2         2.6159    4.9212    2.2461 N.3       1 RES1    0.0000
     14 C1         2.1432    3.9434    3.1942 C.3       1 RES1    0.0000
     15 H1         2.9021    3.4117    3.5123 H         1 RES1    0.0000
     16 C2         1.4479    4.5936    4.3902 C.3       1 RES1    0.0000
     17 H2         0.6873    5.1414    4.1043 H         1 RES1    0.0000
     18 C3         1.0027    3.4801    5.3301 C.3       1 RES1    0.0000
     19 H3         1.7838    3.0570    5.7444 H         1 RES1    0.0000
     20 C4         0.1889    2.4442    4.5784 C.3       1 RES1    0.0000
     21 H4        -0.6856    2.8169    4.3383 H         1 RES1    0.0000
     22 C5         0.9031    1.9542    3.3293 C.3       1 RES1    0.0000
     23 H5         1.7209    1.4773    3.5812 H         1 RES1    0.0000
     24 C6         0.0246    1.0539    2.4964 C.3       1 RES1    0.0000
     25 H6        -0.3165    0.3212    3.0325 H         1 RES1    0.0000
     26 H7        -0.7262    1.5497    2.1357 H         1 RES1    0.0000
     27 C7         0.2678   -0.2700    0.5514 C.2       1 RES1    0.0000
     28 C8         1.2407   -0.7360   -0.4740 C.3       1 RES1    0.0000
     29 H8         2.1180   -0.3389   -0.2970 H         1 RES1    0.0000
     30 H9         0.9328   -0.4642   -1.3648 H         1 RES1    0.0000
     31 H10        1.3111   -1.7121   -0.4366 H         1 RES1    0.0000
     32 C9        -1.2390    0.9441    5.7615 C.2       1 RES1    0.0000
     33 C10       -1.2728   -0.0406    6.8841 C.3       1 RES1    0.0000
     34 H11       -0.3600   -0.2065    7.1997 H         1 RES1    0.0000
     35 H12       -1.6688   -0.8790    6.5704 H         1 RES1    0.0000
     36 H13       -1.8113    0.3212    7.6186 H         1 RES1    0.0000
     37 C11        0.6352    4.1778    7.5814 C.2       1 RES1    0.0000
     38 C12       -0.3955    4.6508    8.5232 C.3       1 RES1    0.0000
     39 H14       -1.2333    4.7390    8.0631 H         1 RES1    0.0000
     40 H15       -0.1351    5.5033    8.8812 H         1 RES1    0.0000
     41 H16       -0.4893    4.0171    9.2391 H         1 RES1    0.0000
     42 C13        2.0637    6.5633    5.6085 C.2       1 RES1    0.0000
     43 C14        3.2260    7.2471    6.2341 C.3       1 RES1    0.0000
     44 H17        4.0129    6.7088    6.1181 H         1 RES1    0.0000
     45 H18        3.0577    7.3706    7.1722 H         1 RES1    0.0000
     46 H19        3.3571    8.1014    5.8172 H         1 RES1    0.0000
     47 C15        1.4204    5.8086    0.4852 C.3       1 RES1    0.0000
     48 H20        0.7898    6.4899    0.2399 H         1 RES1    0.0000
     49 H21        1.0547    4.9438    0.2793 H         1 RES1    0.0000
     50 H22        2.2359    5.9357   -0.0059 H         1 RES1    0.0000
@<TRIPOS>BOND
     1    1   12 2
     2    2   13 1
     3    3   14 1
     4    4   20 1
     5    5   32 2
     6    6   18 1
     7    7   37 2
     8    8   16 1
     9    9   42 2
    10   10   24 1
    11   11   27 2
    12   12   13 1
    13   13   14 1
    14   14   15 1
    15   16   14 1
    16   17   16 1
    17   18   16 1
    18   19   18 1
    19   20   18 1
    20   21   20 1
    21   22    3 1
    22   23   22 1
    23   24   22 1
    24   25   24 1
    25   26   24 1
    26   27   10 1
    27   28   27 1
    28   29   28 1
    29   30   28 1
    30   31   28 1
    31   32    4 1
    32   33   32 1
    33   34   33 1
    34   35   33 1
    35   36   33 1
    36   37    6 1
    37   38   37 1
    38   39   38 1
    39   40   38 1
    40   41   38 1
    41   42    8 1
    42   43   42 1
    43   44   43 1
    44   45   43 1
    45   46   43 1
    46   47    2 1
    47   48   47 1
    48   49   47 1
    49   50   47 1
    50   20   22 1
@<TRIPOS>SUBSTRUCTURE
     1 RES1 1

@<TRIPOS>CRYSIN
   5.7229   17.6500   19.6660  90.0000  90.0000  90.0000  19 1

