# MOL2 file generated by ConQuest
# Please check atom types

@<TRIPOS>MOLECULE
TEBXON
   136   140     2
SMALL
NO_CHARGES
****
Generated from CSD

@<TRIPOS>ATOM
      1 C1         2.2148    5.4510   13.0364 C.2       1 RES1    0.0000
      2 O1         2.3672    6.5960   13.4710 O.2       1 RES1    0.0000
      3 N1         3.2115    4.6249   12.7071 N.am      1 RES1    0.0000
      4 C2         4.6260    5.0241   12.7957 C.3       1 RES1    0.0000
      5 C3         5.4056    3.9555   13.5612 C.3       1 RES1    0.0000
      6 O2         6.7728    4.4597   13.6432 O.3       1 RES1    0.0000
      7 C4         7.7665    3.6365   13.2988 C.2       1 RES1    0.0000
      8 O3         7.6226    2.5039   12.9461 O.2       1 RES1    0.0000
      9 C5         9.1373    4.3050   13.3439 C.3       1 RES1    0.0000
     10 O4         9.1879    5.4471   14.1764 O.3       1 RES1    0.0000
     11 C6         9.2632    5.1100   15.5504 C.3       1 RES1    0.0000
     12 C7        -0.1341    5.1969   13.8253 C.ar      1 RES1    0.0000
     13 C8        -1.4189    4.7290   13.6615 C.ar      1 RES1    0.0000
     14 C9        -1.8223    4.0414   12.5366 C.ar      1 RES1    0.0000
     15 C10       -0.8559    3.7845   11.5922 C.ar      1 RES1    0.0000
     16 C11        0.4637    4.1704   11.7292 C.ar      1 RES1    0.0000
     17 C12        0.8241    4.9047   12.8559 C.ar      1 RES1    0.0000
     18 N2        -2.4133    5.0098   14.7146 N.pl3     1 RES1    0.0000
     19 O5        -2.0086    5.5130   15.7577 O.2       1 RES1    0.0000
     20 O6        -3.5767    4.7013   14.4940 O.2       1 RES1    0.0000
     21 N3        -1.2428    3.0941   10.3552 N.pl3     1 RES1    0.0000
     22 O7        -2.4179    2.8162   10.1964 O.2       1 RES1    0.0000
     23 O8        -0.3618    2.8382    9.5495 O.2       1 RES1    0.0000
     24 C13        4.5334    6.5473   10.7597 C.3       1 RES1    0.0000
     25 C14        5.2431    6.9293    9.4643 C.3       1 RES1    0.0000
     26 C15        5.2502    5.7671    8.4898 C.3       1 RES1    0.0000
     27 C16        5.8965    4.5457    9.1233 C.3       1 RES1    0.0000
     28 C17        5.2232    4.1656   10.4421 C.3       1 RES1    0.0000
     29 C18        5.2128    5.3507   11.4133 C.3       1 RES1    0.0000
     30 C19        4.8991    3.7015   14.9704 C.3       1 RES1    0.0000
     31 C20        5.6713    2.6300   15.7092 C.3       1 RES1    0.0000
     32 C21        9.0634    5.8817   11.3782 C.ar      1 RES1    0.0000
     33 C22        9.4212    6.2312   10.0828 C.ar      1 RES1    0.0000
     34 C23       10.2492    5.3965    9.3406 C.ar      1 RES1    0.0000
     35 C24       10.7170    4.2114    9.8955 C.ar      1 RES1    0.0000
     36 C25       10.3591    3.8609   11.1910 C.ar      1 RES1    0.0000
     37 C26        9.5311    4.6956   11.9332 C.ar      1 RES1    0.0000
     38 C27        2.8132   10.2306   12.5550 C.2       2 RES2    0.0000
     39 O9         2.6723   11.3727   12.0986 O.2       2 RES2    0.0000
     40 N4         1.8098    9.3769   12.7556 N.am      2 RES2    0.0000
     41 C28        0.4156    9.6853   12.4246 C.3       2 RES2    0.0000
     42 C29       -0.1108    8.5785   11.5220 C.3       2 RES2    0.0000
     43 O10       -1.4841    8.9280   11.2345 O.3       2 RES2    0.0000
     44 C30       -2.4230    7.9721   11.3281 C.2       2 RES2    0.0000
     45 O11       -2.2013    6.8338   11.6523 O.2       2 RES2    0.0000
     46 C31       -3.7972    8.5050   11.0355 C.3       2 RES2    0.0000
     47 O12       -3.6826    9.4752   10.0059 O.3       2 RES2    0.0000
     48 C32       -4.9273    9.8209    9.4158 C.3       2 RES2    0.0000
     49 C33        5.1968    9.9871   11.9766 C.ar      2 RES2    0.0000
     50 C34        6.4625    9.4829   12.2223 C.ar      2 RES2    0.0000
     51 C35        6.7708    8.7523   13.3423 C.ar      2 RES2    0.0000
     52 C36        5.7335    8.5040   14.2248 C.ar      2 RES2    0.0000
     53 C37        4.4429    8.9452   14.0092 C.ar      2 RES2    0.0000
     54 C38        4.1818    9.7044   12.8709 C.ar      2 RES2    0.0000
     55 N5         7.5187    9.7436   11.2261 N.pl3     2 RES2    0.0000
     56 O13        7.2223   10.4082   10.2449 O.2       2 RES2    0.0000
     57 O14        8.6136    9.2594   11.4334 O.2       2 RES2    0.0000
     58 N6         6.0223    7.7400   15.4417 N.pl3     2 RES2    0.0000
     59 O15        7.1829    7.5242   15.7192 O.2       2 RES2    0.0000
     60 O16        5.0713    7.3609   16.1187 O.2       2 RES2    0.0000
     61 C39        0.1828   11.0528   14.5491 C.3       2 RES2    0.0000
     62 C40       -0.6873   11.3450   15.7760 C.3       2 RES2    0.0000
     63 C41       -0.8886   10.0912   16.5918 C.3       2 RES2    0.0000
     64 C42       -1.5001    8.9748   15.7627 C.3       2 RES2    0.0000
     65 C43       -0.6463    8.6788   14.5324 C.3       2 RES2    0.0000
     66 C44       -0.4210    9.9346   13.6849 C.3       2 RES2    0.0000
     67 C45        0.6326    8.4658   10.1914 C.3       2 RES2    0.0000
     68 C46        0.1678    7.3017    9.3356 C.3       2 RES2    0.0000
     69 C47       -4.1138   10.3586   12.7171 C.ar      2 RES2    0.0000
     70 C48       -4.5952   10.8360   13.9307 C.ar      2 RES2    0.0000
     71 C49       -5.3253    9.9985   14.7648 C.ar      2 RES2    0.0000
     72 C50       -5.5747    8.6845   14.3870 C.ar      2 RES2    0.0000
     73 C51       -5.0933    8.2070   13.1734 C.ar      2 RES2    0.0000
     74 C52       -4.3632    9.0445   12.3393 C.ar      2 RES2    0.0000
     75 H1         2.9871    3.8036   12.4213 H         1 RES1    0.0000
     76 H2         4.6628    5.8635   13.3389 H         1 RES1    0.0000
     77 H3         5.3947    3.1008   13.0431 H         1 RES1    0.0000
     78 H4         9.8013    3.6394   13.6833 H         1 RES1    0.0000
     79 H5         9.2949    5.9294   16.0869 H         1 RES1    0.0000
     80 H6        10.0720    4.5810   15.7125 H         1 RES1    0.0000
     81 H7         8.4747    4.5858   15.8028 H         1 RES1    0.0000
     82 H8         0.0958    5.7117   14.5909 H         1 RES1    0.0000
     83 H9        -2.7220    3.7588   12.4213 H         1 RES1    0.0000
     84 H10        1.1089    3.9393   11.0723 H         1 RES1    0.0000
     85 H11        4.5454    7.3160   11.3832 H         1 RES1    0.0000
     86 H12        3.5881    6.3248   10.5658 H         1 RES1    0.0000
     87 H13        4.7842    7.7037    9.0514 H         1 RES1    0.0000
     88 H14        6.1757    7.1967    9.6649 H         1 RES1    0.0000
     89 H15        5.7498    6.0211    7.6741 H         1 RES1    0.0000
     90 H16        4.3204    5.5512    8.2257 H         1 RES1    0.0000
     91 H17        6.8554    4.7319    9.2871 H         1 RES1    0.0000
     92 H18        5.8381    3.7826    8.4948 H         1 RES1    0.0000
     93 H19        5.7088    3.4073   10.8533 H         1 RES1    0.0000
     94 H20        4.2931    3.8753   10.2650 H         1 RES1    0.0000
     95 H21        6.1679    5.6095   11.5604 H         1 RES1    0.0000
     96 H22        4.9520    4.5457   15.4852 H         1 RES1    0.0000
     97 H23        3.9466    3.4360   14.9252 H         1 RES1    0.0000
     98 H24        5.2961    2.5173   16.6085 H         1 RES1    0.0000
     99 H25        6.6125    2.8945   15.7794 H         1 RES1    0.0000
    100 H26        5.6055    1.7839   15.2194 H         1 RES1    0.0000
    101 H27        8.4967    6.4518   11.8864 H         1 RES1    0.0000
    102 H28        9.1013    7.0419    9.7033 H         1 RES1    0.0000
    103 H29       10.4936    5.6362    8.4547 H         1 RES1    0.0000
    104 H30       11.2829    3.6403    9.3891 H         1 RES1    0.0000
    105 H31       10.6791    3.0511   11.5704 H         1 RES1    0.0000
    106 H32        2.0201    8.5919   13.0548 H         2 RES2    0.0000
    107 H33        0.4140   10.5324   11.8930 H         2 RES2    0.0000
    108 H34       -0.0768    7.7028   12.0034 H         2 RES2    0.0000
    109 H35       -4.3755    7.7553   10.7146 H         2 RES2    0.0000
    110 H36       -4.7798   10.4913    8.7154 H         2 RES2    0.0000
    111 H37       -5.5238   10.1886   10.1011 H         2 RES2    0.0000
    112 H38       -5.3353    9.0216    9.0230 H         2 RES2    0.0000
    113 H39        5.0291   10.5180   11.2060 H         2 RES2    0.0000
    114 H40        7.6501    8.4324   13.5027 H         2 RES2    0.0000
    115 H41        3.7476    8.7351   14.6227 H         2 RES2    0.0000
    116 H42        1.0878   10.7854   14.8467 H         2 RES2    0.0000
    117 H43        0.2692   11.8760   14.0059 H         2 RES2    0.0000
    118 H44       -0.2512   12.0364   16.3327 H         2 RES2    0.0000
    119 H45       -1.5654   11.6946   15.4835 H         2 RES2    0.0000
    120 H46       -1.4823   10.2917   17.3573 H         2 RES2    0.0000
    121 H47       -0.0164    9.7913   16.9511 H         2 RES2    0.0000
    122 H48       -2.4113    9.2374   15.4752 H         2 RES2    0.0000
    123 H49       -1.5757    8.1574   16.3143 H         2 RES2    0.0000
    124 H50       -1.0936    7.9883   13.9825 H         2 RES2    0.0000
    125 H51        0.2300    8.3187   14.8216 H         2 RES2    0.0000
    126 H52       -1.3205   10.2487   13.3824 H         2 RES2    0.0000
    127 H53        0.5086    9.3062    9.6833 H         2 RES2    0.0000
    128 H54        1.6002    8.3627   10.3719 H         2 RES2    0.0000
    129 H55        0.6813    7.2845    8.4998 H         2 RES2    0.0000
    130 H56       -0.7852    7.4067    9.1300 H         2 RES2    0.0000
    131 H57        0.3065    6.4623    9.8220 H         2 RES2    0.0000
    132 H58       -3.6141   10.9306   12.1454 H         2 RES2    0.0000
    133 H59       -4.4245   11.7337   14.1881 H         2 RES2    0.0000
    134 H60       -5.6550   10.3251   15.5955 H         2 RES2    0.0000
    135 H61       -6.0744    8.1125   14.9587 H         2 RES2    0.0000
    136 H62       -5.2640    7.3093   12.9160 H         2 RES2    0.0000
@<TRIPOS>BOND
     1    1    2 2
     2    3    1 1
     3    4    3 1
     4    5    4 1
     5    6    5 1
     6    7    6 1
     7    8    7 2
     8    9    7 1
     9   10    9 1
    10   11   10 1
    11   12   13 ar
    12   13   14 ar
    13   14   15 ar
    14   15   16 ar
    15   16   17 ar
    16   17    1 1
    17   18   13 1
    18   19   18 2
    19   20   18 2
    20   21   15 1
    21   22   21 2
    22   23   21 2
    23   24   25 1
    24   25   26 1
    25   26   27 1
    26   27   28 1
    27   28   29 1
    28   29    4 1
    29   30    5 1
    30   31   30 1
    31   32   33 ar
    32   33   34 ar
    33   34   35 ar
    34   35   36 ar
    35   36   37 ar
    36   37    9 1
    37   38   39 2
    38   40   38 1
    39   41   40 1
    40   42   41 1
    41   43   42 1
    42   44   43 1
    43   45   44 2
    44   46   44 1
    45   47   46 1
    46   48   47 1
    47   49   50 ar
    48   50   51 ar
    49   51   52 ar
    50   52   53 ar
    51   53   54 ar
    52   54   38 1
    53   55   50 1
    54   56   55 2
    55   57   55 2
    56   58   52 1
    57   59   58 2
    58   60   58 2
    59   61   62 1
    60   62   63 1
    61   63   64 1
    62   64   65 1
    63   65   66 1
    64   66   41 1
    65   67   42 1
    66   68   67 1
    67   69   70 ar
    68   70   71 ar
    69   71   72 ar
    70   72   73 ar
    71   73   74 ar
    72   74   46 1
    73   75    3 1
    74   76    4 1
    75   77    5 1
    76   78    9 1
    77   79   11 1
    78   80   11 1
    79   81   11 1
    80   82   12 1
    81   83   14 1
    82   84   16 1
    83   85   24 1
    84   86   24 1
    85   87   25 1
    86   88   25 1
    87   89   26 1
    88   90   26 1
    89   91   27 1
    90   92   27 1
    91   93   28 1
    92   94   28 1
    93   95   29 1
    94   96   30 1
    95   97   30 1
    96   98   31 1
    97   99   31 1
    98  100   31 1
    99  101   32 1
   100  102   33 1
   101  103   34 1
   102  104   35 1
   103  105   36 1
   104  106   40 1
   105  107   41 1
   106  108   42 1
   107  109   46 1
   108  110   48 1
   109  111   48 1
   110  112   48 1
   111  113   49 1
   112  114   51 1
   113  115   53 1
   114  116   61 1
   115  117   61 1
   116  118   62 1
   117  119   62 1
   118  120   63 1
   119  121   63 1
   120  122   64 1
   121  123   64 1
   122  124   65 1
   123  125   65 1
   124  126   66 1
   125  127   67 1
   126  128   67 1
   127  129   68 1
   128  130   68 1
   129  131   68 1
   130  132   69 1
   131  133   70 1
   132  134   71 1
   133  135   72 1
   134  136   73 1
   135   12   17 ar
   136   24   29 1
   137   32   37 ar
   138   49   54 ar
   139   61   66 1
   140   69   74 ar
@<TRIPOS>SUBSTRUCTURE
     1 RES1 1
     2 RES2 38

@<TRIPOS>CRYSIN
  16.2144    9.5497   18.3402  90.0000 114.2990  90.0000   4 1

