# MOL2 file generated by ConQuest
# Please check atom types

@<TRIPOS>MOLECULE
TEBXEE
    44    45     1
SMALL
NO_CHARGES
****
Generated from CSD

@<TRIPOS>ATOM
      1 O1         3.2969    1.3314   -0.4672 O.2       1 RES1    0.0000
      2 N1         3.6946    2.2246    0.3389 N.3       1 RES1    0.0000
      3 O2         5.7232    6.4169    0.6129 O.2       1 RES1    0.0000
      4 C1         4.9482    2.1311    1.1153 C.3       1 RES1    0.0000
      5 N2         4.9506    3.3686    1.8744 N.2       1 RES1    0.0000
      6 O3         6.9998    6.7752    2.4025 O.3       1 RES1    0.0000
      7 C2         3.8899    4.0421    1.6402 C.2       1 RES1    0.0000
      8 C3         2.8969    3.4204    0.6665 C.3       1 RES1    0.0000
      9 C4         6.1475    2.0811    0.1789 C.3       1 RES1    0.0000
     10 H1         7.0536    1.9544    0.7265 H         1 RES1    0.0000
     11 H2         6.1096    2.8954   -0.3903 H         1 RES1    0.0000
     12 H3         6.0489    1.3210   -0.4229 H         1 RES1    0.0000
     13 C5         4.8766    0.9112    2.0189 C.3       1 RES1    0.0000
     14 H4         5.6819    0.8686    2.5264 H         1 RES1    0.0000
     15 H5         4.7995    0.0633    1.4638 H         1 RES1    0.0000
     16 H6         4.1199    0.9953    2.6023 H         1 RES1    0.0000
     17 C6         2.6812    4.2318   -0.5998 C.3       1 RES1    0.0000
     18 H7         3.5484    4.5603   -0.9108 H         1 RES1    0.0000
     19 H8         2.0938    4.9856   -0.4229 H         1 RES1    0.0000
     20 H9         2.3432    3.6283   -1.2794 H         1 RES1    0.0000
     21 C7         1.5682    2.9615    1.2686 C.3       1 RES1    0.0000
     22 H10        1.1550    2.3254    0.6571 H         1 RES1    0.0000
     23 H11        1.7567    2.5335    2.1035 H         1 RES1    0.0000
     24 H12        0.8900    3.7279    1.3120 H         1 RES1    0.0000
     25 N3         3.7224    5.2872    2.1847 N.3       1 RES1    0.0000
     26 C8         2.5241    6.0692    2.0788 C.ar      1 RES1    0.0000
     27 C9         2.4640    7.1424    1.2038 C.ar      1 RES1    0.0000
     28 H13        3.1902    7.3652    0.6788 H         1 RES1    0.0000
     29 C10        1.3033    7.9005    1.1311 C.ar      1 RES1    0.0000
     30 H14        1.3147    8.6048    0.5085 H         1 RES1    0.0000
     31 C11        0.2159    7.5859    1.9092 C.ar      1 RES1    0.0000
     32 H15       -0.6236    8.0891    1.8237 H         1 RES1    0.0000
     33 C12        0.2883    6.5343    2.7953 C.ar      1 RES1    0.0000
     34 H16       -0.5068    6.3337    3.3471 H         1 RES1    0.0000
     35 C13        1.4461    5.7807    2.9002 C.ar      1 RES1    0.0000
     36 H17        1.5387    5.0670    3.5391 H         1 RES1    0.0000
     37 C14        4.8782    5.8892    2.8112 C.3       1 RES1    0.0000
     38 H18        5.3251    5.2661    3.3992 H         1 RES1    0.0000
     39 H19        4.5817    6.6504    3.3265 H         1 RES1    0.0000
     40 C15        5.8975    6.3667    1.7847 C.2       1 RES1    0.0000
     41 C16        8.0302    7.3055    1.5180 C.3       1 RES1    0.0000
     42 H20        8.7437    7.5372    2.0384 H         1 RES1    0.0000
     43 H21        7.6675    7.9986    0.8891 H         1 RES1    0.0000
     44 H22        8.2024    6.3066    0.8457 H         1 RES1    0.0000
@<TRIPOS>BOND
     1    1    2 1
     2    2    4 1
     3    3   40 2
     4    4    5 1
     5    5    7 2
     6    6   40 1
     7    7    8 1
     8    8    2 1
     9    9    4 1
    10   10    9 1
    11   11    9 1
    12   12    9 1
    13   13    4 1
    14   14   13 1
    15   15   13 1
    16   16   13 1
    17   17    8 1
    18   18   17 1
    19   19   17 1
    20   20   17 1
    21   21    8 1
    22   22   21 1
    23   23   21 1
    24   24   21 1
    25   25    7 1
    26   26   25 1
    27   27   26 ar
    28   28   27 1
    29   29   27 ar
    30   30   29 1
    31   31   29 ar
    32   32   31 1
    33   33   31 ar
    34   34   33 1
    35   35   26 ar
    36   36   35 1
    37   37   25 1
    38   38   37 1
    39   39   37 1
    40   40   37 1
    41   41    6 1
    42   42   41 1
    43   43   41 1
    44   44   41 1
    45   33   35 ar
@<TRIPOS>SUBSTRUCTURE
     1 RES1 1

@<TRIPOS>CRYSIN
  17.4310    9.0482   11.2508  90.0000 105.4790  90.0000  14 1

