# MOL2 file generated by ConQuest
# Please check atom types

@<TRIPOS>MOLECULE
TECCUC
   168   174     3
SMALL
NO_CHARGES
****
Generated from CSD

@<TRIPOS>ATOM
      1 O1         8.4773    4.9989   12.0008 O.3       1 RES1    0.0000
      2 O2         7.7367    3.0829   11.0893 O.2       1 RES1    0.0000
      3 O3         7.2638    2.9941    6.2050 O.2       1 RES1    0.0000
      4 O4         7.4508    4.8532    5.1022 O.2       1 RES1    0.0000
      5 O5        10.8561    7.8850    7.0871 O.2       1 RES1    0.0000
      6 O6        10.5914    8.3100    9.1939 O.2       1 RES1    0.0000
      7 N1        10.3630    7.6562    8.1820 N.pl3     1 RES1    0.0000
      8 N2         7.5850    4.1791    6.1133 N.pl3     1 RES1    0.0000
      9 N3        12.5800    7.1999   13.1130 N.ar      1 RES1    0.0000
     10 C1         8.8260    5.3896   14.3834 C.3       1 RES1    0.0000
     11 C2         7.7922    6.4974   14.6154 C.3       1 RES1    0.0000
     12 H1         8.1783    7.1622   15.2393 H         1 RES1    0.0000
     13 H2         7.6256    6.9572   13.7542 H         1 RES1    0.0000
     14 C3         6.4597    6.0207   15.1774 C.3       1 RES1    0.0000
     15 H3         6.0048    5.4657   14.4949 H         1 RES1    0.0000
     16 H4         5.8868    6.8080   15.3579 H         1 RES1    0.0000
     17 C4         6.6000    5.2079   16.4636 C.3       1 RES1    0.0000
     18 H5         6.9517    5.8169   17.1738 H         1 RES1    0.0000
     19 C5         7.6282    4.0978   16.2443 C.3       1 RES1    0.0000
     20 H6         7.7917    3.6409   17.1055 H         1 RES1    0.0000
     21 H7         7.2493    3.4319   15.6168 H         1 RES1    0.0000
     22 C6         8.9575    4.5901   15.6898 C.3       1 RES1    0.0000
     23 H8         9.5449    3.8093   15.5269 H         1 RES1    0.0000
     24 H9         9.3950    5.1603   16.3719 H         1 RES1    0.0000
     25 C7         8.3694    4.3916   13.3140 C.3       1 RES1    0.0000
     26 H10        8.9313    3.5782   13.3550 H         1 RES1    0.0000
     27 H11        7.4294    4.1268   13.4845 H         1 RES1    0.0000
     28 C8         8.1577    4.2070   10.9825 C.2       1 RES1    0.0000
     29 C9         8.4123    4.8671    9.6682 C.ar      1 RES1    0.0000
     30 C10        7.9082    4.2551    8.5297 C.ar      1 RES1    0.0000
     31 H12        7.3923    3.4603    8.5977 H         1 RES1    0.0000
     32 C11        8.1653    4.8148    7.3014 C.ar      1 RES1    0.0000
     33 C12        8.9428    5.9458    7.1428 C.ar      1 RES1    0.0000
     34 H13        9.1199    6.3174    6.2856 H         1 RES1    0.0000
     35 C13        9.4504    6.5073    8.2974 C.ar      1 RES1    0.0000
     36 C14        9.1920    6.0079    9.5600 C.ar      1 RES1    0.0000
     37 H14        9.5390    6.4353   10.3345 H         1 RES1    0.0000
     38 C15       10.1625    5.9969   13.9573 C.ar      1 RES1    0.0000
     39 C16       10.1910    7.0350   13.0206 C.ar      1 RES1    0.0000
     40 H15        9.3821    7.3567   12.6430 H         1 RES1    0.0000
     41 C17       11.3940    7.5906   12.6448 C.ar      1 RES1    0.0000
     42 H16       11.3787    8.2978   12.0102 H         1 RES1    0.0000
     43 C18       12.5476    6.2007   13.9944 C.ar      1 RES1    0.0000
     44 H17       13.3762    5.8912   14.3439 H         1 RES1    0.0000
     45 C19       11.3931    5.5853   14.4327 C.ar      1 RES1    0.0000
     46 H18       11.4454    4.8758   15.0631 H         1 RES1    0.0000
     47 C20        5.2523    4.6488   16.9480 C.3       1 RES1    0.0000
     48 H19        4.8887    4.0757   16.2137 H         1 RES1    0.0000
     49 C21        4.2280    5.7420   17.2213 C.3       1 RES1    0.0000
     50 H20        4.5603    6.3296   17.9326 H         1 RES1    0.0000
     51 H21        3.3813    5.3345   17.5010 H         1 RES1    0.0000
     52 H22        4.0832    6.2657   16.4043 H         1 RES1    0.0000
     53 C22        5.4008    3.7651   18.1835 C.3       1 RES1    0.0000
     54 H23        5.9389    2.9767   17.9577 H         1 RES1    0.0000
     55 H24        4.5151    3.4801   18.4899 H         1 RES1    0.0000
     56 H25        5.8462    4.2708   18.8962 H         1 RES1    0.0000
     57 O7         5.3576   -0.0865    7.2683 O.2       2 RES2    0.0000
     58 O8         4.3648    1.4648    5.9853 O.3       2 RES2    0.0000
     59 O9         5.8547    0.8192   11.9814 O.2       2 RES2    0.0000
     60 O10        5.1603    2.6690   12.8764 O.2       2 RES2    0.0000
     61 O11        2.3422    5.3507    8.0137 O.2       2 RES2    0.0000
     62 O12        2.3905    5.6102   10.1633 O.2       2 RES2    0.0000
     63 N4         2.6878    5.0099    9.1389 N.pl3     2 RES2    0.0000
     64 N5         5.3067    1.9078   11.9249 N.pl3     2 RES2    0.0000
     65 N6        -0.0957    2.3601    4.1928 N.ar      2 RES2    0.0000
     66 C23        4.8123    0.9800    7.1378 C.2       2 RES2    0.0000
     67 C24        4.1114    1.3534    3.5897 C.3       2 RES2    0.0000
     68 C25        4.2909    0.4198    2.3704 C.3       2 RES2    0.0000
     69 H26        3.8434   -0.4412    2.5638 H         2 RES2    0.0000
     70 H27        3.8323    0.8262    1.5930 H         2 RES2    0.0000
     71 C26        5.7396    0.1364    1.9885 C.3       2 RES2    0.0000
     72 H28        6.1766   -0.3751    2.7149 H         2 RES2    0.0000
     73 H29        5.7597   -0.4198    1.1687 H         2 RES2    0.0000
     74 C27        6.5177    1.4230    1.7418 C.3       2 RES2    0.0000
     75 H30        6.0392    1.9206    1.0176 H         2 RES2    0.0000
     76 C28        6.4359    2.2800    3.0011 C.3       2 RES2    0.0000
     77 H31        6.8751    1.8004    3.7469 H         2 RES2    0.0000
     78 H32        6.9309    3.1247    2.8515 H         2 RES2    0.0000
     79 C29        5.0017    2.6045    3.3880 C.3       2 RES2    0.0000
     80 H33        4.6015    3.1712    2.6825 H         2 RES2    0.0000
     81 H34        5.0094    3.1300    4.2287 H         2 RES2    0.0000
     82 C30        4.5504    0.5974    4.8379 C.3       2 RES2    0.0000
     83 H35        4.0103   -0.2253    4.9443 H         2 RES2    0.0000
     84 H36        5.5027    0.3379    4.7609 H         2 RES2    0.0000
     85 C31        4.5451    1.9020    8.2809 C.ar      2 RES2    0.0000
     86 C32        3.7762    3.0522    8.1500 C.ar      2 RES2    0.0000
     87 H37        3.4260    3.3099    7.3068 H         2 RES2    0.0000
     88 C33        3.5354    3.8104    9.2766 C.ar      2 RES2    0.0000
     89 C34        4.0264    3.4911   10.5319 C.ar      2 RES2    0.0000
     90 H38        3.8545    4.0345   11.2910 H         2 RES2    0.0000
     91 C35        4.7797    2.3398   10.6164 C.ar      2 RES2    0.0000
     92 C36        5.0508    1.5386    9.5233 C.ar      2 RES2    0.0000
     93 H39        5.5743    0.7519    9.6189 H         2 RES2    0.0000
     94 C37        2.6405    1.7238    3.7713 C.ar      2 RES2    0.0000
     95 C38        1.6078    0.8535    3.4233 C.ar      2 RES2    0.0000
     96 H40        1.8091    0.0128    3.0277 H         2 RES2    0.0000
     97 C39        0.2981    1.2111    3.6498 C.ar      2 RES2    0.0000
     98 H41       -0.3745    0.5899    3.3981 H         2 RES2    0.0000
     99 C40        0.8932    3.1956    4.5229 C.ar      2 RES2    0.0000
    100 H42        0.6562    4.0316    4.9083 H         2 RES2    0.0000
    101 C41        2.2360    2.9239    4.3413 C.ar      2 RES2    0.0000
    102 H43        2.8871    3.5619    4.6099 H         2 RES2    0.0000
    103 C42        7.9642    1.2094    1.2650 C.3       2 RES2    0.0000
    104 H44        8.4087    2.1052    1.2621 H         2 RES2    0.0000
    105 C43        8.0221    0.6764   -0.1633 C.3       2 RES2    0.0000
    106 H45        7.6342   -0.2224   -0.1942 H         2 RES2    0.0000
    107 H46        8.9555    0.6386   -0.4603 H         2 RES2    0.0000
    108 H47        7.5143    1.2715   -0.7551 H         2 RES2    0.0000
    109 C44        8.7749    0.3089    2.1902 C.3       2 RES2    0.0000
    110 H48        8.6622    0.6085    3.1176 H         2 RES2    0.0000
    111 H49        9.7236    0.3547    1.9418 H         2 RES2    0.0000
    112 H50        8.4579   -0.6148    2.1072 H         2 RES2    0.0000
    113 O13       -1.4966   -0.8697   12.2360 O.3       3 RES3    0.0000
    114 O14       -2.3013   -2.6788   11.1781 O.2       3 RES3    0.0000
    115 O15        0.6872    2.6225    9.8088 O.2       3 RES3    0.0000
    116 O16        0.6312    2.6684    7.6473 O.2       3 RES3    0.0000
    117 O17       -2.6696   -2.3705    6.2899 O.2       3 RES3    0.0000
    118 O18       -1.9185   -0.6352    5.2316 O.2       3 RES3    0.0000
    119 N7         0.3426    2.1679    8.7254 N.pl3     3 RES3    0.0000
    120 N8        -2.1156   -1.2790    6.2496 N.pl3     3 RES3    0.0000
    121 N9         3.0280   -0.1626   13.4043 N.ar      3 RES3    0.0000
    122 C45       -1.1504   -0.5638   14.5791 C.3       3 RES3    0.0000
    123 C46       -1.8929    0.7838   14.6085 C.3       3 RES3    0.0000
    124 H51       -1.3578    1.4259   15.1386 H         3 RES3    0.0000
    125 H52       -1.9493    1.1339   13.6858 H         3 RES3    0.0000
    126 C47       -3.3004    0.7228   15.1893 C.3       3 RES3    0.0000
    127 H53       -3.8741    0.1753   14.5956 H         3 RES3    0.0000
    128 H54       -3.6790    1.6367   15.2177 H         3 RES3    0.0000
    129 C48       -3.3188    0.1248   16.5967 C.3       3 RES3    0.0000
    130 H55       -2.7234    0.6897   17.1666 H         3 RES3    0.0000
    131 C49       -2.6969   -1.2605   16.5259 C.3       3 RES3    0.0000
    132 H56       -3.2595   -1.8399   15.9548 H         3 RES3    0.0000
    133 H57       -2.6803   -1.6553   17.4327 H         3 RES3    0.0000
    134 C50       -1.2783   -1.2309   15.9671 C.3       3 RES3    0.0000
    135 H58       -0.9431   -2.1604   15.9045 H         3 RES3    0.0000
    136 H59       -0.6973   -0.7466   16.6057 H         3 RES3    0.0000
    137 C51       -1.7583   -1.4840   13.5179 C.3       3 RES3    0.0000
    138 H60       -1.3434   -2.3816   13.5600 H         3 RES3    0.0000
    139 H61       -2.7335   -1.5798   13.6607 H         3 RES3    0.0000
    140 C52       -1.8265   -1.5728   11.1562 C.2       3 RES3    0.0000
    141 C53       -1.5198   -0.8256    9.9026 C.ar      3 RES3    0.0000
    142 C54       -1.9595   -1.3586    8.6969 C.ar      3 RES3    0.0000
    143 H62       -2.4651   -2.1627    8.6804 H         3 RES3    0.0000
    144 C55       -1.6520   -0.7031    7.5279 C.ar      3 RES3    0.0000
    145 C56       -0.9166    0.4639    7.4945 C.ar      3 RES3    0.0000
    146 H63       -0.7166    0.9080    6.6775 H         3 RES3    0.0000
    147 C57       -0.4860    0.9516    8.7135 C.ar      3 RES3    0.0000
    148 C58       -0.7756    0.3437    9.9156 C.ar      3 RES3    0.0000
    149 H64       -0.4725    0.7176   10.7336 H         3 RES3    0.0000
    150 C59        0.3237   -0.3913   14.2152 C.ar      3 RES3    0.0000
    151 C60        0.8025    0.7310   13.5492 C.ar      3 RES3    0.0000
    152 H65        0.2179    1.4544   13.3514 H         3 RES3    0.0000
    153 C61        2.1327    0.7896   13.1749 C.ar      3 RES3    0.0000
    154 H66        2.4284    1.5693   12.7186 H         3 RES3    0.0000
    155 C62        2.5672   -1.2349   14.0508 C.ar      3 RES3    0.0000
    156 H67        3.1786   -1.9374   14.2396 H         3 RES3    0.0000
    157 C63        1.2573   -1.3894   14.4629 C.ar      3 RES3    0.0000
    158 H68        0.9922   -2.1807   14.9192 H         3 RES3    0.0000
    159 C64       -4.7154    0.1417   17.2350 C.3       3 RES3    0.0000
    160 H69       -5.3275   -0.3994   16.6596 H         3 RES3    0.0000
    161 C65       -5.2736    1.5624   17.3191 C.3       3 RES3    0.0000
    162 H70       -4.6082    2.1517   17.7312 H         3 RES3    0.0000
    163 H71       -6.0876    1.5618   17.8642 H         3 RES3    0.0000
    164 H72       -5.4840    1.8852   16.4187 H         3 RES3    0.0000
    165 C66       -4.7028   -0.4796   18.6294 C.3       3 RES3    0.0000
    166 H73       -4.5449   -1.4439   18.5546 H         3 RES3    0.0000
    167 H74       -5.5653   -0.3211   19.0652 H         3 RES3    0.0000
    168 H75       -3.9877   -0.0720   19.1623 H         3 RES3    0.0000
@<TRIPOS>BOND
     1    1   25 1
     2    2   28 2
     3    3    8 2
     4    4    8 2
     5    5    7 2
     6    6    7 2
     7    7   35 1
     8    8   32 1
     9    9   41 ar
    10   10   11 1
    11   11   12 1
    12   13   11 1
    13   14   11 1
    14   15   14 1
    15   16   14 1
    16   17   14 1
    17   18   17 1
    18   19   17 1
    19   20   19 1
    20   21   19 1
    21   22   10 1
    22   23   22 1
    23   24   22 1
    24   25   10 1
    25   26   25 1
    26   27   25 1
    27   28    1 1
    28   29   28 1
    29   30   29 ar
    30   31   30 1
    31   32   30 ar
    32   33   32 ar
    33   34   33 1
    34   35   33 ar
    35   36   29 ar
    36   37   36 1
    37   38   10 1
    38   39   38 ar
    39   40   39 1
    40   41   39 ar
    41   42   41 1
    42   43    9 ar
    43   44   43 1
    44   45   38 ar
    45   46   45 1
    46   47   17 1
    47   48   47 1
    48   49   47 1
    49   50   49 1
    50   51   49 1
    51   52   49 1
    52   53   47 1
    53   54   53 1
    54   55   53 1
    55   56   53 1
    56   57   66 2
    57   58   66 1
    58   59   64 2
    59   60   64 2
    60   61   63 2
    61   62   63 2
    62   63   88 1
    63   64   91 1
    64   65   97 ar
    65   66   85 1
    66   67   68 1
    67   68   69 1
    68   70   68 1
    69   71   68 1
    70   72   71 1
    71   73   71 1
    72   74   71 1
    73   75   74 1
    74   76   74 1
    75   77   76 1
    76   78   76 1
    77   79   67 1
    78   80   79 1
    79   81   79 1
    80   82   58 1
    81   83   82 1
    82   84   82 1
    83   85   86 ar
    84   86   87 1
    85   88   86 ar
    86   89   88 ar
    87   90   89 1
    88   91   89 ar
    89   92   85 ar
    90   93   92 1
    91   94   67 1
    92   95   94 ar
    93   96   95 1
    94   97   95 ar
    95   98   97 1
    96   99   65 ar
    97  100   99 1
    98  101   94 ar
    99  102  101 1
   100  103   74 1
   101  104  103 1
   102  105  103 1
   103  106  105 1
   104  107  105 1
   105  108  105 1
   106  109  103 1
   107  110  109 1
   108  111  109 1
   109  112  109 1
   110  113  137 1
   111  114  140 2
   112  115  119 2
   113  116  119 2
   114  117  120 2
   115  118  120 2
   116  119  147 1
   117  120  144 1
   118  121  153 ar
   119  122  123 1
   120  123  124 1
   121  125  123 1
   122  126  123 1
   123  127  126 1
   124  128  126 1
   125  129  126 1
   126  130  129 1
   127  131  129 1
   128  132  131 1
   129  133  131 1
   130  134  122 1
   131  135  134 1
   132  136  134 1
   133  137  122 1
   134  138  137 1
   135  139  137 1
   136  140  113 1
   137  141  140 1
   138  142  141 ar
   139  143  142 1
   140  144  142 ar
   141  145  144 ar
   142  146  145 1
   143  147  145 ar
   144  148  141 ar
   145  149  148 1
   146  150  122 1
   147  151  150 ar
   148  152  151 1
   149  153  151 ar
   150  154  153 1
   151  155  121 ar
   152  156  155 1
   153  157  150 ar
   154  158  157 1
   155  159  129 1
   156  160  159 1
   157  161  159 1
   158  162  161 1
   159  163  161 1
   160  164  161 1
   161  165  159 1
   162  166  165 1
   163  167  165 1
   164  168  165 1
   165   19   22 1
   166   35   36 ar
   167   43   45 ar
   168   67   82 1
   169   76   79 1
   170   91   92 ar
   171   99  101 ar
   172  131  134 1
   173  147  148 ar
   174  155  157 ar
@<TRIPOS>SUBSTRUCTURE
     1 RES1 1
     2 RES2 57
     3 RES3 113

@<TRIPOS>CRYSIN
  29.7230    5.8059   38.3960  90.0000 110.5250  90.0000  14 1

