# MOL2 file generated by ConQuest
# Please check atom types

@<TRIPOS>MOLECULE
TECGUE
    30    32     1
SMALL
NO_CHARGES
****
Generated from CSD

@<TRIPOS>ATOM
      1 O1        -4.3070    2.1993    9.4696 O.3       1 RES1    0.0000
      2 O2        -7.2178    0.9710    6.2496 O.3       1 RES1    0.0000
      3 O3        -2.9282    1.6860    5.1825 O.3       1 RES1    0.0000
      4 N1        -1.2504    3.2823    5.4456 N.2       1 RES1    0.0000
      5 N2        -1.6631    2.0183    5.6069 N.pl3     1 RES1    0.0000
      6 N3         0.0244    3.2953    5.6790 N.2       1 RES1    0.0000
      7 N4        -3.5578    2.0004    7.3885 N.ar      1 RES1    0.0000
      8 N5        -5.0529    1.3501    5.6675 N.ar      1 RES1    0.0000
      9 N6        -5.8312    1.5327    7.9012 N.ar      1 RES1    0.0000
     10 C1        -5.3524    2.1053   10.4602 C.3       1 RES1    0.0000
     11 H1        -5.0012    2.3472   11.3199 H         1 RES1    0.0000
     12 H2        -5.6841    1.2053   10.4917 H         1 RES1    0.0000
     13 H3        -6.0668    2.7020   10.2275 H         1 RES1    0.0000
     14 C2        -7.4760    0.7797    4.8475 C.3       1 RES1    0.0000
     15 H4        -8.4040    0.5665    4.7189 H         1 RES1    0.0000
     16 H5        -6.9342    0.0597    4.5181 H         1 RES1    0.0000
     17 H6        -7.2623    1.5852    4.3697 H         1 RES1    0.0000
     18 C3         1.7941    0.1733    6.4766 C.ar      1 RES1    0.0000
     19 H7         2.6231   -0.1888    6.6937 H         1 RES1    0.0000
     20 C4         0.6935   -0.6779    6.3632 C.ar      1 RES1    0.0000
     21 H8         0.8184   -1.5918    6.4820 H         1 RES1    0.0000
     22 C5        -0.5621   -0.2117    6.0819 C.ar      1 RES1    0.0000
     23 H9        -1.3013   -0.7738    6.0323 H         1 RES1    0.0000
     24 C6         1.6946    1.5114    6.2797 C.ar      1 RES1    0.0000
     25 H10        2.4332    2.0721    6.3599 H         1 RES1    0.0000
     26 C7         0.4312    2.0071    5.9512 C.ar      1 RES1    0.0000
     27 C8        -0.6585    1.1581    5.8758 C.ar      1 RES1    0.0000
     28 C9        -4.6069    1.8978    8.2187 C.ar      1 RES1    0.0000
     29 C10       -3.8843    1.6922    6.1708 C.ar      1 RES1    0.0000
     30 C11       -5.9890    1.2958    6.5968 C.ar      1 RES1    0.0000
@<TRIPOS>BOND
     1    1   10 1
     2    2   14 1
     3    3    5 1
     4    4    5 1
     5    5   27 1
     6    6    4 2
     7    7   28 ar
     8    8   29 ar
     9    9   28 ar
    10   10   11 1
    11   12   10 1
    12   13   10 1
    13   14   15 1
    14   16   14 1
    15   17   14 1
    16   18   19 1
    17   20   18 ar
    18   21   20 1
    19   22   20 ar
    20   23   22 1
    21   24   18 ar
    22   25   24 1
    23   26    6 1
    24   27   22 ar
    25   28    1 1
    26   29    3 1
    27   30    2 1
    28    7   29 ar
    29    8   30 ar
    30    9   30 ar
    31   24   26 ar
    32   26   27 ar
@<TRIPOS>SUBSTRUCTURE
     1 RES1 1

@<TRIPOS>CRYSIN
  21.6020    7.3765   18.2480  90.0000 122.1390  90.0000  15 1

