# MOL2 file generated by ConQuest
# Please check atom types

@<TRIPOS>MOLECULE
TECKAO
    58    62     2
SMALL
NO_CHARGES
****
Generated from CSD

@<TRIPOS>ATOM
      1 O1         4.6033    6.2407   11.6655 O.3       1 RES1    0.0000
      2 O2         3.3799   10.4982   12.0183 O.3       1 RES1    0.0000
      3 O3         7.8024    9.4047   12.2442 O.3       1 RES1    0.0000
      4 O4         3.4566    3.9209    7.7414 O.3       2 RES2    0.0000
      5 O5         1.5859    7.8373    8.6791 O.3       2 RES2    0.0000
      6 O6         1.7863    4.6283   11.9037 O.3       2 RES2    0.0000
      7 N1         6.2249    5.9389    9.1481 N.ar      1 RES1    0.0000
      8 N2         6.8933    3.7078   11.8135 N.2       1 RES1    0.0000
      9 N3         5.9730    4.4731   12.3390 N.2       1 RES1    0.0000
     10 N4         5.6321    5.3686   11.4153 N.pl3     1 RES1    0.0000
     11 N5         3.9899    8.3640   11.8887 N.ar      1 RES1    0.0000
     12 N6         5.6226   10.0702   12.0885 N.ar      1 RES1    0.0000
     13 N7         6.2960    7.7904   11.9859 N.ar      1 RES1    0.0000
     14 N8         1.7554    1.4112    7.8603 N.ar      2 RES2    0.0000
     15 N9         5.1554    1.1710    8.8272 N.2       2 RES2    0.0000
     16 N10        5.0532    2.4423    8.5719 N.2       2 RES2    0.0000
     17 N11        3.7965    2.6699    8.1898 N.pl3     2 RES2    0.0000
     18 N12        2.5536    5.8902    8.2193 N.ar      2 RES2    0.0000
     19 N13        1.5973    6.2876   10.3560 N.ar      2 RES2    0.0000
     20 N14        2.6417    4.2017    9.8916 N.ar      2 RES2    0.0000
     21 C1         7.1347    4.1458   10.5291 C.ar      1 RES1    0.0000
     22 C2         7.9954    3.7235    9.5251 C.ar      1 RES1    0.0000
     23 H1         8.5617    2.9933    9.6323 H         1 RES1    0.0000
     24 C3         7.9552    4.4466    8.3748 C.ar      1 RES1    0.0000
     25 H2         8.5265    4.2239    7.6753 H         1 RES1    0.0000
     26 C4         7.0756    5.5137    8.2250 C.ar      1 RES1    0.0000
     27 H3         7.0847    5.9649    7.4115 H         1 RES1    0.0000
     28 C5         6.3163    5.2186   10.2602 C.ar      1 RES1    0.0000
     29 C6         5.0179    7.5488   11.8625 C.ar      1 RES1    0.0000
     30 C7         4.3804    9.6313   12.0019 C.ar      1 RES1    0.0000
     31 C8         6.5240    9.1023   12.1054 C.ar      1 RES1    0.0000
     32 C9         3.7225   11.8945   12.1445 C.3       1 RES1    0.0000
     33 H4         2.9203   12.4222   12.1472 H         1 RES1    0.0000
     34 H5         4.2755   12.1556   11.4051 H         1 RES1    0.0000
     35 H6         4.1987   12.0331   12.9663 H         1 RES1    0.0000
     36 C10        8.1544   10.7956   12.4097 C.3       1 RES1    0.0000
     37 H7         9.1069   10.8767   12.4908 H         1 RES1    0.0000
     38 H8         7.7342   11.1406   13.1999 H         1 RES1    0.0000
     39 H9         7.8551   11.2948   11.6456 H         1 RES1    0.0000
     40 C11        3.9309    0.5851    8.6006 C.ar      2 RES2    0.0000
     41 C12        3.4726   -0.7238    8.6979 C.ar      2 RES2    0.0000
     42 H10        4.0257   -1.4207    8.9685 H         2 RES2    0.0000
     43 C13        2.1788   -0.9216    8.3776 C.ar      2 RES2    0.0000
     44 H11        1.8195   -1.7791    8.4243 H         2 RES2    0.0000
     45 C14        1.3693    0.1456    7.9749 C.ar      2 RES2    0.0000
     46 H12        0.4827   -0.0482    7.7701 H         2 RES2    0.0000
     47 C15        3.0388    1.5475    8.1806 C.ar      2 RES2    0.0000
     48 C16        2.8441    4.7064    8.7066 C.ar      2 RES2    0.0000
     49 C17        1.9145    6.6407    9.1156 C.ar      2 RES2    0.0000
     50 C18        2.0103    5.0744   10.6818 C.ar      2 RES2    0.0000
     51 C19        0.9039    8.7137    9.6144 C.3       2 RES2    0.0000
     52 H13        0.7087    9.5497    9.1843 H         2 RES2    0.0000
     53 H14        1.4672    8.8683   10.3758 H         2 RES2    0.0000
     54 H15        0.0855    8.3013    9.8989 H         2 RES2    0.0000
     55 C20        1.1839    5.5418   12.8453 C.3       2 RES2    0.0000
     56 H16        1.0779    5.1046   13.6933 H         2 RES2    0.0000
     57 H17        0.3254    5.8191   12.5183 H         2 RES2    0.0000
     58 H18        1.7501    6.3112   12.9511 H         2 RES2    0.0000
@<TRIPOS>BOND
     1    1   10 1
     2    2   30 1
     3    3   31 1
     4    4   17 1
     5    5   49 1
     6    6   50 1
     7    7   26 ar
     8    8    9 2
     9    9   10 1
    10   10   28 1
    11   11   29 ar
    12   12   30 ar
    13   13   29 ar
    14   14   45 ar
    15   15   16 2
    16   16   17 1
    17   17   47 1
    18   18   48 ar
    19   19   49 ar
    20   20   48 ar
    21   21    8 1
    22   22   21 ar
    23   23   22 1
    24   24   22 ar
    25   25   24 1
    26   26   24 ar
    27   27   26 1
    28   28    7 ar
    29   29    1 1
    30   30   11 ar
    31   31   12 ar
    32   32    2 1
    33   33   32 1
    34   34   32 1
    35   35   32 1
    36   36    3 1
    37   37   36 1
    38   38   36 1
    39   39   36 1
    40   40   15 1
    41   41   40 ar
    42   42   41 1
    43   43   41 ar
    44   44   43 1
    45   45   43 ar
    46   46   45 1
    47   47   14 ar
    48   48    4 1
    49   49   18 ar
    50   50   19 ar
    51   51    5 1
    52   52   51 1
    53   53   51 1
    54   54   51 1
    55   55    6 1
    56   56   55 1
    57   57   55 1
    58   58   55 1
    59   13   31 ar
    60   20   50 ar
    61   21   28 ar
    62   40   47 ar
@<TRIPOS>SUBSTRUCTURE
     1 RES1 1
     2 RES2 4

@<TRIPOS>CRYSIN
   8.7412   10.5300   13.8810  81.9640  89.0580  76.4670   2 1

