# MOL2 file generated by ConQuest
# Please check atom types

@<TRIPOS>MOLECULE
TECPOG
    40    40     1
SMALL
NO_CHARGES
****
Generated from CSD

@<TRIPOS>ATOM
      1 C1         9.2227   11.2016    5.4197 C.3       1 RES1    0.0000
      2 H1         9.6710   11.2153    6.2684 H         1 RES1    0.0000
      3 C2         8.8009    9.7709    5.0942 C.3       1 RES1    0.0000
      4 H2         9.5843    9.2161    5.0980 H         1 RES1    0.0000
      5 H3         8.4072    9.7629    4.2187 H         1 RES1    0.0000
      6 C3         7.8011    9.1925    6.0729 C.3       1 RES1    0.0000
      7 H4         7.0482    9.7843    6.0086 H         1 RES1    0.0000
      8 C4         7.3354    7.7814    5.7477 C.3       1 RES1    0.0000
      9 H5         6.8806    7.4873    6.5404 H         1 RES1    0.0000
     10 C5         6.4110    7.7535    4.5593 C.3       1 RES1    0.0000
     11 H6         6.9919    7.8573    3.8020 H         1 RES1    0.0000
     12 C6         5.5756    6.4638    4.5131 C.3       1 RES1    0.0000
     13 H7         6.0610    5.7200    4.8776 H         1 RES1    0.0000
     14 H8         5.3003    6.2578    3.6168 H         1 RES1    0.0000
     15 O1         8.2012   11.9569    5.6079 O.3       1 RES1    0.0000
     16 C7         8.4439   13.2282    6.2413 C.3       1 RES1    0.0000
     17 H9         7.6155   13.7051    6.3304 H         1 RES1    0.0000
     18 H10        9.0529   13.7419    5.7054 H         1 RES1    0.0000
     19 H11        8.8252   13.0844    7.1105 H         1 RES1    0.0000
     20 O2        10.2132   11.6723    4.5595 O.3       1 RES1    0.0000
     21 C8         9.7945   11.8957    3.2574 C.3       1 RES1    0.0000
     22 H12       10.5325   12.2169    2.7343 H         1 RES1    0.0000
     23 H13        9.0918   12.5498    3.2547 H         1 RES1    0.0000
     24 H14        9.4690   11.0747    2.8814 H         1 RES1    0.0000
     25 N1         8.3831    9.1410    7.4730 N.pl3     1 RES1    0.0000
     26 O3         9.5798    8.9895    7.6113 O.2       1 RES1    0.0000
     27 O4         7.5942    9.2372    8.3726 O.2       1 RES1    0.0000
     28 O5         8.4162    6.9007    5.4485 O.3       1 RES1    0.0000
     29 H15        8.7452    6.5579    6.1344 H         1 RES1    0.0000
     30 O6         5.4127    8.7568    4.6536 O.3       1 RES1    0.0000
     31 O7         4.4544    6.8086    5.3370 O.3       1 RES1    0.0000
     32 C9         4.1587    8.1879    5.0537 C.3       1 RES1    0.0000
     33 C10        3.1836    8.3222    3.9369 C.3       1 RES1    0.0000
     34 H16        2.3419    7.9428    4.1998 H         1 RES1    0.0000
     35 H17        3.5163    7.8590    3.1647 H         1 RES1    0.0000
     36 H18        3.0640    9.2512    3.7260 H         1 RES1    0.0000
     37 C11        3.6953    8.8275    6.3197 C.3       1 RES1    0.0000
     38 H19        3.4912    9.7510    6.1551 H         1 RES1    0.0000
     39 H20        4.3879    8.7660    6.9816 H         1 RES1    0.0000
     40 H21        2.9087    8.3777    6.6368 H         1 RES1    0.0000
@<TRIPOS>BOND
     1    1    2 1
     2    3    1 1
     3    4    3 1
     4    5    3 1
     5    6    3 1
     6    7    6 1
     7    8    6 1
     8    9    8 1
     9   10    8 1
    10   11   10 1
    11   12   10 1
    12   13   12 1
    13   14   12 1
    14   15    1 1
    15   16   15 1
    16   17   16 1
    17   18   16 1
    18   19   16 1
    19   20    1 1
    20   21   20 1
    21   22   21 1
    22   23   21 1
    23   24   21 1
    24   25    6 1
    25   26   25 2
    26   27   25 2
    27   28    8 1
    28   29   28 1
    29   30   10 1
    30   31   12 1
    31   32   30 1
    32   33   32 1
    33   34   33 1
    34   35   33 1
    35   36   33 1
    36   37   32 1
    37   38   37 1
    38   39   37 1
    39   40   37 1
    40   31   32 1
@<TRIPOS>SUBSTRUCTURE
     1 RES1 1

@<TRIPOS>CRYSIN
   9.1334   24.8781    6.5997  90.0000  90.0000  90.0000  19 1

