# MOL2 file generated by ConQuest
# Please check atom types

@<TRIPOS>MOLECULE
TECPUM
    53    55     1
SMALL
NO_CHARGES
****
Generated from CSD

@<TRIPOS>ATOM
      1 C1         4.4747    5.9038    6.5134 C.3       1 RES1    0.0000
      2 H1         3.9222    6.3353    7.1691 H         1 RES1    0.0000
      3 C2         4.6505    6.8033    5.3054 C.3       1 RES1    0.0000
      4 H2         3.8524    6.7496    4.7746 H         1 RES1    0.0000
      5 H3         4.7648    7.7023    5.6217 H         1 RES1    0.0000
      6 C3         5.8323    6.4670    4.4097 C.3       1 RES1    0.0000
      7 H4         6.6010    6.3878    4.9792 H         1 RES1    0.0000
      8 C4         6.0741    7.5647    3.3563 C.3       1 RES1    0.0000
      9 H5         5.2752    7.6917    2.8393 H         1 RES1    0.0000
     10 N1         7.1395    7.1374    2.4543 N.pl3     1 RES1    0.0000
     11 H6         7.8142    6.8393    2.8402 H         1 RES1    0.0000
     12 C5         6.3590    8.9074    4.0028 C.ar      1 RES1    0.0000
     13 N2         5.5714    5.1791    3.6643 N.pl3     1 RES1    0.0000
     14 O1         6.3820    4.2824    3.7916 O.2       1 RES1    0.0000
     15 O2         4.5730    5.1282    2.9719 O.2       1 RES1    0.0000
     16 O3         5.7036    5.6467    7.0760 O.3       1 RES1    0.0000
     17 C6         5.5692    4.8507    8.2651 C.3       1 RES1    0.0000
     18 H7         6.4437    4.6653    8.6151 H         1 RES1    0.0000
     19 H8         5.0629    5.3448    8.9139 H         1 RES1    0.0000
     20 C7         4.8780    3.5649    7.9954 C.3       1 RES1    0.0000
     21 C8         3.6009    3.8965    7.2817 C.3       1 RES1    0.0000
     22 H9         3.0205    4.3694    7.8826 H         1 RES1    0.0000
     23 H10        3.1780    3.0807    7.0040 H         1 RES1    0.0000
     24 O4         3.8469    4.7156    6.1187 O.3       1 RES1    0.0000
     25 C9         7.5051    7.9999    1.4005 C.ar      1 RES1    0.0000
     26 C10        8.8233    8.1276    1.0239 C.ar      1 RES1    0.0000
     27 H11        9.5053    7.6592    1.5109 H         1 RES1    0.0000
     28 C11        9.1729    8.9329   -0.0565 C.ar      1 RES1    0.0000
     29 H12       10.0969    9.0180   -0.3029 H         1 RES1    0.0000
     30 C12        8.2169    9.6044   -0.7744 C.ar      1 RES1    0.0000
     31 H13        8.4622   10.1478   -1.5270 H         1 RES1    0.0000
     32 C13        6.9168    9.4877   -0.3973 C.ar      1 RES1    0.0000
     33 H14        6.2413    9.9624   -0.8870 H         1 RES1    0.0000
     34 C14        6.5445    8.6974    0.6818 C.ar      1 RES1    0.0000
     35 H15        5.6200    8.6305    0.9316 H         1 RES1    0.0000
     36 C15        7.4980    9.1124    4.7434 C.ar      1 RES1    0.0000
     37 H16        8.1064    8.3822    4.8783 H         1 RES1    0.0000
     38 C16        7.7916   10.3441    5.3018 C.ar      1 RES1    0.0000
     39 H17        8.5813   10.4583    5.8354 H         1 RES1    0.0000
     40 C17        6.9455   11.4042    5.0815 C.ar      1 RES1    0.0000
     41 H18        7.1474   12.2659    5.4533 H         1 RES1    0.0000
     42 C18        5.8243   11.2324    4.3429 C.ar      1 RES1    0.0000
     43 H19        5.2393   11.9777    4.1883 H         1 RES1    0.0000
     44 C19        5.5061    9.9827    3.7989 C.ar      1 RES1    0.0000
     45 H20        4.7008    9.8696    3.2888 H         1 RES1    0.0000
     46 C20        4.5675    2.8721    9.3190 C.3       1 RES1    0.0000
     47 H21        4.1206    2.0404    9.1448 H         1 RES1    0.0000
     48 H22        4.0010    3.4338    9.8531 H         1 RES1    0.0000
     49 H23        5.3864    2.7026    9.7904 H         1 RES1    0.0000
     50 C21        5.7194    2.6720    7.1073 C.3       1 RES1    0.0000
     51 H24        6.5399    2.4546    7.5559 H         1 RES1    0.0000
     52 H25        5.9150    3.1305    6.2869 H         1 RES1    0.0000
     53 H26        5.2361    1.8650    6.9155 H         1 RES1    0.0000
@<TRIPOS>BOND
     1    1    2 1
     2    3    1 1
     3    4    3 1
     4    5    3 1
     5    6    3 1
     6    7    6 1
     7    8    6 1
     8    9    8 1
     9   10    8 1
    10   11   10 1
    11   12    8 1
    12   13    6 1
    13   14   13 2
    14   15   13 2
    15   16    1 1
    16   17   16 1
    17   18   17 1
    18   19   17 1
    19   20   17 1
    20   21   20 1
    21   22   21 1
    22   23   21 1
    23   24    1 1
    24   25   10 1
    25   26   25 ar
    26   27   26 1
    27   28   26 ar
    28   29   28 1
    29   30   28 ar
    30   31   30 1
    31   32   30 ar
    32   33   32 1
    33   34   25 ar
    34   35   34 1
    35   36   12 ar
    36   37   36 1
    37   38   36 ar
    38   39   38 1
    39   40   38 ar
    40   41   40 1
    41   42   40 ar
    42   43   42 1
    43   44   12 ar
    44   45   44 1
    45   46   20 1
    46   47   46 1
    47   48   46 1
    48   49   46 1
    49   50   20 1
    50   51   50 1
    51   52   50 1
    52   53   50 1
    53   21   24 1
    54   32   34 ar
    55   42   44 ar
@<TRIPOS>SUBSTRUCTURE
     1 RES1 1

@<TRIPOS>CRYSIN
  10.6838   21.1091    9.1931  90.0000 109.7200  90.0000  14 2

