# MOL2 file generated by ConQuest
# Please check atom types

@<TRIPOS>MOLECULE
TECQUN
    31    31     1
SMALL
NO_CHARGES
****
Generated from CSD

@<TRIPOS>ATOM
      1 O1        -1.0631    2.8440    6.3601 O.3       1 RES1    0.0000
      2 O2         1.0799    3.4126    6.1861 O.2       1 RES1    0.0000
      3 O3         1.1446   -1.4171    5.4744 O.2       1 RES1    0.0000
      4 O4         0.6622   -1.0929    3.4328 O.2       1 RES1    0.0000
      5 O5         0.3650    2.0999    8.6454 O.2       1 RES1    0.0000
      6 N1         0.7434    0.4482    7.2027 N.am      1 RES1    0.0000
      7 N2         0.7575   -0.6865    4.5637 N.pl3     1 RES1    0.0000
      8 C1         0.2145    2.6193    6.2418 C.2       1 RES1    0.0000
      9 C2        -1.4118    4.2145    6.6345 C.3       1 RES1    0.0000
     10 C3         0.4653    1.1457    6.0719 C.2       1 RES1    0.0000
     11 C4         0.4491    0.6889    4.8324 C.2       1 RES1    0.0000
     12 C5         0.1396    1.4785    3.6208 C.3       1 RES1    0.0000
     13 C6         0.6795    0.9664    8.4728 C.2       1 RES1    0.0000
     14 C7         0.9895    0.0307    9.5674 C.ar      1 RES1    0.0000
     15 C8         0.8912    0.5477   10.8416 C.ar      1 RES1    0.0000
     16 C9         1.1433   -0.2370   11.9181 C.ar      1 RES1    0.0000
     17 C10        1.4815   -1.5264   11.7510 C.ar      1 RES1    0.0000
     18 C11        1.5608   -2.0729   10.4990 C.ar      1 RES1    0.0000
     19 C12        1.3357   -1.2857    9.4142 C.ar      1 RES1    0.0000
     20 H1        -1.0020    4.4926    7.4683 H         1 RES1    0.0000
     21 H2        -1.0977    4.7806    5.9135 H         1 RES1    0.0000
     22 H3        -2.3780    4.2933    6.7090 H         1 RES1    0.0000
     23 H4         1.0048   -0.4814    7.1059 H         1 RES1    0.0000
     24 H5        -0.0556    2.3948    3.8718 H         1 RES1    0.0000
     25 H6         0.9023    1.4633    3.0209 H         1 RES1    0.0000
     26 H7        -0.6310    1.0954    3.1724 H         1 RES1    0.0000
     27 H8         0.6403    1.4756   10.9678 H         1 RES1    0.0000
     28 H9         1.0797    0.1339   12.8126 H         1 RES1    0.0000
     29 H10        1.6716   -2.0764   12.5266 H         1 RES1    0.0000
     30 H11        1.7747   -3.0123   10.3869 H         1 RES1    0.0000
     31 H12        1.4209   -1.6601    8.5237 H         1 RES1    0.0000
@<TRIPOS>BOND
     1    1    8 1
     2    2    8 2
     3    3    7 2
     4    4    7 2
     5    5   13 2
     6    6   10 1
     7    7   11 1
     8    8   10 1
     9    9    1 1
    10   10   11 2
    11   11   12 1
    12   12   24 1
    13   13    6 1
    14   14   13 1
    15   15   14 ar
    16   16   15 ar
    17   17   16 ar
    18   18   17 ar
    19   19   14 ar
    20   20    9 1
    21   21    9 1
    22   22    9 1
    23   23    6 1
    24   25   12 1
    25   26   12 1
    26   27   15 1
    27   28   16 1
    28   29   17 1
    29   30   18 1
    30   31   19 1
    31   18   19 ar
@<TRIPOS>SUBSTRUCTURE
     1 RES1 1

@<TRIPOS>CRYSIN
   7.1980   12.2800   14.0730  90.0000  98.2800  90.0000  14 1

