# MOL2 file generated by ConQuest
# Please check atom types

@<TRIPOS>MOLECULE
TECRUO
    22    24     1
SMALL
NO_CHARGES
****
Generated from CSD

@<TRIPOS>ATOM
      1 O1         0.2468    3.6676    5.2889 O.2       1 RES1    0.0000
      2 O2         2.1228    5.9941    9.6949 O.2       1 RES1    0.0000
      3 O3        -1.1280    5.8697    4.0166 O.2       1 RES1    0.0000
      4 O4         0.7645    5.7960    2.9973 O.2       1 RES1    0.0000
      5 O5        -0.3586    0.6371    6.1675 O.2       1 RES1    0.0000
      6 O6        -1.8878    2.1285    6.3377 O.2       1 RES1    0.0000
      7 N1         0.0855    5.9961    3.9814 N.pl3     1 RES1    0.0000
      8 N2        -0.8168    1.6426    6.6638 N.pl3     1 RES1    0.0000
      9 C1         0.7624    6.4919    5.1863 C.ar      1 RES1    0.0000
     10 C2         1.2461    7.7742    5.1258 C.ar      1 RES1    0.0000
     11 C3         1.8512    8.3098    6.2407 C.ar      1 RES1    0.0000
     12 C4         1.9757    7.5661    7.3977 C.ar      1 RES1    0.0000
     13 C5         1.1791    3.3809    9.9395 C.ar      1 RES1    0.0000
     14 C6         0.6654    2.1006   10.0140 C.ar      1 RES1    0.0000
     15 C7         0.0372    1.5371    8.9329 C.ar      1 RES1    0.0000
     16 C8        -0.0802    2.2728    7.7674 C.ar      1 RES1    0.0000
     17 C9         0.4654    4.2609    6.3264 C.2       1 RES1    0.0000
     18 C10        1.6131    5.4944    8.7164 C.2       1 RES1    0.0000
     19 C11        0.8800    5.6915    6.3236 C.ar      1 RES1    0.0000
     20 C12        1.4847    6.2649    7.4441 C.ar      1 RES1    0.0000
     21 C13        0.4433    3.5571    7.6409 C.ar      1 RES1    0.0000
     22 C14        1.0578    4.1136    8.7600 C.ar      1 RES1    0.0000
@<TRIPOS>BOND
     1    1   17 2
     2    2   18 2
     3    3    7 2
     4    4    7 2
     5    5    8 2
     6    6    8 2
     7    7    9 1
     8    8   16 1
     9    9   10 ar
    10   10   11 ar
    11   11   12 ar
    12   12   20 ar
    13   13   14 ar
    14   14   15 ar
    15   15   16 ar
    16   16   21 ar
    17   17   19 1
    18   18   20 1
    19   19    9 ar
    20   20   19 ar
    21   21   17 1
    22   22   13 ar
    23   18   22 1
    24   21   22 ar
@<TRIPOS>SUBSTRUCTURE
     1 RES1 1

@<TRIPOS>CRYSIN
   8.6614    9.9554   14.4002  90.0000 102.5030  90.0000 231 1

