# MOL2 file generated by ConQuest
# Please check atom types

@<TRIPOS>MOLECULE
TECSUQ01
    41    43     1
SMALL
NO_CHARGES
****
Generated from CSD

@<TRIPOS>ATOM
      1 O1         2.4546    3.8188   10.4721 O.2       1 RES1    0.0000
      2 O2         5.2678    7.1141   15.8570 O.2       1 RES1    0.0000
      3 O3         6.2678    6.3380   17.5821 O.2       1 RES1    0.0000
      4 N1         1.8098    1.7516    9.6116 N.am      1 RES1    0.0000
      5 N2         2.0655    0.4057    9.9355 N.3       1 RES1    0.0000
      6 N3         3.5254    1.9556   12.7770 N.2       1 RES1    0.0000
      7 N4         5.6703    6.1934   16.5240 N.pl3     1 RES1    0.0000
      8 C1         0.7472    3.1975    8.0068 C.ar      1 RES1    0.0000
      9 H1         0.3420    3.6516    8.7107 H         1 RES1    0.0000
     10 C2         0.5208    3.5891    6.7000 C.ar      1 RES1    0.0000
     11 H2        -0.0283    4.3191    6.5274 H         1 RES1    0.0000
     12 C3         1.0993    2.9107    5.6575 C.ar      1 RES1    0.0000
     13 H3         0.9386    3.1764    4.7797 H         1 RES1    0.0000
     14 C4         1.9172    1.8360    5.9132 C.ar      1 RES1    0.0000
     15 H4         2.3005    1.3694    5.2069 H         1 RES1    0.0000
     16 C5         2.1737    1.4467    7.2098 C.ar      1 RES1    0.0000
     17 H5         2.7435    0.7316    7.3817 H         1 RES1    0.0000
     18 C6         1.5766    2.1291    8.2550 C.ar      1 RES1    0.0000
     19 C7         2.3859    2.5902   10.5784 C.2       1 RES1    0.0000
     20 C8         2.8523    1.6812   11.5857 C.2       1 RES1    0.0000
     21 C9         2.6257    0.4057   11.1756 C.2       1 RES1    0.0000
     22 C10        3.6810    3.1452   13.2081 C.2       1 RES1    0.0000
     23 H6         3.3054    3.8634   12.7505 H         1 RES1    0.0000
     24 C11        4.4580    3.3710   14.4335 C.ar      1 RES1    0.0000
     25 C12        5.0580    2.3135   15.1018 C.ar      1 RES1    0.0000
     26 H7         4.9458    1.4491   14.7774 H         1 RES1    0.0000
     27 C13        5.8131    2.5121   16.2337 C.ar      1 RES1    0.0000
     28 H8         6.1899    1.7836   16.6731 H         1 RES1    0.0000
     29 C14        6.0159    3.7876   16.7222 C.ar      1 RES1    0.0000
     30 H9         6.5289    3.9369   17.4828 H         1 RES1    0.0000
     31 C15        5.4315    4.8303   16.0433 C.ar      1 RES1    0.0000
     32 C16        4.6504    4.6560   14.9190 C.ar      1 RES1    0.0000
     33 H10        4.2613    5.3860   14.4954 H         1 RES1    0.0000
     34 C17        1.1348   -0.6050    9.4525 C.3       1 RES1    0.0000
     35 H11        1.3696   -1.4592    9.8218 H         1 RES1    0.0000
     36 H12        1.1781   -0.6487    8.4957 H         1 RES1    0.0000
     37 H13        0.2433   -0.3736    9.7213 H         1 RES1    0.0000
     38 C18        2.8988   -0.8535   11.9099 C.3       1 RES1    0.0000
     39 H14        2.1228   -1.1044   12.4155 H         1 RES1    0.0000
     40 H15        3.6403   -0.7222   12.5048 H         1 RES1    0.0000
     41 H16        3.1115   -1.5491   11.2848 H         1 RES1    0.0000
@<TRIPOS>BOND
     1    1   19 2
     2    2    7 2
     3    3    7 2
     4    4    5 1
     5    5   21 1
     6    6   20 1
     7    7   31 1
     8    8    9 1
     9   10    8 ar
    10   11   10 1
    11   12   10 ar
    12   13   12 1
    13   14   12 ar
    14   15   14 1
    15   16   14 ar
    16   17   16 1
    17   18    4 1
    18   19    4 1
    19   20   19 1
    20   21   20 2
    21   22    6 2
    22   23   22 1
    23   24   22 1
    24   25   24 ar
    25   26   25 1
    26   27   25 ar
    27   28   27 1
    28   29   27 ar
    29   30   29 1
    30   31   29 ar
    31   32   24 ar
    32   33   32 1
    33   34    5 1
    34   35   34 1
    35   36   34 1
    36   37   34 1
    37   38   21 1
    38   39   38 1
    39   40   38 1
    40   41   38 1
    41    8   18 ar
    42   16   18 ar
    43   31   32 ar
@<TRIPOS>SUBSTRUCTURE
     1 RES1 1

@<TRIPOS>CRYSIN
   7.6320    7.8160   28.0820  90.0000  96.1800  90.0000  14 1

