# MOL2 file generated by ConQuest
# Please check atom types

@<TRIPOS>MOLECULE
TECSAX
    25    25     1
SMALL
USER_CHARGES
****
Generated from CSD

@<TRIPOS>ATOM
      1 O1         3.2738   10.0842   -0.1325 O.2       1 RES1   -1.0000
      2 N1         2.3541   10.2888    0.7699 N.pl3     1 RES1    1.0000
      3 C1         2.3355   11.5063    1.4129 C.ar      1 RES1    0.0000
      4 C2         1.3370   11.7297    2.3489 C.ar      1 RES1    0.0000
      5 H1         1.2805   12.5797    2.8363 H         1 RES1    0.0000
      6 C3         0.4062   10.7484    2.6093 C.ar      1 RES1    0.0000
      7 C4         0.4393    9.4937    1.9917 C.ar      1 RES1    0.0000
      8 C5         1.4611    9.3201    1.0806 C.ar      1 RES1    0.0000
      9 H2         1.5857    8.4768    0.5888 H         1 RES1    0.0000
     10 N2         3.3184   12.3543    1.0724 N.3       1 RES1    0.0000
     11 H3         3.8348   12.0652    0.4481 H         1 RES1    0.0000
     12 C6         3.4501   13.6828    1.6258 C.3       1 RES1    0.0000
     13 H4         3.3233   13.6413    2.5289 H         1 RES1    0.0000
     14 H5         4.3613   13.9288    1.4451 H         1 RES1    0.0000
     15 C7         2.4988   14.6799    1.0279 C.3       1 RES1    0.0000
     16 H6         2.7708   14.8565    0.1198 H         1 RES1    0.0000
     17 H7         1.5610   14.4482    1.1836 H         1 RES1    0.0000
     18 H8         2.5558   15.5343    1.4471 H         1 RES1    0.0000
     19 N3        -0.6295   11.0829    3.5834 N.pl3     1 RES1    0.0000
     20 O2        -0.5877   12.1746    4.1387 O.2       1 RES1    0.0000
     21 O3        -1.5208   10.2795    3.7989 O.2       1 RES1    0.0000
     22 C8        -0.4866    8.3390    2.2196 C.3       1 RES1    0.0000
     23 H9        -0.5726    8.1224    3.2036 H         1 RES1    0.0000
     24 H10       -1.4046    8.5373    1.9261 H         1 RES1    0.0000
     25 H11       -0.1689    7.5801    1.7365 H         1 RES1    0.0000
@<TRIPOS>BOND
     1    1    2 1
     2    2    3 ar
     3    3    4 ar
     4    4    5 1
     5    6    4 ar
     6    7    6 ar
     7    8    2 ar
     8    9    8 1
     9   10    3 1
    10   11   10 1
    11   12   10 1
    12   13   12 1
    13   14   12 1
    14   15   12 1
    15   16   15 1
    16   17   15 1
    17   18   15 1
    18   19    6 1
    19   20   19 2
    20   21   19 2
    21   22    7 1
    22   23   22 1
    23   24   22 1
    24   25   22 1
    25    7    8 ar
@<TRIPOS>SUBSTRUCTURE
     1 RES1 1

@<TRIPOS>CRYSIN
   5.7070   16.3330   10.1170  90.0000  99.4400  90.0000  14 1

