# MOL2 file generated by ConQuest
# Please check atom types

@<TRIPOS>MOLECULE
TECYAD
    45    45     1
SMALL
NO_CHARGES
****
Generated from CSD

@<TRIPOS>ATOM
      1 C1         3.5512    4.2125    7.5366 C.2       1 RES1    0.0000
      2 C2         4.2939    5.1933    8.4463 C.3       1 RES1    0.0000
      3 C3         3.5895    6.5465    8.5902 C.2       1 RES1    0.0000
      4 C4         3.2924    7.3444    7.3350 C.2       1 RES1    0.0000
      5 C5         3.0902    8.8324    7.4632 C.3       1 RES1    0.0000
      6 H1         2.4943    9.0186    8.2311 H         1 RES1    0.0000
      7 H2         2.6521    9.1775    6.6454 H         1 RES1    0.0000
      8 C6         4.4235    9.5535    7.6676 C.3       1 RES1    0.0000
      9 H3         4.8496    9.2045    8.4904 H         1 RES1    0.0000
     10 H4         4.2457   10.5172    7.8066 H         1 RES1    0.0000
     11 C7         5.4085    9.3965    6.4957 C.3       1 RES1    0.0000
     12 H5         5.4567    8.4403    6.2433 H         1 RES1    0.0000
     13 H6         5.0617    9.8971    5.7160 H         1 RES1    0.0000
     14 C8         6.8062    9.8912    6.8175 C.3       1 RES1    0.0000
     15 H7         6.7427   10.8161    7.1648 H         1 RES1    0.0000
     16 H8         7.3326    9.9223    5.9792 H         1 RES1    0.0000
     17 C9         7.5549    9.0372    7.8349 C.3       1 RES1    0.0000
     18 H9         6.9963    8.9449    8.6469 H         1 RES1    0.0000
     19 H10        8.3876    9.5067    8.0942 H         1 RES1    0.0000
     20 C10        7.9201    7.6267    7.3184 C.3       1 RES1    0.0000
     21 H11        8.8033    7.6628    6.8733 H         1 RES1    0.0000
     22 H12        7.2520    7.3473    6.6424 H         1 RES1    0.0000
     23 C11        7.9668    6.5679    8.4522 C.3       1 RES1    0.0000
     24 H13        8.4027    5.7481    8.1079 H         1 RES1    0.0000
     25 H14        8.5222    6.9165    9.1937 H         1 RES1    0.0000
     26 C12        6.5857    6.2055    8.9942 C.3       1 RES1    0.0000
     27 H15        6.0960    7.0380    9.2104 H         1 RES1    0.0000
     28 H16        6.6937    5.6917    9.8335 H         1 RES1    0.0000
     29 C13        5.7543    5.3795    8.0061 C.3       1 RES1    0.0000
     30 H17        6.1735    4.4889    7.9005 H         1 RES1    0.0000
     31 H18        5.7683    5.8263    7.1228 H         1 RES1    0.0000
     32 C14        1.4137    3.2848    7.0758 C.3       1 RES1    0.0000
     33 H19        0.6223    3.0509    7.6226 H         1 RES1    0.0000
     34 H20        1.9250    2.4535    6.9085 H         1 RES1    0.0000
     35 C15        0.9605    3.8657    5.7630 C.3       1 RES1    0.0000
     36 H21        0.4763    4.7018    5.9254 H         1 RES1    0.0000
     37 H22        0.3695    3.2288    5.3100 H         1 RES1    0.0000
     38 H23        1.7419    4.0457    5.1975 H         1 RES1    0.0000
     39 H24        2.8851    6.7885    4.3435 H         1 RES1    0.0000
     40 N1         3.2925    6.6200    6.2824 N.2       1 RES1    0.0000
     41 O1         4.0977    3.4792    6.7305 O.2       1 RES1    0.0000
     42 O2         2.2484    4.2223    7.8134 O.3       1 RES1    0.0000
     43 O3         3.3125    7.0036    9.6887 O.2       1 RES1    0.0000
     44 O4         2.9899    7.3547    5.1232 O.3       1 RES1    0.0000
     45 H25        4.3217    4.8032    9.3483 H         1 RES1    0.0000
@<TRIPOS>BOND
     1    1    2 1
     2    2    3 1
     3    3    4 1
     4    4    5 1
     5    5    6 1
     6    7    5 1
     7    8    5 1
     8    9    8 1
     9   10    8 1
    10   11    8 1
    11   12   11 1
    12   13   11 1
    13   14   11 1
    14   15   14 1
    15   16   14 1
    16   17   14 1
    17   18   17 1
    18   19   17 1
    19   20   17 1
    20   21   20 1
    21   22   20 1
    22   23   20 1
    23   24   23 1
    24   25   23 1
    25   26   23 1
    26   27   26 1
    27   28   26 1
    28   29    2 1
    29   30   29 1
    30   31   29 1
    31   32   33 1
    32   34   32 1
    33   35   32 1
    34   36   35 1
    35   37   35 1
    36   38   35 1
    37   39   44 1
    38   40    4 2
    39   41    1 2
    40   42    1 1
    41   43    3 2
    42   44   40 1
    43   45    2 1
    44   26   29 1
    45   32   42 1
@<TRIPOS>SUBSTRUCTURE
     1 RES1 1

@<TRIPOS>CRYSIN
   8.3961    9.4155    9.8400  91.4300  95.9000  94.1500   2 1

