# MOL2 file generated by ConQuest
# Please check atom types

@<TRIPOS>MOLECULE
TEDBIN
    29    32     1
SMALL
NO_CHARGES
****
Generated from CSD

@<TRIPOS>ATOM
      1 C1         0.4237    9.8856    4.2180 C.3       1 RES1    0.0000
      2 C2         1.3529   11.0838    3.7561 C.3       1 RES1    0.0000
      3 C3         2.8298   10.7349    4.0327 C.3       1 RES1    0.0000
      4 C4         3.0669   10.3579    5.5024 C.3       1 RES1    0.0000
      5 C5         2.1700    9.2336    5.9339 C.3       1 RES1    0.0000
      6 C6         0.7082    9.5677    5.6921 C.3       1 RES1    0.0000
      7 C7         0.9788   12.3933    4.4381 C.3       1 RES1    0.0000
      8 N1         1.1869   11.2636    2.2719 N.3       1 RES1    0.0000
      9 C8         1.3432   12.5690    1.5754 C.3       1 RES1    0.0000
     10 C9         0.4700   12.5677    0.3200 C.ar      1 RES1    0.0000
     11 C10       -0.8829   12.2994    0.4532 C.ar      1 RES1    0.0000
     12 C11       -1.6989   12.2618   -0.6646 C.ar      1 RES1    0.0000
     13 C12       -1.1933   12.5261   -1.9128 C.ar      1 RES1    0.0000
     14 C13        0.1250   12.8307   -2.0417 C.ar      1 RES1    0.0000
     15 C14        0.9519   12.8548   -0.9282 C.ar      1 RES1    0.0000
     16 C15        2.8060   12.8897    1.3365 C.ar      1 RES1    0.0000
     17 C16        3.6814   11.9532    0.7921 C.ar      1 RES1    0.0000
     18 C17        5.0105   12.2806    0.5850 C.ar      1 RES1    0.0000
     19 C18        5.4730   13.5284    0.9166 C.ar      1 RES1    0.0000
     20 C19        4.6235   14.4568    1.4523 C.ar      1 RES1    0.0000
     21 C20        3.2836   14.1402    1.6638 C.ar      1 RES1    0.0000
     22 C21       -1.0521   10.1902    3.9588 C.ar      1 RES1    0.0000
     23 C22       -1.8380   10.8731    4.8696 C.ar      1 RES1    0.0000
     24 C23       -3.1715   11.1240    4.6162 C.ar      1 RES1    0.0000
     25 C24       -3.7439   10.7255    3.4462 C.ar      1 RES1    0.0000
     26 C25       -2.9871   10.0386    2.5181 C.ar      1 RES1    0.0000
     27 C26       -1.6547    9.7568    2.7888 C.ar      1 RES1    0.0000
     28 O1         1.3206   10.2318    1.5161 O.2       1 RES1    0.0000
     29 O2         0.7869    8.6768    3.5505 O.3       1 RES1    0.0000
@<TRIPOS>BOND
     1    1    2 1
     2    2    3 1
     3    3    4 1
     4    4    5 1
     5    5    6 1
     6    6    1 1
     7    7    2 1
     8    8    2 1
     9    9    8 1
    10   10    9 1
    11   11   10 ar
    12   12   11 ar
    13   13   12 ar
    14   14   13 ar
    15   15   10 ar
    16   16    9 1
    17   17   16 ar
    18   18   17 ar
    19   19   18 ar
    20   20   19 ar
    21   21   16 ar
    22   22    1 1
    23   23   22 ar
    24   24   23 ar
    25   25   24 ar
    26   26   25 ar
    27   27   22 ar
    28   28    8 1
    29   29    1 1
    30   14   15 ar
    31   20   21 ar
    32   26   27 ar
@<TRIPOS>SUBSTRUCTURE
     1 RES1 1

@<TRIPOS>CRYSIN
  10.7800   13.4170   14.4800  90.0000  90.0000  90.0000  19 1

