# MOL2 file generated by ConQuest
# Please check atom types

@<TRIPOS>MOLECULE
TEDFAJ
    38    42     2
SMALL
NO_CHARGES
****
Generated from CSD

@<TRIPOS>ATOM
      1 O1         7.2125   -0.6638   13.1097 O.3       1 RES1    0.0000
      2 O2         7.5954    4.3959    8.6489 O.3       1 RES1    0.0000
      3 O3         9.3209    3.0291    9.8570 O.3       1 RES1    0.0000
      4 O4         4.2618    0.6490   11.5480 O.3       1 RES1    0.0000
      5 N1         4.1064    1.6940   10.5985 N.2       1 RES1    0.0000
      6 C1         7.2970   -1.7126   13.9906 C.2       1 RES1    0.0000
      7 C2         6.0813   -2.2091   14.2067 C.2       1 RES1    0.0000
      8 C3         5.1695   -1.4727   13.4431 C.2       1 RES1    0.0000
      9 C4         5.8850   -0.5411   12.7845 C.2       1 RES1    0.0000
     10 C5         8.6571   -2.0492   14.4633 C.3       1 RES1    0.0000
     11 C6         5.5770    0.4909   11.8491 C.2       1 RES1    0.0000
     12 C7         6.3102    1.3872   11.1339 C.2       1 RES1    0.0000
     13 C8         7.6963    1.6736   10.9965 C.2       1 RES1    0.0000
     14 C9         8.0520    2.6516   10.1480 C.2       1 RES1    0.0000
     15 C10        7.0516    3.4271    9.4207 C.2       1 RES1    0.0000
     16 C11        5.7378    3.1630    9.5176 C.2       1 RES1    0.0000
     17 C12        5.3535    2.1068   10.3823 C.2       1 RES1    0.0000
     18 C13        6.7000    5.1806    7.8428 C.3       1 RES1    0.0000
     19 C14       10.3662    2.2537   10.4389 C.3       1 RES1    0.0000
     20 O5         6.7382   16.9270    4.6730 O.3       2 RES2    0.0000
     21 O6         6.8567   11.8543    9.0893 O.3       2 RES2    0.0000
     22 O7         8.6435   13.1355    7.8529 O.3       2 RES2    0.0000
     23 O8         3.6689   15.4599    5.8609 O.3       2 RES2    0.0000
     24 N2         3.4740   14.3962    6.7922 N.2       2 RES2    0.0000
     25 C15        6.9126   17.9014    3.7295 C.2       2 RES2    0.0000
     26 C16        5.7215   18.2380    3.2204 C.2       2 RES2    0.0000
     27 C17        4.7456   17.4737    3.8669 C.2       2 RES2    0.0000
     28 C18        5.3862   16.6741    4.7538 C.2       2 RES2    0.0000
     29 C19        8.3028   18.3049    3.4870 C.3       2 RES2    0.0000
     30 C20        5.0032   15.6533    5.6710 C.2       2 RES2    0.0000
     31 C21        5.7010   14.7719    6.4306 C.2       2 RES2    0.0000
     32 C22        7.0789   14.5004    6.6488 C.2       2 RES2    0.0000
     33 C23        7.3896   13.5241    7.5196 C.2       2 RES2    0.0000
     34 C24        6.3579   12.7710    8.2246 C.2       2 RES2    0.0000
     35 C25        5.0509   13.0072    8.0186 C.2       2 RES2    0.0000
     36 C26        4.7047   14.0243    7.1074 C.2       2 RES2    0.0000
     37 C27        5.9150   11.1514    9.9177 C.3       2 RES2    0.0000
     38 C28        9.7216   13.9184    7.3236 C.3       2 RES2    0.0000
@<TRIPOS>BOND
     1    1    6 1
     2    2   15 1
     3    3   14 1
     4    4    5 1
     5    5   17 2
     6    6    7 2
     7    7    8 1
     8    8    9 2
     9    9    1 1
    10   10    6 1
    11   11    4 1
    12   12   11 2
    13   13   12 1
    14   14   13 2
    15   15   14 1
    16   16   15 2
    17   17   12 1
    18   18    2 1
    19   19    3 1
    20   20   25 1
    21   21   34 1
    22   22   33 1
    23   23   24 1
    24   24   36 2
    25   25   26 2
    26   26   27 1
    27   27   28 2
    28   28   20 1
    29   29   25 1
    30   30   23 1
    31   31   30 2
    32   32   31 1
    33   33   32 2
    34   34   33 1
    35   35   34 2
    36   36   31 1
    37   37   21 1
    38   38   22 1
    39    9   11 1
    40   16   17 1
    41   28   30 1
    42   35   36 1
@<TRIPOS>SUBSTRUCTURE
     1 RES1 1
     2 RES2 20

@<TRIPOS>CRYSIN
  13.6290   18.5950   20.2030  90.0000  90.0000  90.0000  61 1

