# MOL2 file generated by ConQuest
# Please check atom types

@<TRIPOS>MOLECULE
TEDROL
    10     9     1
SMALL
NO_CHARGES
****
Generated from CSD

@<TRIPOS>ATOM
      1 N1         3.0887    1.3051    4.5007 N.3       1 RES1    0.0000
      2 N2         2.4210    2.4847    4.2761 N.3       1 RES1    0.0000
      3 N3         1.1640    2.5126    4.0152 N.2       1 RES1    0.0000
      4 O1         0.6509    1.3427    3.8897 O.2       1 RES1    0.0000
      5 C1         3.1464    3.7368    4.4330 C.3       1 RES1    0.0000
      6 H1         3.9425    1.3551    4.2740 H         1 RES1    0.0000
      7 H2         2.7260    0.6194    4.1233 H         1 RES1    0.0000
      8 H3         3.6866    3.6862    5.2358 H         1 RES1    0.0000
      9 H4         2.5260    4.4694    4.4825 H         1 RES1    0.0000
     10 H5         3.7190    3.8656    3.6902 H         1 RES1    0.0000
@<TRIPOS>BOND
     1    1    2 1
     2    2    3 1
     3    3    4 2
     4    5    2 1
     5    6    1 1
     6    7    1 1
     7    8    5 1
     8    9    5 1
     9   10    5 1
@<TRIPOS>SUBSTRUCTURE
     1 RES1 1

@<TRIPOS>CRYSIN
   5.2520    9.6930    7.1840  90.0000 103.8700  90.0000  14 1

