# MOL2 file generated by ConQuest
# Please check atom types

@<TRIPOS>MOLECULE
TEDYOT
    20    21     1
SMALL
NO_CHARGES
****
Generated from CSD

@<TRIPOS>ATOM
      1 O1         2.7063    1.7158    0.3465 O.3       1 RES1    0.0000
      2 O2         2.3849    5.3826    2.8610 O.2       1 RES1    0.0000
      3 O3         3.4161    3.6646    3.6570 O.2       1 RES1    0.0000
      4 N1         3.9275    0.3555    1.6105 N.2       1 RES1    0.0000
      5 N2         3.7598    1.5818    2.2248 N.3       1 RES1    0.0000
      6 N3         2.8023    4.2292    2.7566 N.pl3     1 RES1    0.0000
      7 N4         2.5245    3.6086    1.5738 N.2       1 RES1    0.0000
      8 C1         3.0058    2.3923    1.4866 C.2       1 RES1    0.0000
      9 C2         3.2862    0.4927    0.5150 C.2       1 RES1    0.0000
     10 H1         4.0197    1.7315    3.1142 H         1 RES1    0.0000
     11 O1D        3.6945   -1.7158   -0.3465 O.3       1 RES1    0.0000
     12 O2D        4.0159   -5.3826   -2.8610 O.2       1 RES1    0.0000
     13 O3D        2.9847   -3.6646   -3.6570 O.2       1 RES1    0.0000
     14 N1D        2.4733   -0.3555   -1.6105 N.2       1 RES1    0.0000
     15 N2D        2.6410   -1.5818   -2.2248 N.3       1 RES1    0.0000
     16 N3D        3.5985   -4.2292   -2.7566 N.pl3     1 RES1    0.0000
     17 N4D        3.8763   -3.6086   -1.5738 N.2       1 RES1    0.0000
     18 C1D        3.3950   -2.3923   -1.4866 C.2       1 RES1    0.0000
     19 C2D        3.1146   -0.4927   -0.5150 C.2       1 RES1    0.0000
     20 H1D        2.3811   -1.7315   -3.1142 H         1 RES1    0.0000
@<TRIPOS>BOND
     1    1    8 1
     2    2    6 2
     3    3    6 2
     4    4    5 1
     5    5    8 1
     6    6    7 1
     7    7    8 2
     8    9    1 1
     9   10    5 1
    10   11   18 1
    11   12   16 2
    12   13   16 2
    13   14   15 1
    14   15   18 1
    15   16   17 1
    16   17   18 2
    17   19    9 1
    18   20   15 1
    19    4    9 2
    20   11   19 1
    21   14   19 2
@<TRIPOS>SUBSTRUCTURE
     1 RES1 1

@<TRIPOS>CRYSIN
   6.4008    8.3648   16.0940  90.0000  90.0000  90.0000  61 1

