# MOL2 file generated by ConQuest
# Please check atom types

@<TRIPOS>MOLECULE
TEDYAC
    34    35     1
SMALL
NO_CHARGES
****
Generated from CSD

@<TRIPOS>ATOM
      1 O1         1.2823    7.2200    1.7337 O.2       1 RES1    0.0000
      2 O2         2.7653    7.9716    3.1149 O.2       1 RES1    0.0000
      3 N1         1.4808   11.0536    0.0194 N.ar      1 RES1    0.0000
      4 N2         1.9203    8.1261    2.2642 N.pl3     1 RES1    0.0000
      5 N3        -0.1499    8.0191    4.7402 N.1       1 RES1    0.0000
      6 C1         1.7290    9.8104    0.4712 C.ar      1 RES1    0.0000
      7 C2         1.6212    9.5104    1.8137 C.ar      1 RES1    0.0000
      8 C3         1.2825   10.4758    2.7599 C.ar      1 RES1    0.0000
      9 C4         1.0203   11.7502    2.2616 C.ar      1 RES1    0.0000
     10 C5         1.1320   12.0042    0.9127 C.ar      1 RES1    0.0000
     11 C6         0.8245   13.3707    0.3498 C.3       1 RES1    0.0000
     12 C7         2.1485    8.8182   -0.5886 C.3       1 RES1    0.0000
     13 C8         1.1165   10.2159    4.2225 C.2       1 RES1    0.0000
     14 C9         1.5198   11.1071    5.1481 C.2       1 RES1    0.0000
     15 C10        1.3731   11.1323    6.6042 C.ar      1 RES1    0.0000
     16 C11        0.9532   10.0599    7.3942 C.ar      1 RES1    0.0000
     17 C12        0.8312   10.2055    8.7484 C.ar      1 RES1    0.0000
     18 C13        1.1088   11.4071    9.3680 C.ar      1 RES1    0.0000
     19 C14        1.5259   12.4795    8.6090 C.ar      1 RES1    0.0000
     20 C15        1.6915   12.3354    7.2510 C.ar      1 RES1    0.0000
     21 C16        0.4234    8.9920    4.5569 C.1       1 RES1    0.0000
     22 H1         0.7515   12.4617    2.8787 H         1 RES1    0.0000
     23 H2         0.2827   13.8430    1.0844 H         1 RES1    0.0000
     24 H3         0.4580   13.2786   -0.4905 H         1 RES1    0.0000
     25 H4         1.6557   13.8430    0.0775 H         1 RES1    0.0000
     26 H5         2.4260    9.2386   -1.4071 H         1 RES1    0.0000
     27 H6         2.7955    8.1692   -0.2324 H         1 RES1    0.0000
     28 H7         1.3151    8.4365   -1.0585 H         1 RES1    0.0000
     29 H8         2.0057   11.8230    4.8279 H         1 RES1    0.0000
     30 H9         0.7070    9.3574    7.0354 H         1 RES1    0.0000
     31 H10        0.5128    9.5059    9.2557 H         1 RES1    0.0000
     32 H11        0.9282   11.4665   10.3272 H         1 RES1    0.0000
     33 H12        1.7991   13.3083    8.9846 H         1 RES1    0.0000
     34 H13        1.9574   13.0409    6.7127 H         1 RES1    0.0000
@<TRIPOS>BOND
     1    1    4 2
     2    2    4 2
     3    3    6 ar
     4    4    7 1
     5    5   21 3
     6    6    7 ar
     7    7    8 ar
     8    8    9 ar
     9    9   10 ar
    10   10    3 ar
    11   11   10 1
    12   12    6 1
    13   13    8 1
    14   14   13 2
    15   15   14 1
    16   16   15 ar
    17   17   16 ar
    18   18   17 ar
    19   19   18 ar
    20   20   15 ar
    21   21   13 1
    22   22    9 1
    23   23   11 1
    24   24   11 1
    25   25   11 1
    26   26   12 1
    27   27   12 1
    28   28   12 1
    29   29   14 1
    30   30   16 1
    31   31   17 1
    32   32   18 1
    33   33   19 1
    34   34   20 1
    35   19   20 ar
@<TRIPOS>SUBSTRUCTURE
     1 RES1 1

@<TRIPOS>CRYSIN
   7.3650   14.8530   12.9110  90.0000  91.0200  90.0000 231 1

