# MOL2 file generated by ConQuest
# Please check atom types

@<TRIPOS>MOLECULE
TEFMOG
    35    37     1
SMALL
NO_CHARGES
****
Generated from CSD

@<TRIPOS>ATOM
      1 O1         1.7423    4.6536    6.3458 O.3       1 RES1    0.0000
      2 N1         2.6864    4.7361    7.3937 N.2       1 RES1    0.0000
      3 C1         3.6384    3.9068    7.1784 C.2       1 RES1    0.0000
      4 C2         3.4456    3.1047    5.9347 C.3       1 RES1    0.0000
      5 C3         2.3312    3.8741    5.2444 C.3       1 RES1    0.0000
      6 C4         1.2424    3.0120    4.6406 C.3       1 RES1    0.0000
      7 C5         0.1987    3.8232    3.8936 C.3       1 RES1    0.0000
      8 N2         0.8142    4.6751    2.8870 N.3       1 RES1    0.0000
      9 C6         1.7179    5.6061    3.5320 C.3       1 RES1    0.0000
     10 C7         2.8426    4.8694    4.2182 C.3       1 RES1    0.0000
     11 C8         4.7472    3.7600    8.1170 C.ar      1 RES1    0.0000
     12 C9         5.0247    4.7271    9.0824 C.ar      1 RES1    0.0000
     13 C10        6.0438    4.5452    9.9912 C.ar      1 RES1    0.0000
     14 C11        6.8112    3.3984    9.9448 C.ar      1 RES1    0.0000
     15 C12        6.5643    2.4438    8.9948 C.ar      1 RES1    0.0000
     16 C13        5.5410    2.6211    8.0851 C.ar      1 RES1    0.0000
     17 C14       -0.2062    5.3948    2.1287 C.3       1 RES1    0.0000
     18 H1         4.2436    3.0877    5.4010 H         1 RES1    0.0000
     19 H2         3.1760    2.2054    6.1367 H         1 RES1    0.0000
     20 H3         1.6457    2.3929    4.0286 H         1 RES1    0.0000
     21 H4         0.8082    2.5285    5.3464 H         1 RES1    0.0000
     22 H5        -0.2773    4.3735    4.5201 H         1 RES1    0.0000
     23 H6        -0.3599    3.2233    3.4640 H         1 RES1    0.0000
     24 H7         2.0852    6.1970    2.8705 H         1 RES1    0.0000
     25 H8         1.2321    6.1167    4.1832 H         1 RES1    0.0000
     26 H9         3.3527    4.3972    3.5557 H         1 RES1    0.0000
     27 H10        3.4071    5.5078    4.6602 H         1 RES1    0.0000
     28 H11        4.4979    5.5292    9.1133 H         1 RES1    0.0000
     29 H12        6.2207    5.2163   10.6547 H         1 RES1    0.0000
     30 H13        7.5190    3.2696   10.5805 H         1 RES1    0.0000
     31 H14        7.1023    1.6495    8.9619 H         1 RES1    0.0000
     32 H15        5.3763    1.9489    7.4195 H         1 RES1    0.0000
     33 H16       -0.7965    4.7655    1.7083 H         1 RES1    0.0000
     34 H17        0.2158    5.9360    1.4569 H         1 RES1    0.0000
     35 H18       -0.7096    5.9574    2.7232 H         1 RES1    0.0000
@<TRIPOS>BOND
     1    1    2 1
     2    2    3 2
     3    3    4 1
     4    4    5 1
     5    5    1 1
     6    6    5 1
     7    7    6 1
     8    8    7 1
     9    9    8 1
    10   10    5 1
    11   11    3 1
    12   12   11 ar
    13   13   12 ar
    14   14   13 ar
    15   15   14 ar
    16   16   11 ar
    17   17    8 1
    18   18    4 1
    19   19    4 1
    20   20    6 1
    21   21    6 1
    22   22    7 1
    23   23    7 1
    24   24    9 1
    25   25    9 1
    26   26   10 1
    27   27   10 1
    28   28   12 1
    29   29   13 1
    30   30   14 1
    31   31   15 1
    32   32   16 1
    33   33   17 1
    34   34   17 1
    35   35   17 1
    36    9   10 1
    37   15   16 ar
@<TRIPOS>SUBSTRUCTURE
     1 RES1 1

@<TRIPOS>CRYSIN
  10.8910   11.2980   10.3930  90.0000  97.5300  90.0000  14 1

