# MOL2 file generated by ConQuest
# Please check atom types

@<TRIPOS>MOLECULE
TEFVEG
    35    37     1
SMALL
NO_CHARGES
****
Generated from CSD

@<TRIPOS>ATOM
      1 O1        -0.0458    3.1101   12.5618 O.3       1 RES1    0.0000
      2 O2         3.0560    5.6821   13.1566 O.3       1 RES1    0.0000
      3 O3         3.9643    5.2241   11.1984 O.2       1 RES1    0.0000
      4 O4         4.4708    4.2318    6.0822 O.2       1 RES1    0.0000
      5 O5         3.5053    5.8787    5.0847 O.2       1 RES1    0.0000
      6 N1        -1.1946    1.5078   11.5654 N.3       1 RES1    0.0000
      7 N2         0.3549    0.9511    8.3685 N.1       1 RES1    0.0000
      8 N3         3.6154    5.0924    6.0222 N.pl3     1 RES1    0.0000
      9 C1        -0.1484    2.3359   11.4462 C.2       1 RES1    0.0000
     10 C2         0.7112    2.4448   10.4029 C.2       1 RES1    0.0000
     11 C3         1.8746    3.4197   10.3656 C.3       1 RES1    0.0000
     12 H1         2.7003    2.8998   10.2709 H         1 RES1    0.0000
     13 C4         1.9277    4.1355   11.6890 C.2       1 RES1    0.0000
     14 C5         1.0025    3.9897   12.6612 C.2       1 RES1    0.0000
     15 C6         1.0442    4.7110   13.8839 C.2       1 RES1    0.0000
     16 H2         0.3722    4.6099   14.5193 H         1 RES1    0.0000
     17 C7         2.0650    5.5320   14.1002 C.2       1 RES1    0.0000
     18 C8         3.0337    5.0104   11.9421 C.2       1 RES1    0.0000
     19 C9         1.7907    4.3792    9.1887 C.ar      1 RES1    0.0000
     20 C10        0.7791    5.3139    9.1037 C.ar      1 RES1    0.0000
     21 H3         0.1423    5.3597    9.7801 H         1 RES1    0.0000
     22 C11        0.6952    6.1808    8.0353 C.ar      1 RES1    0.0000
     23 H4         0.0136    6.8125    8.0040 H         1 RES1    0.0000
     24 C12        1.6161    6.1140    7.0135 C.ar      1 RES1    0.0000
     25 H5         1.5599    6.6839    6.2807 H         1 RES1    0.0000
     26 C13        2.6168    5.1850    7.1077 C.ar      1 RES1    0.0000
     27 C14        2.7276    4.3190    8.1744 C.ar      1 RES1    0.0000
     28 H6         3.4231    3.7022    8.2113 H         1 RES1    0.0000
     29 C15        0.5076    1.6146    9.2864 C.1       1 RES1    0.0000
     30 C16        2.3253    6.3650   15.2840 C.3       1 RES1    0.0000
     31 H7         1.6350    6.2206   15.9354 H         1 RES1    0.0000
     32 H8         2.3351    7.2905   15.0283 H         1 RES1    0.0000
     33 H9         3.1761    6.1285   15.6609 H         1 RES1    0.0000
     34 H10       -1.5834    1.4791   12.3324 H         1 RES1    0.0000
     35 H11       -1.3523    0.8857   10.9799 H         1 RES1    0.0000
@<TRIPOS>BOND
     1    1    9 1
     2    2   17 1
     3    3   18 2
     4    4    8 2
     5    5    8 2
     6    6    9 1
     7    7   29 3
     8    8   26 1
     9    9   10 2
    10   10   11 1
    11   11   12 1
    12   13   11 1
    13   14    1 1
    14   15   14 1
    15   16   15 1
    16   17   15 2
    17   18    2 1
    18   19   11 1
    19   20   19 ar
    20   21   20 1
    21   22   20 ar
    22   23   22 1
    23   24   22 ar
    24   25   24 1
    25   26   24 ar
    26   27   19 ar
    27   28   27 1
    28   29   10 1
    29   30   17 1
    30   31   30 1
    31   32   30 1
    32   33   30 1
    33   34    6 1
    34   35    6 1
    35   13   14 2
    36   13   18 1
    37   26   27 ar
@<TRIPOS>SUBSTRUCTURE
     1 RES1 1

@<TRIPOS>CRYSIN
   5.7090   14.6160   18.2280  90.0000  94.2190  90.0000  14 1

