# MOL2 file generated by ConQuest
# Please check atom types

@<TRIPOS>MOLECULE
TEGDIT
    48    50     1
SMALL
NO_CHARGES
****
Generated from CSD

@<TRIPOS>ATOM
      1 O1         9.0375    2.2285    8.8473 O.3       1 RES1    0.0000
      2 N1        12.1538    1.3207    9.7152 N.2       1 RES1    0.0000
      3 C1         9.8250    1.1582    9.4625 C.3       1 RES1    0.0000
      4 O2         7.6418    1.9647    9.2706 O.3       1 RES1    0.0000
      5 C2        11.0391    1.8255   10.0780 C.2       1 RES1    0.0000
      6 O3         8.9866    0.6825   10.5028 O.3       1 RES1    0.0000
      7 C3        10.8464    2.9732   11.0240 C.3       1 RES1    0.0000
      8 H1         9.9347    3.3424   10.8992 H         1 RES1    0.0000
      9 H2        11.4952    3.6865   10.7974 H         1 RES1    0.0000
     10 O4        13.2310    1.9839   10.3322 O.3       1 RES1    0.0000
     11 C4        11.0265    2.5872   12.4965 C.3       1 RES1    0.0000
     12 H3        11.9383    2.2238   12.6295 H         1 RES1    0.0000
     13 H4        10.3783    1.8762   12.7295 H         1 RES1    0.0000
     14 C5        10.8189    3.7867   13.4314 C.3       1 RES1    0.0000
     15 H5        11.1140    3.5357   14.3422 H         1 RES1    0.0000
     16 H6        11.3911    4.5332   13.1261 H         1 RES1    0.0000
     17 C6         9.3712    4.2723   13.4962 C.3       1 RES1    0.0000
     18 H7         9.0553    4.4540   12.5751 H         1 RES1    0.0000
     19 H8         9.3449    5.1266   13.9947 H         1 RES1    0.0000
     20 C7         8.4035    3.2865   14.1600 C.3       1 RES1    0.0000
     21 H9         8.7295    2.3641   14.0035 H         1 RES1    0.0000
     22 H10        8.4071    3.4443   15.1371 H         1 RES1    0.0000
     23 C8         6.9681    3.3989   13.6448 C.3       1 RES1    0.0000
     24 H11        6.7149    4.3550   13.6122 H         1 RES1    0.0000
     25 H12        6.3628    2.9464   14.2843 H         1 RES1    0.0000
     26 C9         6.7672    2.7840   12.2504 C.3       1 RES1    0.0000
     27 H13        5.8885    3.0711   11.8942 H         1 RES1    0.0000
     28 H14        7.4688    3.1275   11.6415 H         1 RES1    0.0000
     29 C10        6.8240    1.2653   12.2657 C.3       1 RES1    0.0000
     30 H15        6.1484    0.9352   12.9103 H         1 RES1    0.0000
     31 H16        7.7125    0.9905   12.6014 H         1 RES1    0.0000
     32 C11        6.5832    0.5753   10.9222 C.3       1 RES1    0.0000
     33 H17        6.3996   -0.3814   11.0975 H         1 RES1    0.0000
     34 H18        5.7650    0.9625   10.5219 H         1 RES1    0.0000
     35 C12        7.6996    0.6603    9.8898 C.3       1 RES1    0.0000
     36 C13        7.6367   -0.4443    8.8477 C.3       1 RES1    0.0000
     37 H19        6.7512   -0.4245    8.4074 H         1 RES1    0.0000
     38 H20        7.7336   -1.3207    9.2971 H         1 RES1    0.0000
     39 C14        8.7285   -0.3028    7.7863 C.3       1 RES1    0.0000
     40 H21        8.4689    0.3954    7.1351 H         1 RES1    0.0000
     41 H22        8.8243   -1.1582    7.2966 H         1 RES1    0.0000
     42 C15       10.0670    0.0722    8.4290 C.3       1 RES1    0.0000
     43 H23       10.4670   -0.7226    8.8619 H         1 RES1    0.0000
     44 H24       10.6930    0.3989    7.7370 H         1 RES1    0.0000
     45 C16       14.4492    1.3474    9.8920 C.3       1 RES1    0.0000
     46 H25       14.4370    0.4030   10.1534 H         1 RES1    0.0000
     47 H26       15.2191    1.7917   10.3061 H         1 RES1    0.0000
     48 H27       14.5204    1.4144    8.9163 H         1 RES1    0.0000
@<TRIPOS>BOND
     1    1    3 1
     2    2    5 2
     3    3    5 1
     4    4    1 1
     5    5    7 1
     6    6    3 1
     7    7    8 1
     8    9    7 1
     9   10    2 1
    10   11    7 1
    11   12   11 1
    12   13   11 1
    13   14   11 1
    14   15   14 1
    15   16   14 1
    16   17   14 1
    17   18   17 1
    18   19   17 1
    19   20   17 1
    20   21   20 1
    21   22   20 1
    22   23   20 1
    23   24   23 1
    24   25   23 1
    25   26   23 1
    26   27   26 1
    27   28   26 1
    28   29   26 1
    29   30   29 1
    30   31   29 1
    31   32   29 1
    32   33   32 1
    33   34   32 1
    34   35    4 1
    35   36   35 1
    36   37   36 1
    37   38   36 1
    38   39   36 1
    39   40   39 1
    40   41   39 1
    41   42    3 1
    42   43   42 1
    43   44   42 1
    44   45   10 1
    45   46   45 1
    46   47   45 1
    47   48   45 1
    48    6   35 1
    49   32   35 1
    50   39   42 1
@<TRIPOS>SUBSTRUCTURE
     1 RES1 1

@<TRIPOS>CRYSIN
  31.4640    5.8230   17.9490  90.0000 102.1300  90.0000  15 1

