# MOL2 file generated by ConQuest
# Please check atom types

@<TRIPOS>MOLECULE
TEGMAW
    45    47     1
SMALL
NO_CHARGES
****
Generated from CSD

@<TRIPOS>ATOM
      1 O1        17.2184    1.3029   -2.3678 O.2       1 RES1    0.0000
      2 C1        19.7255    1.2846   -1.3097 C.ar      1 RES1    0.0000
      3 H1        19.6336    1.0656   -2.2086 H         1 RES1    0.0000
      4 C2        20.9690    1.2741   -0.7011 C.ar      1 RES1    0.0000
      5 H2        21.7187    1.0431   -1.2017 H         1 RES1    0.0000
      6 C3        23.3012    0.4794    0.8337 C.3       1 RES1    0.0000
      7 H3        23.9296    0.8564    0.1975 H         1 RES1    0.0000
      8 H4        22.8075   -0.2260    0.3869 H         1 RES1    0.0000
      9 O2        16.3455    1.8700   -0.4880 O.2       1 RES1    0.0000
     10 C4        26.0752    4.0925   -0.0782 C.ar      1 RES1    0.0000
     11 H5        26.9981    4.0869    0.0261 H         1 RES1    0.0000
     12 N1        22.3731    1.5191    1.2765 N.pl3     1 RES1    0.0000
     13 C5        23.3515    4.0679   -0.4072 C.ar      1 RES1    0.0000
     14 H6        22.4323    4.0532   -0.5405 H         1 RES1    0.0000
     15 N2        17.3030    1.6033   -1.1770 N.pl3     1 RES1    0.0000
     16 C6        18.6387    1.6265   -0.5548 C.ar      1 RES1    0.0000
     17 C7        21.1238    1.6012    0.6434 C.ar      1 RES1    0.0000
     18 C8        24.0593   -0.1011    2.0018 C.ar      1 RES1    0.0000
     19 C9        25.4320   -0.0281    2.0810 C.ar      1 RES1    0.0000
     20 H7        25.9054    0.4057    1.4089 H         1 RES1    0.0000
     21 C10       26.1161   -0.5868    3.1410 C.ar      1 RES1    0.0000
     22 H8        27.0425   -0.5209    3.1799 H         1 RES1    0.0000
     23 C11       25.4428   -1.2341    4.1299 C.ar      1 RES1    0.0000
     24 H9        25.9072   -1.6082    4.8439 H         1 RES1    0.0000
     25 C12       18.7505    1.9501    0.7766 C.ar      1 RES1    0.0000
     26 H10       17.9906    2.1782    1.2607 H         1 RES1    0.0000
     27 C13       19.9845    1.9388    1.4053 C.ar      1 RES1    0.0000
     28 C14       20.0662    2.1817    2.8877 C.3       1 RES1    0.0000
     29 H11       20.4122    3.0620    3.0495 H         1 RES1    0.0000
     30 H12       20.6477    1.5303    3.2869 H         1 RES1    0.0000
     31 H13       19.1898    2.1066    3.2732 H         1 RES1    0.0000
     32 C15       23.0087    2.7608    1.7259 C.3       1 RES1    0.0000
     33 H14       23.5423    2.5678    2.5132 H         1 RES1    0.0000
     34 H15       22.3134    3.3856    1.9878 H         1 RES1    0.0000
     35 C16       23.8934    3.4277    0.6999 C.ar      1 RES1    0.0000
     36 C17       24.1578    4.7222   -1.3083 C.ar      1 RES1    0.0000
     37 H16       23.7757    5.1602   -2.0344 H         1 RES1    0.0000
     38 C18       25.5098    4.7348   -1.1482 C.ar      1 RES1    0.0000
     39 H17       26.0475    5.1777   -1.7642 H         1 RES1    0.0000
     40 C19       25.2629    3.4474    0.8579 C.ar      1 RES1    0.0000
     41 H18       25.6483    3.0276    1.5927 H         1 RES1    0.0000
     42 C20       23.3807   -0.7644    3.0131 C.ar      1 RES1    0.0000
     43 H19       22.4550   -0.8283    2.9823 H         1 RES1    0.0000
     44 C21       24.0737   -1.3309    4.0672 C.ar      1 RES1    0.0000
     45 H20       23.6091   -1.7809    4.7369 H         1 RES1    0.0000
@<TRIPOS>BOND
     1    1   15 2
     2    2    3 1
     3    4    2 ar
     4    5    4 1
     5    6    7 1
     6    8    6 1
     7    9   15 2
     8   10   11 1
     9   12    6 1
    10   13   14 1
    11   15   16 1
    12   16    2 ar
    13   17    4 ar
    14   18    6 1
    15   19   18 ar
    16   20   19 1
    17   21   19 ar
    18   22   21 1
    19   23   21 ar
    20   24   23 1
    21   25   16 ar
    22   26   25 1
    23   27   17 ar
    24   28   27 1
    25   29   28 1
    26   30   28 1
    27   31   28 1
    28   32   12 1
    29   33   32 1
    30   34   32 1
    31   35   13 ar
    32   36   13 ar
    33   37   36 1
    34   38   10 ar
    35   39   38 1
    36   40   10 ar
    37   41   40 1
    38   42   18 ar
    39   43   42 1
    40   44   23 ar
    41   45   44 1
    42   12   17 1
    43   25   27 ar
    44   32   35 1
    45   35   40 ar
    46   36   38 ar
    47   42   44 ar
@<TRIPOS>SUBSTRUCTURE
     1 RES1 1

@<TRIPOS>CRYSIN
  36.7720    7.0197   13.8494  90.0000  97.8940  90.0000  15 1

