# MOL2 file generated by ConQuest
# Please check atom types

@<TRIPOS>MOLECULE
TEGSEG
    19    19     1
SMALL
NO_CHARGES
****
Generated from CSD

@<TRIPOS>ATOM
      1 C1        12.3910    3.5186    2.8738 C.ar      1 RES1    0.0000
      2 O1        10.7142    0.7288    6.5965 O.2       1 RES1    0.0000
      3 O2        13.6185    0.5817    1.3638 O.2       1 RES1    0.0000
      4 O3        11.4104    5.6397    5.4853 O.2       1 RES1    0.0000
      5 N1         9.6942    3.5938    6.9242 N.1       1 RES1    0.0000
      6 O4        11.8956    6.0981    3.4187 O.2       1 RES1    0.0000
      7 O5        13.5161    2.5910    0.5609 O.2       1 RES1    0.0000
      8 O6        10.4395   -0.5111    4.8361 O.2       1 RES1    0.0000
      9 C2        11.9370    1.1968    3.3848 C.ar      1 RES1    0.0000
     10 N2        13.2670    1.7478    1.4130 N.pl3     1 RES1    0.0000
     11 N3        10.7603    0.5283    5.3861 N.pl3     1 RES1    0.0000
     12 N4        11.6690    5.3241    4.3314 N.pl3     1 RES1    0.0000
     13 C3        11.1447    2.9470    4.8845 C.ar      1 RES1    0.0000
     14 C4        11.7244    3.8812    4.0190 C.ar      1 RES1    0.0000
     15 C5        11.2854    1.6013    4.5269 C.ar      1 RES1    0.0000
     16 C6        12.4913    2.1738    2.5922 C.ar      1 RES1    0.0000
     17 C7        10.3630    3.3288    6.0386 C.1       1 RES1    0.0000
     18 H1        12.0183    0.2789    3.1742 H         1 RES1    0.0000
     19 H2        12.8071    4.1557    2.3194 H         1 RES1    0.0000
@<TRIPOS>BOND
     1    1   14 ar
     2    2   11 2
     3    3   10 2
     4    4   12 2
     5    5   17 3
     6    6   12 2
     7    7   10 2
     8    8   11 2
     9    9   15 ar
    10   10   16 1
    11   11   15 1
    12   12   14 1
    13   13   14 ar
    14   15   13 ar
    15   16    1 ar
    16   17   13 1
    17   18    9 1
    18   19    1 1
    19    9   16 ar
@<TRIPOS>SUBSTRUCTURE
     1 RES1 1

@<TRIPOS>CRYSIN
  27.2956   27.2956    6.2856  90.0000  90.0000 120.0000 233 1

