# MOL2 file generated by ConQuest
# Please check atom types

@<TRIPOS>MOLECULE
TEGWEK
   157    94     3
SMALL
NO_CHARGES
****
Generated from CSD

@<TRIPOS>ATOM
      1 N1        -0.4449    7.0811    8.7564 N.pl3     1 RES1    0.0000
      2 O1        -0.2781    7.2487    9.9780 O.2       1 RES1    0.0000
      3 O2        -1.4773    6.7657    8.2464 O.2       1 RES1    0.0000
      4 C1         2.4631   12.1907    6.6495 C.ar      1 RES1    0.0000
      5 C2         2.1179   12.0067    8.0110 C.ar      1 RES1    0.0000
      6 H1         2.2848   11.1688    8.4277 H         1 RES1    0.0000
      7 C3         1.5490   13.0319    8.7481 C.ar      1 RES1    0.0000
      8 H2         1.3059   12.8873    9.6591 H         1 RES1    0.0000
      9 C4         1.3270   14.2378    8.1765 C.ar      1 RES1    0.0000
     10 H3         0.9891   14.9508    8.7007 H         1 RES1    0.0000
     11 C5         1.5887   14.4481    6.8526 C.ar      1 RES1    0.0000
     12 H4         1.3836   15.2827    6.4434 H         1 RES1    0.0000
     13 C6         2.1650   13.4295    6.1154 C.ar      1 RES1    0.0000
     14 H5         2.3634   13.5872    5.2022 H         1 RES1    0.0000
     15 C7         3.0693   11.0965    5.8521 C.2       1 RES1    0.0000
     16 C8         4.2139   10.5379    6.2057 C.2       1 RES1    0.0000
     17 C9         5.1089   11.0505    7.2964 C.2       1 RES1    0.0000
     18 H6         4.8251   11.8522    7.7161 H         1 RES1    0.0000
     19 C10        6.1885   10.5609    7.7327 C.2       1 RES1    0.0000
     20 H7         6.5320    9.7591    7.3566 H         1 RES1    0.0000
     21 H8         6.6580   10.9946    8.4345 H         1 RES1    0.0000
     22 C11        2.2598   10.6167    4.6862 C.3       1 RES1    0.0000
     23 H9         2.6435    9.7854    4.3395 H         1 RES1    0.0000
     24 H10        2.2619   11.2969    3.9807 H         1 RES1    0.0000
     25 H11        1.3358   10.4524    4.9751 H         1 RES1    0.0000
     26 C12        4.7134    9.3385    5.4016 C.ar      1 RES1    0.0000
     27 C13        5.8620    9.5061    4.5930 C.ar      1 RES1    0.0000
     28 H12        6.3188   10.3407    4.6133 H         1 RES1    0.0000
     29 C14        6.3333    8.5203    3.7889 C.ar      1 RES1    0.0000
     30 H13        7.0790    8.6781    3.2217 H         1 RES1    0.0000
     31 C15        5.7135    7.2651    3.8001 C.ar      1 RES1    0.0000
     32 H14        6.0439    6.5619    3.2525 H         1 RES1    0.0000
     33 C16        4.6081    7.0548    4.6200 C.ar      1 RES1    0.0000
     34 H15        4.1906    6.2038    4.6419 H         1 RES1    0.0000
     35 C17        4.1089    8.0932    5.4114 C.ar      1 RES1    0.0000
     36 C18        2.9031    7.8139    6.2914 C.ar      1 RES1    0.0000
     37 C19        1.7331    7.3506    5.7438 C.ar      1 RES1    0.0000
     38 H16        1.6770    7.1928    4.8088 H         1 RES1    0.0000
     39 C20        0.6381    7.1173    6.5517 C.ar      1 RES1    0.0000
     40 H17       -0.1699    6.7920    6.1726 H         1 RES1    0.0000
     41 C21        0.7120    7.3538    7.8906 C.ar      1 RES1    0.0000
     42 C22        1.8969    7.7810    8.4946 C.ar      1 RES1    0.0000
     43 H18        1.9634    7.8927    9.4357 H         1 RES1    0.0000
     44 C23        2.9634    8.0373    7.6642 C.ar      1 RES1    0.0000
     45 H19        3.7671    8.3758    8.0396 H         1 RES1    0.0000
     46 C24        2.7094   12.1283    7.0632 Du        3 SUP3    0.0000
     47 C25        2.5906   11.9147    8.4698 Du        3 SUP3    0.0000
     48 H20        2.9803   11.1458    8.8677 Du        3 SUP3    0.0000
     49 C26        1.9065   12.8380    9.2521 Du        3 SUP3    0.0000
     50 H21        1.5638   12.5916   10.1006 Du        3 SUP3    0.0000
     51 C27        1.7271   14.0965    8.7782 Du        3 SUP3    0.0000
     52 H22        1.3462   14.7570    9.3409 Du        3 SUP3    0.0000
     53 C28        2.0889   14.4317    7.4995 Du        3 SUP3    0.0000
     54 H23        1.9958   15.3254    7.1926 Du        3 SUP3    0.0000
     55 C29        2.5782   13.4459    6.6645 Du        3 SUP3    0.0000
     56 H24        2.8407   13.6825    5.7829 Du        3 SUP3    0.0000
     57 C30        3.1375   11.0472    6.1455 Du        3 SUP3    0.0000
     58 C31        4.3010   10.4492    6.3035 Du        3 SUP3    0.0000
     59 C32        5.2312   10.6792    7.4619 Du        3 SUP3    0.0000
     60 H25        4.9263   11.3134    8.1073 Du        3 SUP3    0.0000
     61 C33        6.3519   10.1534    7.7026 Du        3 SUP3    0.0000
     62 H26        6.7105    9.5127    7.1008 Du        3 SUP3    0.0000
     63 H27        6.8328   10.3966    8.4841 Du        3 SUP3    0.0000
     64 C34        2.3189   10.9092    4.8969 Du        3 SUP3    0.0000
     65 H28        2.8607   10.4754    4.2003 Du        3 SUP3    0.0000
     66 H29        2.0480   11.7997    4.5824 Du        3 SUP3    0.0000
     67 H30        1.5258   10.3703    5.0774 Du        3 SUP3    0.0000
     68 C35        6.0701   -1.0022    4.7088 C.ar      2 RES2    0.0000
     69 C36        6.5934   -0.7229    3.4677 C.ar      2 RES2    0.0000
     70 H31        6.5758    0.1643    3.1284 H         2 RES2    0.0000
     71 C37        7.1568   -1.7875    2.6929 C.ar      2 RES2    0.0000
     72 H32        7.5225   -1.6002    1.8414 H         2 RES2    0.0000
     73 C38        7.1691   -3.0395    3.1517 C.ar      2 RES2    0.0000
     74 H33        7.5835   -3.7361    2.6485 H         2 RES2    0.0000
     75 C39        6.5624   -3.3056    4.4004 C.ar      2 RES2    0.0000
     76 H34        6.4933   -4.1961    4.7269 H         2 RES2    0.0000
     77 C40        6.0844   -2.2804    5.1300 C.ar      2 RES2    0.0000
     78 H35        5.7293   -2.4710    5.9898 H         2 RES2    0.0000
     79 C41        5.5520    0.1084    5.5791 C.2       2 RES2    0.0000
     80 C42        4.3820    0.7558    5.2857 C.2       2 RES2    0.0000
     81 C43        3.5347    0.2563    4.1559 C.2       2 RES2    0.0000
     82 H36        3.8150   -0.5159    3.6813 H         2 RES2    0.0000
     83 C44        2.3865    0.8675    3.7836 C.2       2 RES2    0.0000
     84 H37        2.0885    1.6430    4.2485 H         2 RES2    0.0000
     85 H38        1.8754    0.5192    3.0637 H         2 RES2    0.0000
     86 C45        6.4033    0.4666    6.7473 C.3       2 RES2    0.0000
     87 H39        5.8619    0.9266    7.4212 H         2 RES2    0.0000
     88 H40        7.1307    1.0581    6.4547 H         2 RES2    0.0000
     89 H41        6.7847   -0.3483    7.1369 H         2 RES2    0.0000
     90 C46        3.8768    1.8631    6.1282 C.ar      2 RES2    0.0000
     91 C47        2.8144    1.6692    6.9722 C.ar      2 RES2    0.0000
     92 H42        2.3943    0.8182    7.0136 H         2 RES2    0.0000
     93 C48        2.3406    2.7207    7.7778 C.ar      2 RES2    0.0000
     94 H43        1.5841    2.5794    8.3344 H         2 RES2    0.0000
     95 C49        2.9330    3.9135    7.7778 C.ar      2 RES2    0.0000
     96 H44        2.6121    4.6035    8.3412 H         2 RES2    0.0000
     97 C50        4.0274    4.1402    6.9278 C.ar      2 RES2    0.0000
     98 H45        4.4555    4.9913    6.9225 H         2 RES2    0.0000
     99 C51        4.4962    3.1216    6.0974 C.ar      2 RES2    0.0000
    100 N2         8.9984    4.1369    2.7809 N.pl3     2 RES2    0.0000
    101 O3         8.9321    3.9825    1.5608 O.2       2 RES2    0.0000
    102 O4        10.0769    4.5050    3.3082 O.2       2 RES2    0.0000
    103 C52        5.6585    3.3910    5.2218 C.ar      2 RES2    0.0000
    104 C53        6.8558    3.8675    5.7641 C.ar      2 RES2    0.0000
    105 H46        6.8998    4.0417    6.6969 H         2 RES2    0.0000
    106 C54        7.9829    4.0975    4.9826 C.ar      2 RES2    0.0000
    107 H47        8.8078    4.3670    5.3685 H         2 RES2    0.0000
    108 C55        7.8491    3.9135    3.6068 C.ar      2 RES2    0.0000
    109 C56        6.7020    3.4666    3.0299 C.ar      2 RES2    0.0000
    110 H48        6.6526    3.3746    2.0859 H         2 RES2    0.0000
    111 C57        5.5942    3.1479    3.8204 C.ar      2 RES2    0.0000
    112 H49        4.8116    2.7799    3.4285 H         2 RES2    0.0000
    113 C58        5.2711   -0.9529    4.0694 Du        3 SUP3    0.0000
    114 C59        5.3612   -2.1786    4.6938 Du        3 SUP3    0.0000
    115 H50        4.9558   -2.3231    5.5407 Du        3 SUP3    0.0000
    116 C60        6.0673   -3.2333    4.0318 Du        3 SUP3    0.0000
    117 H51        6.1073   -4.0942    4.4275 Du        3 SUP3    0.0000
    118 C61        6.6777   -3.0230    2.8584 Du        3 SUP3    0.0000
    119 H52        7.0481   -3.7426    2.3679 Du        3 SUP3    0.0000
    120 C62        6.7526   -1.6890    2.3770 Du        3 SUP3    0.0000
    121 H53        7.2210   -1.4918    1.5751 Du        3 SUP3    0.0000
    122 C63        6.1484   -0.7098    3.0765 Du        3 SUP3    0.0000
    123 H54        6.3425    0.1939    2.8539 Du        3 SUP3    0.0000
    124 C64        4.5296    0.1709    4.7539 Du        3 SUP3    0.0000
    125 C65        5.0069    0.7722    5.8822 Du        3 SUP3    0.0000
    126 C66        6.1956    0.2004    6.5968 Du        3 SUP3    0.0000
    127 H55        6.6183   -0.5783    6.2576 Du        3 SUP3    0.0000
    128 C67        6.6655    0.7853    7.7251 Du        3 SUP3    0.0000
    129 H56        6.2424    1.5641    8.0689 Du        3 SUP3    0.0000
    130 H57        7.4177    0.4173    8.1735 Du        3 SUP3    0.0000
    131 C68        3.3688    0.7098    3.9867 Du        3 SUP3    0.0000
    132 H58        3.0376    1.5214    4.4207 Du        3 SUP3    0.0000
    133 H59        2.6546    0.0394    3.9566 Du        3 SUP3    0.0000
    134 H60        3.6519    0.9233    3.0697 Du        3 SUP3    0.0000
    135 C69        4.3082    1.9190    6.5141 Du        3 SUP3    0.0000
    136 C70        3.3621    1.7054    7.4844 Du        3 SUP3    0.0000
    137 H61        3.1278    0.8182    7.7289 Du        3 SUP3    0.0000
    138 C71        2.7321    2.7930    8.1088 Du        3 SUP3    0.0000
    139 H62        2.0004    2.6353    8.7000 Du        3 SUP3    0.0000
    140 C72        3.1259    4.0417    7.8981 Du        3 SUP3    0.0000
    141 H63        2.6623    4.7711    8.2885 Du        3 SUP3    0.0000
    142 C73        4.2573    4.2750    7.0782 Du        3 SUP3    0.0000
    143 H64        4.6073    5.1523    6.9993 Du        3 SUP3    0.0000
    144 C74        4.8429    3.2136    6.3937 Du        3 SUP3    0.0000
    145 N3         9.3445    4.1468    3.0615 Du        3 SUP3    0.0000
    146 O5         9.1940    4.2848    1.8429 Du        3 SUP3    0.0000
    147 O6        10.4630    4.3834    3.5805 Du        3 SUP3    0.0000
    148 C75        6.0152    3.4798    5.5287 Du        3 SUP3    0.0000
    149 C76        7.2394    3.8774    6.0703 Du        3 SUP3    0.0000
    150 H65        7.3022    4.0318    7.0083 Du        3 SUP3    0.0000
    151 C77        8.3763    4.0482    5.2880 Du        3 SUP3    0.0000
    152 H66        9.2257    4.2355    5.6679 Du        3 SUP3    0.0000
    153 C78        8.2075    3.9365    3.9039 Du        3 SUP3    0.0000
    154 C79        7.0742    3.4141    3.3548 Du        3 SUP3    0.0000
    155 H67        7.0847    3.0559    2.4748 Du        3 SUP3    0.0000
    156 C80        5.8928    3.4173    4.1070 Du        3 SUP3    0.0000
    157 H68        5.0420    3.3779    3.6881 Du        3 SUP3    0.0000
@<TRIPOS>BOND
     1    1    2 2
     2    3    1 2
     3    4    5 ar
     4    5    6 1
     5    7    5 ar
     6    8    7 1
     7    9    7 ar
     8   10    9 1
     9   11    9 ar
    10   12   11 1
    11   13    4 ar
    12   14   13 1
    13   15    4 1
    14   16   15 2
    15   17   16 1
    16   18   17 1
    17   19   17 2
    18   20   19 1
    19   21   19 1
    20   22   15 1
    21   23   22 1
    22   24   22 1
    23   25   22 1
    24   26   16 1
    25   27   26 ar
    26   28   27 1
    27   29   27 ar
    28   30   29 1
    29   31   29 ar
    30   32   31 1
    31   33   31 ar
    32   34   33 1
    33   35   26 ar
    34   36   35 1
    35   37   36 ar
    36   38   37 1
    37   39   37 ar
    38   40   39 1
    39   41    1 1
    40   42   41 ar
    41   43   42 1
    42   44   36 ar
    43   45   44 1
    44   68   69 ar
    45   69   70 1
    46   71   69 ar
    47   72   71 1
    48   73   71 ar
    49   74   73 1
    50   75   73 ar
    51   76   75 1
    52   77   68 ar
    53   78   77 1
    54   79   68 1
    55   80   79 2
    56   81   80 1
    57   82   81 1
    58   83   81 2
    59   84   83 1
    60   85   83 1
    61   86   79 1
    62   87   86 1
    63   88   86 1
    64   89   86 1
    65   90   80 1
    66   91   90 ar
    67   92   91 1
    68   93   91 ar
    69   94   93 1
    70   95   93 ar
    71   96   95 1
    72   97   95 ar
    73   98   97 1
    74   99   90 ar
    75  100  101 2
    76  102  100 2
    77  103   99 1
    78  104  103 ar
    79  105  104 1
    80  106  104 ar
    81  107  106 1
    82  108  100 1
    83  109  108 ar
    84  110  109 1
    85  111  103 ar
    86  112  111 1
    87   11   13 ar
    88   33   35 ar
    89   39   41 ar
    90   42   44 ar
    91   75   77 ar
    92   97   99 ar
    93  106  108 ar
    94  109  111 ar
@<TRIPOS>SUBSTRUCTURE
     1 RES1 1
     2 RES2 68
     3 SUP3 46

@<TRIPOS>CRYSIN
   7.4240   32.8590    7.7501  90.0000 103.9340  90.0000   4 1

