# MOL2 file generated by ConQuest
# Please check atom types

@<TRIPOS>MOLECULE
TEGXIP
    38    39     1
SMALL
NO_CHARGES
****
Generated from CSD

@<TRIPOS>ATOM
      1 N1         1.1345    7.8439    2.6582 N.3       1 RES1    0.0000
      2 H1         1.2391    8.6138    2.2901 H         1 RES1    0.0000
      3 C1         2.1429    6.7902    2.7056 C.3       1 RES1    0.0000
      4 N2         1.6162    5.8948    3.7655 N.3       1 RES1    0.0000
      5 C2        -1.0006    6.6348    2.3534 C.3       1 RES1    0.0000
      6 H2        -1.1350    7.1750    1.5698 H         1 RES1    0.0000
      7 H3        -1.8482    6.4529    2.7670 H         1 RES1    0.0000
      8 H4        -0.5829    5.8070    2.1038 H         1 RES1    0.0000
      9 C3        -0.0997    7.3842    3.3427 C.3       1 RES1    0.0000
     10 C4         2.2563    6.0270    1.3795 C.3       1 RES1    0.0000
     11 H5         2.8004    5.2342    1.5102 H         1 RES1    0.0000
     12 H6         1.3739    5.7418    1.0954 H         1 RES1    0.0000
     13 C5         2.8796    6.8950    0.2956 C.3       1 RES1    0.0000
     14 H7         2.9488    6.3832   -0.5266 H         1 RES1    0.0000
     15 H8         2.3062    7.6583    0.1267 H         1 RES1    0.0000
     16 C6         4.2593    7.3815    0.7042 C.3       1 RES1    0.0000
     17 H9         4.8559    6.6232    0.8023 H         1 RES1    0.0000
     18 H10        4.6178    7.9591    0.0124 H         1 RES1    0.0000
     19 C7        -0.8562    8.6073    3.8489 C.3       1 RES1    0.0000
     20 H11       -0.2706    9.1457    4.3864 H         1 RES1    0.0000
     21 H12       -1.6056    8.3240    4.3765 H         1 RES1    0.0000
     22 H13       -1.1685    9.1225    3.1023 H         1 RES1    0.0000
     23 C8         4.1843    8.1377    2.0072 C.3       1 RES1    0.0000
     24 H14        3.6774    8.9544    1.8728 H         1 RES1    0.0000
     25 H15        5.0803    8.3849    2.2851 H         1 RES1    0.0000
     26 C9         3.5255    7.3114    3.1083 C.3       1 RES1    0.0000
     27 H16        3.4385    7.8573    3.9046 H         1 RES1    0.0000
     28 H17        4.0974    6.5579    3.3234 H         1 RES1    0.0000
     29 C10        0.4311    6.4487    4.4614 C.3       1 RES1    0.0000
     30 C11       -0.4707    5.2995    4.8812 C.3       1 RES1    0.0000
     31 H18       -0.6897    4.7675    4.1132 H         1 RES1    0.0000
     32 H19       -1.2771    5.6500    5.2682 H         1 RES1    0.0000
     33 H20       -0.0163    4.7553    5.5290 H         1 RES1    0.0000
     34 C12        0.9187    7.2237    5.6971 C.3       1 RES1    0.0000
     35 H21        1.4699    6.6519    6.2369 H         1 RES1    0.0000
     36 H22        0.1620    7.5156    6.2120 H         1 RES1    0.0000
     37 H23        1.4282    7.9867    5.4172 H         1 RES1    0.0000
     38 O1         2.2589    4.8843    4.1877 O.2       1 RES1    0.0000
@<TRIPOS>BOND
     1    1    2 1
     2    3    1 1
     3    4    3 1
     4    5    6 1
     5    7    5 1
     6    8    5 1
     7    9    1 1
     8   10    3 1
     9   11   10 1
    10   12   10 1
    11   13   10 1
    12   14   13 1
    13   15   13 1
    14   16   13 1
    15   17   16 1
    16   18   16 1
    17   19    9 1
    18   20   19 1
    19   21   19 1
    20   22   19 1
    21   23   16 1
    22   24   23 1
    23   25   23 1
    24   26    3 1
    25   27   26 1
    26   28   26 1
    27   29    4 1
    28   30   29 1
    29   31   30 1
    30   32   30 1
    31   33   30 1
    32   34   29 1
    33   35   34 1
    34   36   34 1
    35   37   34 1
    36   38    4 1
    37    5    9 1
    38    9   29 1
    39   23   26 1
@<TRIPOS>SUBSTRUCTURE
     1 RES1 1

@<TRIPOS>CRYSIN
   9.0510   11.0589   24.8382  90.0000  90.0000  90.0000  61 1

