# MOL2 file generated by ConQuest
# Please check atom types

@<TRIPOS>MOLECULE
TEGXOV
    39    40     1
SMALL
NO_CHARGES
****
Generated from CSD

@<TRIPOS>ATOM
      1 O1         2.2397   11.6431    2.0885 O.2       1 RES1    0.0000
      2 O2        -0.0376    8.9475    5.0993 O.3       1 RES1    0.0000
      3 H1         0.1497    8.9553    5.9835 H         1 RES1    0.0000
      4 N1         1.3657   11.2483    2.9299 N.3       1 RES1    0.0000
      5 N2         0.4444   10.2518    4.7379 N.3       1 RES1    0.0000
      6 C1         3.7063    8.0974    4.5059 C.3       1 RES1    0.0000
      7 H2         4.3892    8.3421    3.8630 H         1 RES1    0.0000
      8 H3         4.0364    7.3471    5.0255 H         1 RES1    0.0000
      9 C2         2.4496    7.6913    3.7785 C.3       1 RES1    0.0000
     10 H4         1.8143    7.3337    4.4180 H         1 RES1    0.0000
     11 H5         2.6625    6.9867    3.1459 H         1 RES1    0.0000
     12 C3         1.8088    8.8437    3.0374 C.3       1 RES1    0.0000
     13 H6         0.9366    8.5586    2.7234 H         1 RES1    0.0000
     14 H7         2.3486    9.0427    2.2564 H         1 RES1    0.0000
     15 C4         1.6345   10.1399    3.8503 C.3       1 RES1    0.0000
     16 C5         0.1951   12.0691    3.3035 C.3       1 RES1    0.0000
     17 C6        -0.4222   12.6652    2.0440 C.3       1 RES1    0.0000
     18 H8         0.1573   13.3482    1.6957 H         1 RES1    0.0000
     19 H9        -1.2766   13.0484    2.2564 H         1 RES1    0.0000
     20 H10       -0.5343   11.9754    1.3851 H         1 RES1    0.0000
     21 C7         0.6674   13.1970    4.2341 C.3       1 RES1    0.0000
     22 H11        0.9296   12.8252    5.0803 H         1 RES1    0.0000
     23 H12       -0.0487   13.8216    4.3689 H         1 RES1    0.0000
     24 H13        1.4158   13.6481    3.8368 H         1 RES1    0.0000
     25 C8        -0.6412   10.9850    4.0119 C.3       1 RES1    0.0000
     26 C9        -1.6166   11.5370    5.0483 C.3       1 RES1    0.0000
     27 H14       -2.0887   10.8096    5.4628 H         1 RES1    0.0000
     28 H15       -2.2444   12.1219    4.6178 H         1 RES1    0.0000
     29 H16       -1.1304   12.0251    5.7174 H         1 RES1    0.0000
     30 C10       -1.4098   10.1077    3.0237 C.3       1 RES1    0.0000
     31 H17       -0.8342    9.8683    2.2929 H         1 RES1    0.0000
     32 H18       -2.1675   10.5917    2.6880 H         1 RES1    0.0000
     33 H19       -1.7099    9.3116    3.4691 H         1 RES1    0.0000
     34 C11        3.4329    9.2686    5.4251 C.3       1 RES1    0.0000
     35 H20        2.7746    9.0145    6.0908 H         1 RES1    0.0000
     36 H21        4.2483    9.5174    5.8864 H         1 RES1    0.0000
     37 C12        2.9203   10.4465    4.6327 C.3       1 RES1    0.0000
     38 H22        3.6075   10.7289    4.0092 H         1 RES1    0.0000
     39 H23        2.7498   11.1834    5.2401 H         1 RES1    0.0000
@<TRIPOS>BOND
     1    1    4 1
     2    2    3 1
     3    4   15 1
     4    5    2 1
     5    6    7 1
     6    8    6 1
     7    9    6 1
     8   10    9 1
     9   11    9 1
    10   12    9 1
    11   13   12 1
    12   14   12 1
    13   15    5 1
    14   16    4 1
    15   17   16 1
    16   18   17 1
    17   19   17 1
    18   20   17 1
    19   21   16 1
    20   22   21 1
    21   23   21 1
    22   24   21 1
    23   25    5 1
    24   26   25 1
    25   27   26 1
    26   28   26 1
    27   29   26 1
    28   30   25 1
    29   31   30 1
    30   32   30 1
    31   33   30 1
    32   34    6 1
    33   35   34 1
    34   36   34 1
    35   37   15 1
    36   38   37 1
    37   39   37 1
    38   12   15 1
    39   16   25 1
    40   34   37 1
@<TRIPOS>SUBSTRUCTURE
     1 RES1 1

@<TRIPOS>CRYSIN
   8.6129   13.4464   11.9759  90.0000 107.5430  90.0000  14 1

