# MOL2 file generated by ConQuest
# Please check atom types

@<TRIPOS>MOLECULE
TEHCOZ
    59    63     1
SMALL
NO_CHARGES
****
Generated from CSD

@<TRIPOS>ATOM
      1 O1         3.4234   -0.0238    1.4617 O.3       1 RES1    0.0000
      2 O2         2.1755   -0.0599    6.1862 O.3       1 RES1    0.0000
      3 O3         3.2433    6.1720    1.0193 O.3       1 RES1    0.0000
      4 H1         3.8222    6.3953    0.4831 H         1 RES1    0.0000
      5 O4        -1.3969    4.3919   -3.7404 O.3       1 RES1    0.0000
      6 N1         2.9908    4.7488    0.8946 N.3       1 RES1    0.0000
      7 C1         3.7456   -1.4119    1.3788 C.3       1 RES1    0.0000
      8 H2         4.4678   -1.5359    0.7598 H         1 RES1    0.0000
      9 H3         2.9772   -1.9016    1.0766 H         1 RES1    0.0000
     10 H4         4.0075   -1.7316    2.2448 H         1 RES1    0.0000
     11 C2         4.3934    0.8520    1.8423 C.ar      1 RES1    0.0000
     12 C3         5.7502    0.5522    1.9236 C.ar      1 RES1    0.0000
     13 H5         6.0498   -0.2982    1.6992 H         1 RES1    0.0000
     14 C4         6.6521    1.5115    2.3362 C.ar      1 RES1    0.0000
     15 H6         7.5560    1.2978    2.3742 H         1 RES1    0.0000
     16 C5         6.2449    2.7749    2.6906 C.ar      1 RES1    0.0000
     17 H7         6.8602    3.4097    2.9789 H         1 RES1    0.0000
     18 C6         4.8901    3.0802    2.6081 C.ar      1 RES1    0.0000
     19 C7         3.9743    2.1416    2.1706 C.ar      1 RES1    0.0000
     20 C8         2.5527    2.7131    2.1929 C.3       1 RES1    0.0000
     21 C9         2.8482    4.2446    2.2690 C.3       1 RES1    0.0000
     22 H8         2.1428    4.7222    2.7546 H         1 RES1    0.0000
     23 C10        4.1850    4.3449    2.9891 C.3       1 RES1    0.0000
     24 H9         4.6821    5.1238    2.6921 H         1 RES1    0.0000
     25 H10        4.0592    4.3968    3.9495 H         1 RES1    0.0000
     26 C11        1.7872    2.2643    3.4524 C.ar      1 RES1    0.0000
     27 C12        0.4990    2.7474    3.6792 C.ar      1 RES1    0.0000
     28 H11        0.1257    3.3654    3.0927 H         1 RES1    0.0000
     29 C13       -0.2216    2.3137    4.7661 C.ar      1 RES1    0.0000
     30 H12       -1.0736    2.6568    4.9124 H         1 RES1    0.0000
     31 C14        0.2915    1.3784    5.6466 C.ar      1 RES1    0.0000
     32 H13       -0.2073    1.0846    6.3739 H         1 RES1    0.0000
     33 C15        1.5578    0.8941    5.4193 C.ar      1 RES1    0.0000
     34 C16        2.3083    1.3457    4.3430 C.ar      1 RES1    0.0000
     35 H14        3.1726    1.0259    4.2195 H         1 RES1    0.0000
     36 C17        1.3987   -0.7005    7.1828 C.3       1 RES1    0.0000
     37 H15        1.1759   -0.0690    7.8700 H         1 RES1    0.0000
     38 H16        1.9010   -1.4245    7.5643 H         1 RES1    0.0000
     39 H17        0.5932   -1.0435    6.7901 H         1 RES1    0.0000
     40 C18        1.7347    2.3433    0.9872 C.2       1 RES1    0.0000
     41 H18        1.4891    1.4517    0.8925 H         1 RES1    0.0000
     42 C19        1.3350    3.1921    0.0465 C.2       1 RES1    0.0000
     43 C20        1.7382    4.6381    0.1571 C.3       1 RES1    0.0000
     44 H19        1.8469    5.0159   -0.7297 H         1 RES1    0.0000
     45 H20        1.0436    5.1365    0.6159 H         1 RES1    0.0000
     46 C21        0.5352    2.7808   -1.1310 C.ar      1 RES1    0.0000
     47 C22        0.4347    1.4357   -1.5145 C.ar      1 RES1    0.0000
     48 H21        0.8571    0.7802   -1.0086 H         1 RES1    0.0000
     49 C23       -0.2796    1.0769   -2.6284 C.ar      1 RES1    0.0000
     50 H22       -0.3351    0.1786   -2.8640 H         1 RES1    0.0000
     51 C24       -0.9234    2.0280   -3.4122 C.ar      1 RES1    0.0000
     52 H23       -1.4056    1.7755   -4.1660 H         1 RES1    0.0000
     53 C25       -0.8309    3.3527   -3.0489 C.ar      1 RES1    0.0000
     54 C26       -0.1110    3.7206   -1.9251 C.ar      1 RES1    0.0000
     55 H24       -0.0581    4.6201   -1.6958 H         1 RES1    0.0000
     56 C27       -2.1860    4.0940   -4.8789 C.3       1 RES1    0.0000
     57 H25       -1.6433    3.6533   -5.5371 H         1 RES1    0.0000
     58 H26       -2.5370    4.9074   -5.2471 H         1 RES1    0.0000
     59 H27       -2.9107    3.5182   -4.6234 H         1 RES1    0.0000
@<TRIPOS>BOND
     1    1    7 1
     2    2   33 1
     3    3    4 1
     4    5   53 1
     5    6    3 1
     6    7    8 1
     7    9    7 1
     8   10    7 1
     9   11    1 1
    10   12   11 ar
    11   13   12 1
    12   14   12 ar
    13   15   14 1
    14   16   14 ar
    15   17   16 1
    16   18   16 ar
    17   19   11 ar
    18   20   19 1
    19   21    6 1
    20   22   21 1
    21   23   18 1
    22   24   23 1
    23   25   23 1
    24   26   20 1
    25   27   26 ar
    26   28   27 1
    27   29   27 ar
    28   30   29 1
    29   31   29 ar
    30   32   31 1
    31   33   31 ar
    32   34   26 ar
    33   35   34 1
    34   36    2 1
    35   37   36 1
    36   38   36 1
    37   39   36 1
    38   40   20 1
    39   41   40 1
    40   42   40 2
    41   43    6 1
    42   44   43 1
    43   45   43 1
    44   46   42 1
    45   47   46 ar
    46   48   47 1
    47   49   47 ar
    48   50   49 1
    49   51   49 ar
    50   52   51 1
    51   53   51 ar
    52   54   46 ar
    53   55   54 1
    54   56    5 1
    55   57   56 1
    56   58   56 1
    57   59   56 1
    58   18   19 ar
    59   20   21 1
    60   21   23 1
    61   33   34 ar
    62   42   43 1
    63   53   54 ar
@<TRIPOS>SUBSTRUCTURE
     1 RES1 1

@<TRIPOS>CRYSIN
   9.6131   10.5590   11.6830 104.2700  97.5700  97.4700   2 1

