# MOL2 file generated by ConQuest
# Please check atom types

@<TRIPOS>MOLECULE
TEHCAK
   118   126     2
SMALL
NO_CHARGES
****
Generated from CSD

@<TRIPOS>ATOM
      1 C1        -1.8505   -6.7588   -5.2885 C.ar      1 RES1    0.0000
      2 C2        -1.6123   -6.0418   -4.1544 C.ar      1 RES1    0.0000
      3 C3        -2.6222   -5.9159   -3.1901 C.ar      1 RES1    0.0000
      4 C4        -3.8183   -6.5220   -3.3847 C.ar      1 RES1    0.0000
      5 C5        -4.0519   -7.2667   -4.5539 C.ar      1 RES1    0.0000
      6 C6        -5.4061   -7.9482   -4.6959 C.3       1 RES1    0.0000
      7 C7        -5.7370   -8.3174   -6.1519 C.3       1 RES1    0.0000
      8 C8        -4.5536   -9.0226   -6.7416 C.3       1 RES1    0.0000
      9 C9        -3.3618   -8.0687   -6.8411 C.3       1 RES1    0.0000
     10 C10       -3.0849   -7.3684   -5.5197 C.ar      1 RES1    0.0000
     11 C11       -2.1392   -8.7771   -7.4748 C.3       1 RES1    0.0000
     12 C12       -2.4591   -9.4061   -8.8488 C.3       1 RES1    0.0000
     13 C13       -3.6899  -10.3362   -8.7435 C.3       1 RES1    0.0000
     14 C14       -4.8536   -9.5471   -8.1903 C.3       1 RES1    0.0000
     15 C15       -6.0772  -10.4260   -8.3777 C.3       1 RES1    0.0000
     16 C16       -5.6968  -11.1763   -9.6493 C.2       1 RES1    0.0000
     17 C17       -4.3092  -10.8552  -10.0722 C.3       1 RES1    0.0000
     18 C18       -3.3167  -11.5906   -7.9284 C.3       1 RES1    0.0000
     19 C19       -4.2792   -9.7846  -11.2034 C.3       1 RES1    0.0000
     20 C20       -5.1735  -10.0323  -12.3931 C.ar      1 RES1    0.0000
     21 C21       -4.7170  -10.6299  -13.5038 C.ar      1 RES1    0.0000
     22 C22       -5.5055  -10.8615  -14.6525 C.ar      1 RES1    0.0000
     23 C23       -6.7966  -10.5204  -14.6408 C.ar      1 RES1    0.0000
     24 C24       -7.3589   -9.8503  -13.4789 C.ar      1 RES1    0.0000
     25 C25       -6.5320   -9.6160  -12.3667 C.ar      1 RES1    0.0000
     26 C26       -3.4212   -4.7265   -1.2409 C.3       1 RES1    0.0000
     27 N1        -6.4011  -12.0275  -10.2654 N.2       1 RES1    0.0000
     28 O1        -2.3291   -5.1178   -2.0999 O.3       1 RES1    0.0000
     29 O2        -3.6423  -12.0061  -10.6429 O.3       1 RES1    0.0000
     30 O3        -7.6909  -12.1896   -9.7591 O.3       1 RES1    0.0000
     31 C27       -5.5060  -11.6592   -2.6150 C.ar      2 RES2    0.0000
     32 C28       -5.3052  -12.3899   -3.7813 C.ar      2 RES2    0.0000
     33 C29       -6.3057  -12.3810   -4.7544 C.ar      2 RES2    0.0000
     34 C30       -7.3941  -11.5767   -4.5788 C.ar      2 RES2    0.0000
     35 C31       -7.6077  -10.8853   -3.3979 C.ar      2 RES2    0.0000
     36 C32       -8.8515   -9.9798   -3.2735 C.3       2 RES2    0.0000
     37 C33       -9.1573   -9.5867   -1.8511 C.3       2 RES2    0.0000
     38 C34       -7.9214   -9.0808   -1.1253 C.3       2 RES2    0.0000
     39 C35       -6.8747  -10.2558   -1.0229 C.3       2 RES2    0.0000
     40 C36       -6.6673  -10.9160   -2.3809 C.ar      2 RES2    0.0000
     41 C37       -5.6093   -9.7891   -0.3102 C.3       2 RES2    0.0000
     42 C38       -5.9308   -9.2646    1.1107 C.3       2 RES2    0.0000
     43 C39       -6.9484   -8.1310    1.0346 C.3       2 RES2    0.0000
     44 C40       -8.2000   -8.6383    0.3000 C.3       2 RES2    0.0000
     45 C41       -9.2206   -7.5266    0.5385 C.3       2 RES2    0.0000
     46 C42       -8.8656   -7.0063    1.8877 C.2       2 RES2    0.0000
     47 C43       -7.5762   -7.6603    2.4043 C.3       2 RES2    0.0000
     48 C44       -6.3237   -6.8783    0.3936 C.3       2 RES2    0.0000
     49 C45       -7.9079   -8.8429    3.3408 C.3       2 RES2    0.0000
     50 C46       -8.9184   -8.5412    4.4047 C.ar      2 RES2    0.0000
     51 C47       -8.5022   -7.9530    5.5871 C.ar      2 RES2    0.0000
     52 C48       -9.4213   -7.5485    6.4914 C.ar      2 RES2    0.0000
     53 C49      -10.7272   -7.7893    6.2792 C.ar      2 RES2    0.0000
     54 C50      -11.2019   -8.3801    5.1217 C.ar      2 RES2    0.0000
     55 C51      -10.2408   -8.7620    4.2349 C.ar      2 RES2    0.0000
     56 C52       -5.3050  -14.1171   -6.0275 C.3       2 RES2    0.0000
     57 N2        -9.4114   -6.0874    2.6077 N.2       2 RES2    0.0000
     58 O4        -6.2260  -13.0464   -5.9353 O.3       2 RES2    0.0000
     59 O5        -6.7327   -6.7933    3.1403 O.3       2 RES2    0.0000
     60 O6       -10.5499   -5.5622    1.9302 O.3       2 RES2    0.0000
     61 H1        -1.0706   -6.8510   -6.0290 H         1 RES1    0.0000
     62 H2        -0.6505   -5.5809   -3.9949 H         1 RES1    0.0000
     63 H3        -4.5918   -6.4307   -2.6340 H         1 RES1    0.0000
     64 H4        -5.3974   -8.8563   -4.1120 H         1 RES1    0.0000
     65 H5        -6.1726   -7.2858   -4.3315 H         1 RES1    0.0000
     66 H6        -5.9475   -7.4181   -6.7168 H         1 RES1    0.0000
     67 H7        -6.5987   -8.9662   -6.1753 H         1 RES1    0.0000
     68 H8        -4.3294   -9.8565   -6.0875 H         1 RES1    0.0000
     69 H9        -3.6119   -7.2662   -7.5216 H         1 RES1    0.0000
     70 H10       -1.8088   -9.5652   -6.8046 H         1 RES1    0.0000
     71 H11       -1.3458   -8.0534   -7.5948 H         1 RES1    0.0000
     72 H12       -1.6062   -9.9784   -9.1898 H         1 RES1    0.0000
     73 H13       -2.6717   -8.6195   -9.5556 H         1 RES1    0.0000
     74 H14       -5.0420   -8.6236   -8.7069 H         1 RES1    0.0000
     75 H15       -6.2130  -11.0991   -7.5509 H         1 RES1    0.0000
     76 H16       -6.9745   -9.8350   -8.5167 H         1 RES1    0.0000
     77 H17       -2.8755  -11.2872   -6.9948 H         1 RES1    0.0000
     78 H18       -2.6060  -12.1810   -8.4874 H         1 RES1    0.0000
     79 H19       -4.2027  -12.1762   -7.7411 H         1 RES1    0.0000
     80 H20       -6.9295   -9.1183  -11.4873 H         1 RES1    0.0000
     81 H21       -3.2675   -9.7183  -11.5604 H         1 RES1    0.0000
     82 H22       -4.5631   -8.8376  -10.7702 H         1 RES1    0.0000
     83 H23       -3.6854  -10.9501  -13.5213 H         1 RES1    0.0000
     84 H24       -5.0675  -11.3103  -15.5261 H         1 RES1    0.0000
     85 H25       -7.4206  -10.7437  -15.4968 H         1 RES1    0.0000
     86 H26       -8.3886   -9.5333  -13.4774 H         1 RES1    0.0000
     87 H27       -3.0452   -4.1092   -0.4390 H         1 RES1    0.0000
     88 H28       -3.8833   -5.6053   -0.8341 H         1 RES1    0.0000
     89 H29       -4.1456   -4.1720   -1.8145 H         1 RES1    0.0000
     90 H30       -4.7318  -11.6636   -1.8584 H         2 RES2    0.0000
     91 H31       -4.3950  -12.9594   -3.9218 H         2 RES2    0.0000
     92 H32       -8.1088  -11.4766   -5.3851 H         2 RES2    0.0000
     93 H33       -9.7002  -10.5098   -3.6730 H         2 RES2    0.0000
     94 H34       -8.6833   -9.0828   -3.8486 H         2 RES2    0.0000
     95 H35       -9.9045   -8.8031   -1.8584 H         2 RES2    0.0000
     96 H36       -9.5412  -10.4524   -1.3316 H         2 RES2    0.0000
     97 H37       -7.5612   -8.2301   -1.6975 H         2 RES2    0.0000
     98 H38       -7.2660  -11.0452   -0.3951 H         2 RES2    0.0000
     99 H39       -4.9238  -10.6179   -0.2341 H         2 RES2    0.0000
    100 H40       -5.1565   -8.9985   -0.8780 H         2 RES2    0.0000
    101 H41       -5.0209   -8.8980    1.5658 H         2 RES2    0.0000
    102 H42       -6.3355  -10.0671    1.6975 H         2 RES2    0.0000
    103 H43       -8.5982   -9.5721    0.6731 H         2 RES2    0.0000
    104 H44      -10.2239   -7.9218    0.5268 H         2 RES2    0.0000
    105 H45       -9.1265   -6.7539   -0.2049 H         2 RES2    0.0000
    106 H46       -5.8739   -7.1453   -0.5561 H         2 RES2    0.0000
    107 H47       -5.5660   -6.4817    1.0536 H         2 RES2    0.0000
    108 H48       -7.0909   -6.1398    0.2341 H         2 RES2    0.0000
    109 H49      -10.5581   -9.2738    3.3364 H         2 RES2    0.0000
    110 H50       -6.9921   -9.1568    3.8193 H         2 RES2    0.0000
    111 H51       -8.2859   -9.6494    2.7365 H         2 RES2    0.0000
    112 H52       -7.4464   -7.8210    5.7802 H         2 RES2    0.0000
    113 H53       -9.1019   -7.0325    7.3899 H         2 RES2    0.0000
    114 H54      -11.4373   -7.5072    7.0387 H         2 RES2    0.0000
    115 H55      -12.2542   -8.5242    4.9315 H         2 RES2    0.0000
    116 H56       -5.3592  -14.5507   -7.0094 H         2 RES2    0.0000
    117 H57       -5.5523  -14.8634   -5.2973 H         2 RES2    0.0000
    118 H58       -4.3066  -13.7495   -5.8534 H         2 RES2    0.0000
@<TRIPOS>BOND
     1    1    2 ar
     2    2    3 ar
     3    3    4 ar
     4    4    5 ar
     5    5    6 1
     6    6    7 1
     7    7    8 1
     8    8    9 1
     9    9   10 1
    10   10    1 ar
    11   11    9 1
    12   12   11 1
    13   13   12 1
    14   14    8 1
    15   15   14 1
    16   16   15 1
    17   17   13 1
    18   18   13 1
    19   19   17 1
    20   20   19 1
    21   21   20 ar
    22   22   21 ar
    23   23   22 ar
    24   24   23 ar
    25   25   20 ar
    26   26   28 1
    27   27   16 2
    28   28    3 1
    29   29   17 1
    30   30   27 1
    31   31   32 ar
    32   32   33 ar
    33   33   34 ar
    34   34   35 ar
    35   35   36 1
    36   36   37 1
    37   37   38 1
    38   38   39 1
    39   39   40 1
    40   40   31 ar
    41   41   39 1
    42   42   41 1
    43   43   42 1
    44   44   38 1
    45   45   44 1
    46   46   45 1
    47   47   43 1
    48   48   43 1
    49   49   47 1
    50   50   49 1
    51   51   50 ar
    52   52   51 ar
    53   53   52 ar
    54   54   53 ar
    55   55   50 ar
    56   56   58 1
    57   57   46 2
    58   58   33 1
    59   59   47 1
    60   60   57 1
    61   61    1 1
    62   62    2 1
    63   63    4 1
    64   64    6 1
    65   65    6 1
    66   66    7 1
    67   67    7 1
    68   68    8 1
    69   69    9 1
    70   70   11 1
    71   71   11 1
    72   72   12 1
    73   73   12 1
    74   74   14 1
    75   75   15 1
    76   76   15 1
    77   77   18 1
    78   78   18 1
    79   79   18 1
    80   80   25 1
    81   81   19 1
    82   82   19 1
    83   83   21 1
    84   84   22 1
    85   85   23 1
    86   86   24 1
    87   87   26 1
    88   88   26 1
    89   89   26 1
    90   90   31 1
    91   91   32 1
    92   92   34 1
    93   93   36 1
    94   94   36 1
    95   95   37 1
    96   96   37 1
    97   97   38 1
    98   98   39 1
    99   99   41 1
   100  100   41 1
   101  101   42 1
   102  102   42 1
   103  103   44 1
   104  104   45 1
   105  105   45 1
   106  106   48 1
   107  107   48 1
   108  108   48 1
   109  109   55 1
   110  110   49 1
   111  111   49 1
   112  112   51 1
   113  113   52 1
   114  114   53 1
   115  115   54 1
   116  116   56 1
   117  117   56 1
   118  118   56 1
   119    5   10 ar
   120   13   14 1
   121   16   17 1
   122   24   25 ar
   123   35   40 ar
   124   43   44 1
   125   46   47 1
   126   54   55 ar
@<TRIPOS>SUBSTRUCTURE
     1 RES1 1
     2 RES2 31

@<TRIPOS>CRYSIN
   7.3450   10.5320   15.1290 102.0000 100.1600  80.9900   1 1

