# MOL2 file generated by ConQuest
# Please check atom types

@<TRIPOS>MOLECULE
TEHFER
    43    46     1
SMALL
NO_CHARGES
****
Generated from CSD

@<TRIPOS>ATOM
      1 O1         6.7888    2.0105    0.1376 O.3       1 RES1    0.0000
      2 C1         6.3019    1.2676   -1.0134 C.3       1 RES1    0.0000
      3 C2         4.8062    1.3621   -1.1519 C.2       1 RES1    0.0000
      4 C3         4.0298    1.7107   -0.1543 C.2       1 RES1    0.0000
      5 C4         3.8502    2.4418    2.2489 C.ar      1 RES1    0.0000
      6 C5         4.4787    2.8336    3.4008 C.ar      1 RES1    0.0000
      7 C6         5.8635    2.8877    3.5022 C.ar      1 RES1    0.0000
      8 C7         6.6177    2.5711    2.3968 C.ar      1 RES1    0.0000
      9 C8         6.0008    2.1944    1.2216 C.ar      1 RES1    0.0000
     10 C9         4.5928    2.1067    1.1296 C.ar      1 RES1    0.0000
     11 C10        7.0276    1.8541   -2.2145 C.3       1 RES1    0.0000
     12 C11        6.7392   -0.1893   -0.7661 C.3       1 RES1    0.0000
     13 O2         6.3019   -1.0283   -1.8045 O.3       1 RES1    0.0000
     14 C12        5.1748   -1.7696   -1.2876 C.3       1 RES1    0.0000
     15 C13        5.3301   -1.7325    0.1813 C.3       1 RES1    0.0000
     16 O3         6.2184   -0.6583    0.4435 O.3       1 RES1    0.0000
     17 N1         2.6027    1.7652   -0.3012 N.am      1 RES1    0.0000
     18 C14        1.7894    0.7319    0.0102 C.2       1 RES1    0.0000
     19 O4         2.1316   -0.2892    0.5513 O.2       1 RES1    0.0000
     20 C15        0.3940    1.1054   -0.4518 C.3       1 RES1    0.0000
     21 C16        0.4658    2.5945   -0.7094 C.3       1 RES1    0.0000
     22 C17        1.9383    2.8683   -0.9827 C.3       1 RES1    0.0000
     23 N2         3.6897    3.2448    4.5444 N.pl3     1 RES1    0.0000
     24 O5         2.4844    3.3743    4.3854 O.2       1 RES1    0.0000
     25 O6         4.2474    3.4656    5.6098 O.2       1 RES1    0.0000
     26 H1         4.4808    1.0969   -1.9793 H         1 RES1    0.0000
     27 H2         2.9524    2.3815    2.2359 H         1 RES1    0.0000
     28 H3         6.2892    3.1455    4.3352 H         1 RES1    0.0000
     29 H4         7.5494    2.6130    2.3373 H         1 RES1    0.0000
     30 H5         6.7741    2.9409   -2.4302 H         1 RES1    0.0000
     31 H6         7.8473    1.8085   -2.0630 H         1 RES1    0.0000
     32 H7         6.6621    1.3285   -3.0531 H         1 RES1    0.0000
     33 H8         7.7068   -0.1910   -0.7345 H         1 RES1    0.0000
     34 H9         5.2382   -2.6452   -1.6177 H         1 RES1    0.0000
     35 H10        4.1745   -1.2068   -1.5377 H         1 RES1    0.0000
     36 H11        5.8107   -2.4947    0.6740 H         1 RES1    0.0000
     37 H12        4.4819   -1.5026    0.6917 H         1 RES1    0.0000
     38 H13        0.3655    0.6169   -1.2923 H         1 RES1    0.0000
     39 H14       -0.2810    0.9144    0.3235 H         1 RES1    0.0000
     40 H15        0.2620    3.1184    0.1878 H         1 RES1    0.0000
     41 H16       -0.0296    2.9122   -1.4689 H         1 RES1    0.0000
     42 H17        2.3513    3.8013   -0.7447 H         1 RES1    0.0000
     43 H18        2.0936    2.7753   -1.8566 H         1 RES1    0.0000
@<TRIPOS>BOND
     1    1    2 1
     2    2    3 1
     3    3    4 2
     4    4   10 1
     5    5    6 ar
     6    6    7 ar
     7    7    8 ar
     8    8    9 ar
     9    9    1 1
    10   10    5 ar
    11   11    2 1
    12   12    2 1
    13   13   12 1
    14   14   13 1
    15   15   14 1
    16   16   12 1
    17   17    4 1
    18   18   17 1
    19   19   18 2
    20   20   18 1
    21   21   20 1
    22   22   17 1
    23   23    6 1
    24   24   23 2
    25   25   23 2
    26   26    3 1
    27   27    5 1
    28   28    7 1
    29   29    8 1
    30   30   11 1
    31   31   11 1
    32   32   11 1
    33   33   12 1
    34   34   14 1
    35   35   14 1
    36   36   15 1
    37   37   15 1
    38   38   20 1
    39   39   20 1
    40   40   21 1
    41   41   21 1
    42   42   22 1
    43   43   22 1
    44    9   10 ar
    45   15   16 1
    46   21   22 1
@<TRIPOS>SUBSTRUCTURE
     1 RES1 1

@<TRIPOS>CRYSIN
  10.5630   16.9020    9.2970  90.0000  90.0000  90.0000  19 1

