# MOL2 file generated by ConQuest
# Please check atom types

@<TRIPOS>MOLECULE
TEHGUI01
    44    38     3
SMALL
NO_CHARGES
****
Generated from CSD

@<TRIPOS>ATOM
      1 C1         5.7025    5.2866   -1.8510 C.ar      1 RES1    0.0000
      2 N1         4.9049    6.3625   -1.9927 N.3       1 RES1    0.0000
      3 C2         6.3720    4.9524   -0.6554 C.ar      1 RES1    0.0000
      4 N2         6.2715    5.7514    0.5051 N.pl3     1 RES1    0.0000
      5 O1         5.5271    6.7559    0.5270 O.2       1 RES1    0.0000
      6 O2         6.9241    5.4432    1.5227 O.2       1 RES1    0.0000
      7 C3         7.1730    3.7979   -0.5851 C.ar      1 RES1    0.0000
      8 C4         7.3130    2.9448   -1.6257 C.ar      1 RES1    0.0000
      9 C5         8.1442    1.6943   -1.5554 C.3       1 RES1    0.0000
     10 C6         6.6245    3.2998   -2.8225 C.ar      1 RES1    0.0000
     11 C7         5.8666    4.4070   -2.9267 C.ar      1 RES1    0.0000
     12 N3         5.7334    7.3060    3.7032 N.3       2 RES2    0.0000
     13 C8         5.0823    8.4314    4.0303 C.ar      2 RES2    0.0000
     14 C9         5.0848    9.0383    5.2986 C.ar      2 RES2    0.0000
     15 N4         5.8208    8.4502    6.3840 N.pl3     2 RES2    0.0000
     16 O3         6.4547    7.3904    6.2144 O.2       2 RES2    0.0000
     17 O4         5.7900    9.0116    7.4888 O.2       2 RES2    0.0000
     18 C10        4.3789   10.2140    5.5603 C.ar      2 RES2    0.0000
     19 C11        3.6351   10.8339    4.6093 C.ar      2 RES2    0.0000
     20 C12        2.8422   12.0828    4.9025 C.3       2 RES2    0.0000
     21 C13        3.6193   10.2414    3.3422 C.ar      2 RES2    0.0000
     22 C14        4.3025    9.1089    3.0624 C.ar      2 RES2    0.0000
     23 H1         4.4920    6.5066   -2.7571 H         1 RES1    0.0000
     24 H2         4.7963    6.9212   -1.3216 H         1 RES1    0.0000
     25 H3         7.6342    3.6112    0.2241 H         1 RES1    0.0000
     26 H4         8.4606    1.4622   -2.4531 H         1 RES1    0.0000
     27 H5         7.6015    0.9607   -1.1993 H         1 RES1    0.0000
     28 H6         8.9137    1.8461   -0.9679 H         1 RES1    0.0000
     29 H7         8.1904    1.3837   -0.6275 Du        3 SUP3    0.0000
     30 H8         9.0488    1.8853   -1.8813 Du        3 SUP3    0.0000
     31 H9         7.7370    0.9991   -2.1127 Du        3 SUP3    0.0000
     32 H10        6.7056    2.7311   -3.5784 H         1 RES1    0.0000
     33 H11        5.4320    4.5955   -3.7505 H         1 RES1    0.0000
     34 H12        6.2136    6.8840    4.3077 H         2 RES2    0.0000
     35 H13        5.6807    6.9900    2.8831 H         2 RES2    0.0000
     36 H14        4.4209   10.5923    6.4313 H         2 RES2    0.0000
     37 H15        2.2809   12.3021    4.1296 H         2 RES2    0.0000
     38 H16        3.4558   12.8248    5.0818 H         2 RES2    0.0000
     39 H17        2.2732   11.9324    5.6863 H         2 RES2    0.0000
     40 H18        3.0589   12.4044    5.8026 Du        3 SUP3    0.0000
     41 H19        1.8843   11.8808    4.8492 Du        3 SUP3    0.0000
     42 H20        3.0665   12.7740    4.2447 Du        3 SUP3    0.0000
     43 H21        3.1100   10.6511    2.6529 H         2 RES2    0.0000
     44 H22        4.2579    8.7540    2.1817 H         2 RES2    0.0000
@<TRIPOS>BOND
     1    1    2 1
     2    2   23 1
     3    3    1 ar
     4    4    3 1
     5    5    4 2
     6    6    4 2
     7    7    3 ar
     8    8    7 ar
     9    9    8 1
    10   10    8 ar
    11   11    1 ar
    12   12   13 1
    13   13   14 ar
    14   14   15 1
    15   15   16 2
    16   17   15 2
    17   18   14 ar
    18   19   18 ar
    19   20   19 1
    20   21   19 ar
    21   22   13 ar
    22   24    2 1
    23   25    7 1
    24   26    9 1
    25   27    9 1
    26   28    9 1
    27   32   10 1
    28   33   11 1
    29   34   12 1
    30   35   12 1
    31   36   18 1
    32   37   20 1
    33   38   20 1
    34   39   20 1
    35   43   21 1
    36   44   22 1
    37   10   11 ar
    38   21   22 ar
@<TRIPOS>SUBSTRUCTURE
     1 RES1 1
     2 RES2 12
     3 SUP3 29

@<TRIPOS>CRYSIN
   7.8329    7.9900   12.3690  79.7660  81.2570  69.6460   2 1

