# MOL2 file generated by ConQuest
# Please check atom types

@<TRIPOS>MOLECULE
TEHGUI
    19    19     1
SMALL
NO_CHARGES
****
Generated from CSD

@<TRIPOS>ATOM
      1 O1        -1.9710    1.7268   13.5213 O.2       1 RES1    0.0000
      2 O2        -1.5010   -0.0592   12.4243 O.2       1 RES1    0.0000
      3 N1        -1.5795    1.1706   12.4927 N.pl3     1 RES1    0.0000
      4 N2        -0.7037    0.0765    9.9442 N.3       1 RES1    0.0000
      5 C1        -1.2077    1.9881   11.3753 C.ar      1 RES1    0.0000
      6 C2        -0.8051    1.4064   10.1761 C.ar      1 RES1    0.0000
      7 C3        -0.4409    2.3194    9.1764 C.ar      1 RES1    0.0000
      8 C4        -0.4798    3.6503    9.3506 C.ar      1 RES1    0.0000
      9 C5        -0.8955    4.2147   10.5702 C.ar      1 RES1    0.0000
     10 C6        -1.2609    3.3626   11.5531 C.ar      1 RES1    0.0000
     11 C7        -0.9036    5.7030   10.7445 C.3       1 RES1    0.0000
     12 H1        -0.0137    6.1727   10.5702 H         1 RES1    0.0000
     13 H2        -1.2183    5.9443   11.6192 H         1 RES1    0.0000
     14 H3        -1.6211    6.2201   10.3335 H         1 RES1    0.0000
     15 H4        -0.1622    4.3257    8.6597 H         1 RES1    0.0000
     16 H5        -0.9825   -0.5243   10.6459 H         1 RES1    0.0000
     17 H6        -1.5330    3.6594   12.4291 H         1 RES1    0.0000
     18 H7        -0.6363   -0.1320    9.1428 H         1 RES1    0.0000
     19 H8        -0.2393    1.9153    8.3690 H         1 RES1    0.0000
@<TRIPOS>BOND
     1    1    3 2
     2    2    3 2
     3    3    5 1
     4    4    6 1
     5    5    6 ar
     6    6    7 ar
     7    7    8 ar
     8    8    9 ar
     9    9   10 ar
    10   10    5 ar
    11   11    9 1
    12   12   11 1
    13   13   11 1
    14   14   11 1
    15   15    8 1
    16   16    4 1
    17   17   10 1
    18   18    4 1
    19   19    7 1
@<TRIPOS>SUBSTRUCTURE
     1 RES1 1

@<TRIPOS>CRYSIN
  13.4010    9.1030   12.3750  90.0000 103.8400  90.0000  15 1

