# MOL2 file generated by ConQuest
# Please check atom types

@<TRIPOS>MOLECULE
TEHKEW
    24    25     1
SMALL
NO_CHARGES
****
Generated from CSD

@<TRIPOS>ATOM
      1 O1         1.7731    0.5915    3.0915 O.3       1 RES1    0.0000
      2 N1         2.9703    0.5528    3.8509 N.3       1 RES1    0.0000
      3 C1         2.6317    0.8307    5.1501 C.2       1 RES1    0.0000
      4 C2         1.2792    0.9152    5.2801 C.2       1 RES1    0.0000
      5 C3         0.7086    0.7755    3.9798 C.2       1 RES1    0.0000
      6 O2        -0.4214    0.7562    3.5374 O.2       1 RES1    0.0000
      7 C4         3.6609    0.9202    6.1959 C.ar      1 RES1    0.0000
      8 C5         4.8464    0.1891    6.1268 C.ar      1 RES1    0.0000
      9 N2         5.8002    0.2249    7.0655 N.ar      1 RES1    0.0000
     10 C6         5.5719    0.9982    8.1345 C.ar      1 RES1    0.0000
     11 C7         4.4108    1.7401    8.3171 C.ar      1 RES1    0.0000
     12 C8         3.4404    1.7072    7.3271 C.ar      1 RES1    0.0000
     13 C9         4.0640    1.1737    3.0951 C.3       1 RES1    0.0000
     14 C10        4.4829    0.2915    1.9374 C.3       1 RES1    0.0000
     15 H1         0.7693    1.0169    6.0818 H         1 RES1    0.0000
     16 H2         4.9937   -0.4010    5.3712 H         1 RES1    0.0000
     17 H3         6.2857    1.0025    8.8088 H         1 RES1    0.0000
     18 H4         4.2765    2.2342    9.1393 H         1 RES1    0.0000
     19 H5         2.6127    2.2629    7.4040 H         1 RES1    0.0000
     20 H6         3.7583    2.0767    2.7765 H         1 RES1    0.0000
     21 H7         4.7880    1.2961    3.7350 H         1 RES1    0.0000
     22 H8         4.8188   -0.5872    2.2807 H         1 RES1    0.0000
     23 H9         3.7205    0.1361    1.3387 H         1 RES1    0.0000
     24 H10        5.2088    0.7447    1.4378 H         1 RES1    0.0000
@<TRIPOS>BOND
     1    1    2 1
     2    2    3 1
     3    3    4 2
     4    4    5 1
     5    5    1 1
     6    6    5 2
     7    7    3 1
     8    8    7 ar
     9    9    8 ar
    10   10    9 ar
    11   11   10 ar
    12   12    7 ar
    13   13    2 1
    14   14   13 1
    15   15    4 1
    16   16    8 1
    17   17   10 1
    18   18   11 1
    19   19   12 1
    20   20   13 1
    21   21   13 1
    22   22   14 1
    23   23   14 1
    24   24   14 1
    25   11   12 ar
@<TRIPOS>SUBSTRUCTURE
     1 RES1 1

@<TRIPOS>CRYSIN
   7.5710    7.1610   16.5350  90.0000  91.8100  90.0000 231 1

