# MOL2 file generated by ConQuest
# Please check atom types

@<TRIPOS>MOLECULE
TEHKEY
    49    43     2
SMALL
NO_CHARGES
****
Generated from CSD

@<TRIPOS>ATOM
      1 C1        20.1056    5.6355   -1.2496 C.ar      1 RES1    0.0000
      2 H1        19.6420    6.1333   -0.6159 H         1 RES1    0.0000
      3 C2        21.4629    5.7648   -1.3346 C.ar      1 RES1    0.0000
      4 H2        21.8993    6.3527   -0.7620 H         1 RES1    0.0000
      5 C3        22.2178    5.0256   -2.2725 C.ar      1 RES1    0.0000
      6 C4        21.4969    4.1691   -3.1193 C.ar      1 RES1    0.0000
      7 H3        21.9512    3.6621   -3.7527 H         1 RES1    0.0000
      8 C5        20.1333    4.0692   -3.0264 C.ar      1 RES1    0.0000
      9 H4        19.6847    3.5063   -3.6153 H         1 RES1    0.0000
     10 C6        19.3973    4.7752   -2.0897 C.ar      1 RES1    0.0000
     11 C7        17.9736    4.5890   -1.9982 C.2       1 RES1    0.0000
     12 H5        17.5602    4.0405   -2.6259 H         1 RES1    0.0000
     13 C8        15.8543    4.9409   -1.0421 C.ar      1 RES1    0.0000
     14 C9        15.0745    4.1055   -1.8126 C.ar      1 RES1    0.0000
     15 H6        15.4740    3.5729   -2.4610 H         1 RES1    0.0000
     16 C10       13.7017    4.0488   -1.6315 C.ar      1 RES1    0.0000
     17 H7        13.1788    3.4798   -2.1499 H         1 RES1    0.0000
     18 C11       13.1299    4.8448   -0.6796 C.ar      1 RES1    0.0000
     19 C12       13.8616    5.6801    0.1224 C.ar      1 RES1    0.0000
     20 H8        13.4496    6.2060    0.7683 H         1 RES1    0.0000
     21 C13       15.2338    5.7179   -0.0587 C.ar      1 RES1    0.0000
     22 C14       24.3697    4.4725   -3.4304 C.3       1 RES1    0.0000
     23 H9        23.8383    4.3999   -4.2374 H         1 RES1    0.0000
     24 H10       25.1637    4.9908   -3.6340 H         1 RES1    0.0000
     25 C15       24.7525    3.1431   -2.9707 C.3       1 RES1    0.0000
     26 H11       25.3008    3.2210   -2.1862 H         1 RES1    0.0000
     27 H12       25.2455    2.6952   -3.6628 H         1 RES1    0.0000
     28 H13       23.9650    2.6369   -2.7608 H         1 RES1    0.0000
     29 C16       24.3476    5.8170   -1.3379 C.3       1 RES1    0.0000
     30 H14       25.1930    5.3578   -1.2218 H         1 RES1    0.0000
     31 H15       23.8685    5.7853   -0.4947 H         1 RES1    0.0000
     32 C17       24.5936    7.2312   -1.7190 C.3       1 RES1    0.0000
     33 H16       25.0303    7.2607   -2.5734 H         1 RES1    0.0000
     34 H17       25.1541    7.6474   -1.0594 H         1 RES1    0.0000
     35 H18       23.7571    7.6996   -1.7689 H         1 RES1    0.0000
     36 N1        17.2451    5.1361   -1.1018 N.2       1 RES1    0.0000
     37 N2        23.5749    5.1603   -2.3573 N.3       1 RES1    0.0000
     38 N3        11.6781    4.8115   -0.5034 N.pl3     1 RES1    0.0000
     39 O1        15.9870    6.5275    0.7171 O.3       1 RES1    0.0000
     40 O2        11.0306    3.9905   -1.1293 O.2       1 RES1    0.0000
     41 O3        11.1663    5.6037    0.2399 O.2       1 RES1    0.0000
     42 H19       16.6695    6.3028    0.5247 H         1 RES1    0.0000
     43 C18       24.3614    6.2877   -1.5241 Du        2 SUP2    0.0000
     44 C19       24.6997    5.7527   -0.3148 Du        2 SUP2    0.0000
     45 H20       25.1615    6.5555   -2.0063 Du        2 SUP2    0.0000
     46 H21       23.7999    7.0655   -1.4041 Du        2 SUP2    0.0000
     47 H22       23.9017    5.5204    0.1661 Du        2 SUP2    0.0000
     48 H23       25.2000    6.3974    0.1899 Du        2 SUP2    0.0000
     49 H24       25.2327    4.9658   -0.4472 Du        2 SUP2    0.0000
@<TRIPOS>BOND
     1    1    2 1
     2    3    1 ar
     3    4    3 1
     4    5    3 ar
     5    6    5 ar
     6    7    6 1
     7    8    6 ar
     8    9    8 1
     9   10    1 ar
    10   11   10 1
    11   12   11 1
    12   13   14 ar
    13   14   15 1
    14   16   14 ar
    15   17   16 1
    16   18   16 ar
    17   19   18 ar
    18   20   19 1
    19   21   13 ar
    20   22   23 1
    21   24   22 1
    22   25   22 1
    23   26   25 1
    24   27   25 1
    25   28   25 1
    26   29   30 1
    27   31   29 1
    28   32   29 1
    29   33   32 1
    30   34   32 1
    31   35   32 1
    32   36   11 2
    33   37    5 1
    34   38   18 1
    35   39   21 1
    36   40   38 2
    37   41   38 2
    38   42   39 1
    39    8   10 ar
    40   13   36 1
    41   19   21 ar
    42   22   37 1
    43   29   37 1
@<TRIPOS>SUBSTRUCTURE
     1 RES1 1
     2 SUP2 43

@<TRIPOS>CRYSIN
  16.9980    7.5664   13.0501  90.0000 106.8110  90.0000  14 1

