# MOL2 file generated by ConQuest
# Please check atom types

@<TRIPOS>MOLECULE
TEHQOP
    47    49     1
SMALL
NO_CHARGES
****
Generated from CSD

@<TRIPOS>ATOM
      1 O1         1.1160    5.0104    0.1227 O.2       1 RES1    0.0000
      2 O2         1.1930    2.9301    0.7060 O.2       1 RES1    0.0000
      3 O3         6.2927    9.4366    8.9629 O.2       1 RES1    0.0000
      4 O4         2.4254    7.9228   10.6658 O.2       1 RES1    0.0000
      5 N1         1.4112    4.1229    0.9166 N.pl3     1 RES1    0.0000
      6 N2         4.3704    8.8169    9.9523 N.am      1 RES1    0.0000
      7 H1         3.9478    9.1075    9.2014 H         1 RES1    0.0000
      8 C1         2.0386    4.5079    2.1877 C.ar      1 RES1    0.0000
      9 C2         2.3087    5.8454    2.4138 C.ar      1 RES1    0.0000
     10 H2         2.0998    6.5028    1.7607 H         1 RES1    0.0000
     11 C3         2.8908    6.1979    3.6146 C.ar      1 RES1    0.0000
     12 H3         3.0874    7.1097    3.7925 H         1 RES1    0.0000
     13 C4         3.1945    5.2219    4.5754 C.ar      1 RES1    0.0000
     14 C5         2.9221    3.8781    4.2998 C.ar      1 RES1    0.0000
     15 H4         3.1377    3.2116    4.9412 H         1 RES1    0.0000
     16 C6         2.3441    3.5170    3.1041 C.ar      1 RES1    0.0000
     17 H5         2.1583    2.6047    2.9121 H         1 RES1    0.0000
     18 C7         3.7665    5.5738    5.8402 C.1       1 RES1    0.0000
     19 C8         4.2158    5.7794    6.9380 C.1       1 RES1    0.0000
     20 C9         4.7354    5.9106    8.2066 C.1       1 RES1    0.0000
     21 C10        5.1943    5.9548    9.3174 C.1       1 RES1    0.0000
     22 C11        5.8002    5.8700   10.6630 C.3       1 RES1    0.0000
     23 C12        6.3683    4.4421   10.7958 C.3       1 RES1    0.0000
     24 H6         5.6371    3.7920   10.7360 H         1 RES1    0.0000
     25 H7         6.8178    4.3494   11.6614 H         1 RES1    0.0000
     26 H8         7.0110    4.2786   10.0744 H         1 RES1    0.0000
     27 C13        6.9546    6.8912   10.8135 C.3       1 RES1    0.0000
     28 H9         7.4873    6.8868    9.9788 H         1 RES1    0.0000
     29 H10        7.5470    6.5877   11.5456 H         1 RES1    0.0000
     30 C14        4.7513    6.0748   11.7730 C.3       1 RES1    0.0000
     31 H11        5.1040    5.6782   12.6088 H         1 RES1    0.0000
     32 H12        3.9372    5.5685   11.5263 H         1 RES1    0.0000
     33 C15        4.3432    7.5348   12.0651 C.3       1 RES1    0.0000
     34 C16        6.5205    8.3505   11.1084 C.3       1 RES1    0.0000
     35 C17        5.6067    8.3546   12.3297 C.3       1 RES1    0.0000
     36 H13        5.3559    9.2862   12.5509 H         1 RES1    0.0000
     37 H14        6.0901    7.9750   13.1050 H         1 RES1    0.0000
     38 C18        7.7735    9.2032   11.3457 C.3       1 RES1    0.0000
     39 H15        8.3386    9.1818   10.5458 H         1 RES1    0.0000
     40 H16        8.2739    8.8438   12.1080 H         1 RES1    0.0000
     41 H17        7.5084   10.1267   11.5346 H         1 RES1    0.0000
     42 C19        3.3995    7.5599   13.2642 C.3       1 RES1    0.0000
     43 H18        3.0956    8.4775   13.4211 H         1 RES1    0.0000
     44 H19        3.8708    7.2318   14.0580 H         1 RES1    0.0000
     45 H20        2.6254    6.9859   13.0830 H         1 RES1    0.0000
     46 C20        5.7611    8.9119    9.9167 C.2       1 RES1    0.0000
     47 C21        3.6224    8.0983   10.8569 C.2       1 RES1    0.0000
@<TRIPOS>BOND
     1    1    5 2
     2    2    5 2
     3    3   46 2
     4    4   47 2
     5    5    8 1
     6    6    7 1
     7    8    9 ar
     8    9   10 1
     9   11    9 ar
    10   12   11 1
    11   13   11 ar
    12   14   13 ar
    13   15   14 1
    14   16    8 ar
    15   17   16 1
    16   18   13 1
    17   19   18 3
    18   20   19 1
    19   21   20 3
    20   22   21 1
    21   23   22 1
    22   24   23 1
    23   25   23 1
    24   26   23 1
    25   27   22 1
    26   28   27 1
    27   29   27 1
    28   30   22 1
    29   31   30 1
    30   32   30 1
    31   33   30 1
    32   34   27 1
    33   35   33 1
    34   36   35 1
    35   37   35 1
    36   38   34 1
    37   39   38 1
    38   40   38 1
    39   41   38 1
    40   42   33 1
    41   43   42 1
    42   44   42 1
    43   45   42 1
    44   46    6 1
    45   47    6 1
    46   14   16 ar
    47   33   47 1
    48   34   35 1
    49   34   46 1
@<TRIPOS>SUBSTRUCTURE
     1 RES1 1

@<TRIPOS>CRYSIN
  11.4478   17.6947    9.6942  90.0000 108.5710  90.0000  14 1

