# MOL2 file generated by ConQuest
# Please check atom types

@<TRIPOS>MOLECULE
TEHXIN
    73    62     2
SMALL
NO_CHARGES
****
Generated from CSD

@<TRIPOS>ATOM
      1 N1         9.0218    2.7308    4.4141 N.pl3     1 RES1    0.0000
      2 H1         8.5115    2.2402    4.9706 H         1 RES1    0.0000
      3 N2        12.0069    1.4880   -2.2007 N.pl3     1 RES1    0.0000
      4 O1        11.7666    0.7522   -3.1749 O.2       1 RES1    0.0000
      5 O2        13.0416    2.1585   -2.0784 O.2       1 RES1    0.0000
      6 C1         8.3892    3.6906    3.6308 C.2       1 RES1    0.0000
      7 H2         6.6280    4.7503    3.6117 H         1 RES1    0.0000
      8 H3         6.4522    3.2933    4.1606 H         1 RES1    0.0000
      9 H4         7.0826    4.4036    5.0712 H         1 RES1    0.0000
     10 H5         6.9607    5.0184    4.8674 Du        2 SUP2    0.0000
     11 H6         6.7613    3.3669    5.3756 Du        2 SUP2    0.0000
     12 H7         6.3792    3.9801    3.6678 Du        2 SUP2    0.0000
     13 C2         7.0118    4.0733    4.1734 C.3       1 RES1    0.0000
     14 C3         9.0422    4.2074    2.5483 C.2       1 RES1    0.0000
     15 C4         8.5783    5.3193    1.7231 C.2       1 RES1    0.0000
     16 O3         9.1160    5.7019    0.6826 O.2       1 RES1    0.0000
     17 O4         7.4833    6.0094    2.1956 O.3       1 RES1    0.0000
     18 C5        10.3898    3.5909    2.1013 C.3       1 RES1    0.0000
     19 H8        10.9464    4.3038    1.7791 H         1 RES1    0.0000
     20 C6        11.1119    2.9646    3.2908 C.2       1 RES1    0.0000
     21 C7        12.5991    2.8011    3.2501 C.2       1 RES1    0.0000
     22 O5        13.3072    2.2762    4.0804 O.2       1 RES1    0.0000
     23 O6        13.1164    3.3800    2.1370 O.3       1 RES1    0.0000
     24 C8        10.4019    2.4692    4.3580 C.2       1 RES1    0.0000
     25 H9        11.8634    1.5600    5.4418 H         1 RES1    0.0000
     26 H10       10.7442    2.1879    6.3435 H         1 RES1    0.0000
     27 H11       10.4722    0.8503    5.5742 H         1 RES1    0.0000
     28 H12       11.2435    0.6982    5.5793 Du        2 SUP2    0.0000
     29 H13       11.6515    2.2746    6.3282 Du        2 SUP2    0.0000
     30 H14       10.1854    1.4079    6.5434 Du        2 SUP2    0.0000
     31 C9        10.9185    1.6990    5.5360 C.3       1 RES1    0.0000
     32 C10       10.2286    2.5787    0.9513 C.ar      1 RES1    0.0000
     33 C11       11.1298    2.5297   -0.1337 C.ar      1 RES1    0.0000
     34 H15       11.8411    3.1707   -0.1961 H         1 RES1    0.0000
     35 C12       10.9815    1.5518   -1.1080 C.ar      1 RES1    0.0000
     36 C13        9.9578    0.6018   -1.0952 C.ar      1 RES1    0.0000
     37 H16        9.8697   -0.0360   -1.8084 H         1 RES1    0.0000
     38 C14        9.0794    0.6590   -0.0102 C.ar      1 RES1    0.0000
     39 H17        8.3797    0.0049    0.0509 H         1 RES1    0.0000
     40 C15        9.2157    1.6205    0.9946 C.ar      1 RES1    0.0000
     41 H18        8.6006    1.6254    1.7307 H         1 RES1    0.0000
     42 C16        7.0813    7.2031    1.4569 C.3       1 RES1    0.0000
     43 H19        6.8167    6.9545    0.5680 H         1 RES1    0.0000
     44 H20        7.8159    7.8179    1.3971 H         1 RES1    0.0000
     45 C17        5.9008    7.8539    2.1306 C.3       1 RES1    0.0000
     46 H21        5.7507    8.7369    1.7817 H         1 RES1    0.0000
     47 H22        6.1218    7.9373    3.0603 H         1 RES1    0.0000
     48 C18        4.6469    7.1605    2.0860 C.3       1 RES1    0.0000
     49 H23        4.7457    6.3233    2.5471 H         1 RES1    0.0000
     50 H24        4.4822    6.9758    1.1589 H         1 RES1    0.0000
     51 C19        3.4067    7.8915    2.6298 C.3       1 RES1    0.0000
     52 H25        2.6026    7.3764    2.5407 H         1 RES1    0.0000
     53 H26        3.5721    8.0664    3.5595 H         1 RES1    0.0000
     54 H27        3.3084    8.7238    2.1612 H         1 RES1    0.0000
     55 C20       14.5605    3.2802    1.9511 C.3       1 RES1    0.0000
     56 H28       14.8435    2.3890    2.1726 H         1 RES1    0.0000
     57 H29       15.0041    3.8967    2.5369 H         1 RES1    0.0000
     58 C21       14.9195    3.7119    0.5349 C.3       1 RES1    0.0000
     59 H30       14.6143    4.5998    0.3502 H         1 RES1    0.0000
     60 H31       14.4249    3.1069   -0.0178 H         1 RES1    0.0000
     61 C22       15.0279    2.8616    0.9934 Du        2 SUP2    0.0000
     62 H32       14.6055    3.2262    0.2152 Du        2 SUP2    0.0000
     63 H33       14.7595    1.9410    1.0507 Du        2 SUP2    0.0000
     64 C23       16.3784    3.5647    0.1656 C.3       1 RES1    0.0000
     65 H34       16.9036    3.7511    0.9577 H         1 RES1    0.0000
     66 H35       16.5887    4.2532   -0.4738 H         1 RES1    0.0000
     67 C24       16.4465    2.7635    0.7769 Du        2 SUP2    0.0000
     68 H36       16.7525    3.6759    0.8469 Du        2 SUP2    0.0000
     69 H37       16.8724    2.2746    1.4875 Du        2 SUP2    0.0000
     70 C25       16.8758    2.3531   -0.2114 C.3       1 RES1    0.0000
     71 H38       17.8151    2.3710   -0.4114 H         1 RES1    0.0000
     72 H39       16.6994    1.6646    0.4343 H         1 RES1    0.0000
     73 H40       16.3811    2.1732   -1.0137 H         1 RES1    0.0000
@<TRIPOS>BOND
     1    1    2 1
     2    3    4 2
     3    5    3 2
     4    6    1 1
     5    7   13 1
     6    8   13 1
     7    9   13 1
     8   13    6 1
     9   14    6 2
    10   15   14 1
    11   16   15 2
    12   17   15 1
    13   18   14 1
    14   19   18 1
    15   20   18 1
    16   21   20 1
    17   22   21 2
    18   23   21 1
    19   24    1 1
    20   25   31 1
    21   26   31 1
    22   27   31 1
    23   31   24 1
    24   32   18 1
    25   33   32 ar
    26   34   33 1
    27   35    3 1
    28   36   35 ar
    29   37   36 1
    30   38   36 ar
    31   39   38 1
    32   40   32 ar
    33   41   40 1
    34   42   17 1
    35   43   42 1
    36   44   42 1
    37   45   42 1
    38   46   45 1
    39   47   45 1
    40   48   45 1
    41   49   48 1
    42   50   48 1
    43   51   48 1
    44   52   51 1
    45   53   51 1
    46   54   51 1
    47   55   23 1
    48   56   55 1
    49   57   55 1
    50   58   55 1
    51   59   58 1
    52   60   58 1
    53   64   58 1
    54   65   64 1
    55   66   64 1
    56   70   64 1
    57   71   70 1
    58   72   70 1
    59   73   70 1
    60   20   24 2
    61   33   35 ar
    62   38   40 ar
@<TRIPOS>SUBSTRUCTURE
     1 RES1 1
     2 SUP2 10

@<TRIPOS>CRYSIN
  11.3580   16.3520   12.9990  90.0000 101.5600  90.0000  14 1

