# MOL2 file generated by ConQuest
# Please check atom types

@<TRIPOS>MOLECULE
TEJJIB
    25    26     1
SMALL
NO_CHARGES
****
Generated from CSD

@<TRIPOS>ATOM
      1 O1         1.2990    0.8656   14.8229 O.3       1 RES1    0.0000
      2 N1         1.8713    0.8684   16.1095 N.2       1 RES1    0.0000
      3 N2        -0.6668   -2.9368   12.8150 N.1       1 RES1    0.0000
      4 C1         3.5221   -1.3544   20.3283 C.ar      1 RES1    0.0000
      5 C2         3.5740   -2.2474   19.2571 C.ar      1 RES1    0.0000
      6 H1         4.0136   -3.0712   19.3664 H         1 RES1    0.0000
      7 C3         2.9951   -1.9484   18.0431 C.ar      1 RES1    0.0000
      8 H2         3.0250   -2.5767   17.3445 H         1 RES1    0.0000
      9 C4         2.3679   -0.7261   17.8443 C.ar      1 RES1    0.0000
     10 C5         2.2926    0.1629   18.9108 C.ar      1 RES1    0.0000
     11 H3         1.8523    0.9856   18.7996 H         1 RES1    0.0000
     12 C6         2.8579   -0.1504   20.1323 C.ar      1 RES1    0.0000
     13 H4         2.7917    0.4619   20.8426 H         1 RES1    0.0000
     14 C7         1.8217   -0.3722   16.5172 C.2       1 RES1    0.0000
     15 C8         1.2389   -1.2229   15.5412 C.2       1 RES1    0.0000
     16 H5         1.0981   -2.1507   15.5936 H         1 RES1    0.0000
     17 C9         0.9355   -0.3996   14.5288 C.2       1 RES1    0.0000
     18 C10        0.3278   -0.5643   13.1731 C.3       1 RES1    0.0000
     19 H6        -0.3787    0.1046   13.0538 H         1 RES1    0.0000
     20 H7         1.0132   -0.4025   12.4915 H         1 RES1    0.0000
     21 C11       -0.2351   -1.8946   12.9796 C.1       1 RES1    0.0000
     22 C12        4.1745   -1.6831   21.6362 C.3       1 RES1    0.0000
     23 H8         5.1344   -1.7408   21.5129 H         1 RES1    0.0000
     24 H9         3.8380   -2.5332   21.9605 H         1 RES1    0.0000
     25 H10        3.9730   -0.9879   22.2813 H         1 RES1    0.0000
@<TRIPOS>BOND
     1    1    2 1
     2    2   14 2
     3    3   21 3
     4    4    5 ar
     5    5    6 1
     6    7    5 ar
     7    8    7 1
     8    9    7 ar
     9   10    9 ar
    10   11   10 1
    11   12    4 ar
    12   13   12 1
    13   14    9 1
    14   15   14 1
    15   16   15 1
    16   17    1 1
    17   18   17 1
    18   19   18 1
    19   20   18 1
    20   21   18 1
    21   22    4 1
    22   23   22 1
    23   24   22 1
    24   25   22 1
    25   10   12 ar
    26   15   17 2
@<TRIPOS>SUBSTRUCTURE
     1 RES1 1

@<TRIPOS>CRYSIN
  11.6090    5.7170   15.2930  90.0000  92.6300  90.0000  14 1

