# MOL2 file generated by ConQuest
# Please check atom types

@<TRIPOS>MOLECULE
TEJPED
    33    33     1
SMALL
NO_CHARGES
****
Generated from CSD

@<TRIPOS>ATOM
      1 O1         2.5737    7.9111    6.4237 O.3       1 RES1    0.0000
      2 O2         0.5949    6.8875    6.1666 O.2       1 RES1    0.0000
      3 O3         1.6198    4.3638    7.4392 O.3       1 RES1    0.0000
      4 N1         2.9273    6.7817    7.2501 N.3       1 RES1    0.0000
      5 C1         3.8185    5.9350    6.4608 C.3       1 RES1    0.0000
      6 C2         3.9896    4.6195    7.1381 C.ar      1 RES1    0.0000
      7 C3         5.2516    4.0718    7.3141 C.ar      1 RES1    0.0000
      8 C4         5.3986    2.8286    7.9044 C.ar      1 RES1    0.0000
      9 C5         4.2935    2.1339    8.3476 C.ar      1 RES1    0.0000
     10 C6         3.0590    2.6869    8.1805 C.ar      1 RES1    0.0000
     11 C7         2.8783    3.8900    7.5922 C.ar      1 RES1    0.0000
     12 C8         3.5127    7.3197    8.5036 C.3       1 RES1    0.0000
     13 C9         2.4192    8.0673    9.2530 C.3       1 RES1    0.0000
     14 C10        4.7433    8.1724    8.3015 C.3       1 RES1    0.0000
     15 C11        1.3038    7.8299    5.9886 C.2       1 RES1    0.0000
     16 C12        0.9568    9.0646    5.1902 C.3       1 RES1    0.0000
     17 H1         1.6479    5.1995    7.0030 H         1 RES1    0.0000
     18 H2         6.0111    4.5471    7.0030 H         1 RES1    0.0000
     19 H3         6.2676    2.4525    8.0134 H         1 RES1    0.0000
     20 H4         4.4043    1.2974    8.7337 H         1 RES1    0.0000
     21 H5         2.3014    2.2128    8.5136 H         1 RES1    0.0000
     22 H6         3.8093    6.6133    9.0139 H         1 RES1    0.0000
     23 H7         4.6477    6.3673    6.3527 H         1 RES1    0.0000
     24 H8         3.4190    5.7896    5.6024 H         1 RES1    0.0000
     25 H9         2.7595    8.4182   10.0443 H         1 RES1    0.0000
     26 H10        1.6904    7.4912    9.3940 H         1 RES1    0.0000
     27 H11        2.1107    8.8061    8.6937 H         1 RES1    0.0000
     28 H12        5.4059    7.6349    7.8634 H         1 RES1    0.0000
     29 H13        5.0773    8.4306    9.1539 H         1 RES1    0.0000
     30 H14        4.5546    8.9343    7.7833 H         1 RES1    0.0000
     31 H15        1.6826    9.6512    5.1622 H         1 RES1    0.0000
     32 H16        0.1945    9.4760    5.5624 H         1 RES1    0.0000
     33 H17        0.7476    8.7833    4.2818 H         1 RES1    0.0000
@<TRIPOS>BOND
     1    1    4 1
     2    2   15 2
     3    3   11 1
     4    4    5 1
     5    5    6 1
     6    6    7 ar
     7    7    8 ar
     8    8    9 ar
     9    9   10 ar
    10   10   11 ar
    11   11    6 ar
    12   12    4 1
    13   13   12 1
    14   14   12 1
    15   15    1 1
    16   16   15 1
    17   17    3 1
    18   18    7 1
    19   19    8 1
    20   20    9 1
    21   21   10 1
    22   22   12 1
    23   23    5 1
    24   24    5 1
    25   25   13 1
    26   26   13 1
    27   27   13 1
    28   28   14 1
    29   29   14 1
    30   30   14 1
    31   31   16 1
    32   32   16 1
    33   33   16 1
@<TRIPOS>SUBSTRUCTURE
     1 RES1 1

@<TRIPOS>CRYSIN
   6.9300    9.5970   10.1690  80.1000  89.9400  73.2200   2 1

