# MOL2 file generated by ConQuest
# Please check atom types

@<TRIPOS>MOLECULE
TEJQII
    49    51     1
SMALL
NO_CHARGES
****
Generated from CSD

@<TRIPOS>ATOM
      1 N1         1.9266   11.2575    7.7731 N.pl3     1 RES1    0.0000
      2 H1         2.5410   11.7825    7.4665 H         1 RES1    0.0000
      3 C1         1.9344    9.9247    7.3799 C.2       1 RES1    0.0000
      4 C2         0.9650    9.0922    7.8329 C.2       1 RES1    0.0000
      5 C3        -0.0857    9.5717    8.8285 C.3       1 RES1    0.0000
      6 H2        -0.9483    9.1913    8.5605 H         1 RES1    0.0000
      7 C4        -0.2081   11.0855    8.7753 C.2       1 RES1    0.0000
      8 C5        -1.4525   11.6991    9.1756 C.2       1 RES1    0.0000
      9 C6        -1.5537   13.1987    9.0581 C.3       1 RES1    0.0000
     10 H3        -2.2126   13.5166    9.6956 H         1 RES1    0.0000
     11 H4        -1.8754   13.4201    8.1696 H         1 RES1    0.0000
     12 C7        -0.2348   13.9439    9.3022 C.3       1 RES1    0.0000
     13 C8         0.8303   13.3433    8.3814 C.3       1 RES1    0.0000
     14 H5         0.6923   13.6794    7.4821 H         1 RES1    0.0000
     15 H6         1.7051   13.6429    8.6771 H         1 RES1    0.0000
     16 C9         0.8203   11.8451    8.3433 C.2       1 RES1    0.0000
     17 C10        3.0452    9.6186    6.4143 C.3       1 RES1    0.0000
     18 H7         3.5794   10.4055    6.2810 H         1 RES1    0.0000
     19 H8         2.6723    9.3398    5.5752 H         1 RES1    0.0000
     20 H9         3.5939    8.9164    6.7701 H         1 RES1    0.0000
     21 C11        0.9349    7.6644    7.4707 C.2       1 RES1    0.0000
     22 O1         1.7942    7.0169    6.9027 O.2       1 RES1    0.0000
     23 O2        -0.2181    7.1055    7.8658 O.3       1 RES1    0.0000
     24 C12       -0.3428    5.6711    7.6892 C.3       1 RES1    0.0000
     25 H10       -1.2032    5.3832    8.0034 H         1 RES1    0.0000
     26 H11        0.3461    5.2255    8.1889 H         1 RES1    0.0000
     27 H12       -0.2549    5.4548    6.7590 H         1 RES1    0.0000
     28 C13        0.2059    9.1105   10.2528 C.ar      1 RES1    0.0000
     29 C14       -0.8192    8.6258   11.0439 C.ar      1 RES1    0.0000
     30 H13       -1.6829    8.5633   10.7052 H         1 RES1    0.0000
     31 C15       -0.5520    8.2376   12.3376 C.ar      1 RES1    0.0000
     32 C16        0.7023    8.2988   12.8886 C.ar      1 RES1    0.0000
     33 H14        0.8570    8.0266   13.7648 H         1 RES1    0.0000
     34 C17        1.7229    8.7731   12.0996 C.ar      1 RES1    0.0000
     35 H15        2.5866    8.8252   12.4420 H         1 RES1    0.0000
     36 C18        1.4736    9.1743   10.8022 C.ar      1 RES1    0.0000
     37 H16        2.1759    9.4961   10.2844 H         1 RES1    0.0000
     38 N2        -1.6728    7.7269   13.1525 N.pl3     1 RES1    0.0000
     39 O3        -2.7391    7.5315   12.6231 O.2       1 RES1    0.0000
     40 O4        -1.4758    7.5054   14.3366 O.2       1 RES1    0.0000
     41 O5        -2.4174   11.0269    9.5298 O.2       1 RES1    0.0000
     42 C19       -0.4085   15.4291    8.9707 C.3       1 RES1    0.0000
     43 H17       -1.0763   15.8095    9.5472 H         1 RES1    0.0000
     44 H18       -0.6845   15.5216    8.0553 H         1 RES1    0.0000
     45 H19        0.4252   15.8863    9.1018 H         1 RES1    0.0000
     46 C20        0.1892   13.7993   10.7693 C.3       1 RES1    0.0000
     47 H20        0.2994   12.8691   10.9801 H         1 RES1    0.0000
     48 H21       -0.4864   14.1784   11.3366 H         1 RES1    0.0000
     49 H22        1.0206   14.2591   10.9094 H         1 RES1    0.0000
@<TRIPOS>BOND
     1    1    2 1
     2    3    1 1
     3    4    3 2
     4    5    4 1
     5    6    5 1
     6    7    5 1
     7    8    7 1
     8    9    8 1
     9   10    9 1
    10   11    9 1
    11   12    9 1
    12   13   12 1
    13   14   13 1
    14   15   13 1
    15   16    1 1
    16   17    3 1
    17   18   17 1
    18   19   17 1
    19   20   17 1
    20   21    4 1
    21   22   21 2
    22   23   21 1
    23   24   23 1
    24   25   24 1
    25   26   24 1
    26   27   24 1
    27   28    5 1
    28   29   28 ar
    29   30   29 1
    30   31   29 ar
    31   32   31 ar
    32   33   32 1
    33   34   32 ar
    34   35   34 1
    35   36   28 ar
    36   37   36 1
    37   38   31 1
    38   39   38 2
    39   40   38 2
    40   41    8 2
    41   42   12 1
    42   43   42 1
    43   44   42 1
    44   45   42 1
    45   46   12 1
    46   47   46 1
    47   48   46 1
    48   49   46 1
    49    7   16 2
    50   13   16 1
    51   34   36 ar
@<TRIPOS>SUBSTRUCTURE
     1 RES1 1

@<TRIPOS>CRYSIN
  11.1300   13.0280   24.7400  90.0000  90.0000  90.0000  61 1

