# MOL2 file generated by ConQuest
# Please check atom types

@<TRIPOS>MOLECULE
TEJREG
    31    31     1
SMALL
NO_CHARGES
****
Generated from CSD

@<TRIPOS>ATOM
      1 O1         3.8700   17.0610    5.7190 O.2       1 RES1    0.0000
      2 O2         2.6296   15.7103    4.6524 O.2       1 RES1    0.0000
      3 O3         6.0262   12.0154    8.4930 O.3       1 RES1    0.0000
      4 O4         8.2337   14.0674    7.7293 O.2       1 RES1    0.0000
      5 O5         6.4469   14.5977    8.9806 O.3       1 RES1    0.0000
      6 N1         3.4783   15.9310    5.4817 N.pl3     1 RES1    0.0000
      7 C1         4.0705   14.8248    6.2378 C.ar      1 RES1    0.0000
      8 C2         3.7644   13.4987    5.9746 C.ar      1 RES1    0.0000
      9 C3         4.4270   12.5440    6.7421 C.ar      1 RES1    0.0000
     10 C4         5.3459   12.8776    7.7148 C.ar      1 RES1    0.0000
     11 C5         5.5996   14.2232    7.9475 C.ar      1 RES1    0.0000
     12 C6         4.9832   15.1868    7.2098 C.ar      1 RES1    0.0000
     13 C7         0.5607   12.1937    5.6435 C.2       1 RES1    0.0000
     14 C8         1.3579   13.0800    5.4741 C.2       1 RES1    0.0000
     15 C9         2.7677   12.9787    4.9690 C.3       1 RES1    0.0000
     16 C10        6.0149   10.6344    8.1451 C.3       1 RES1    0.0000
     17 C11        7.7925   14.4254    8.7692 C.2       1 RES1    0.0000
     18 C12        8.5323   14.7703   10.0014 C.3       1 RES1    0.0000
     19 H1         4.2428   11.6443    6.5933 H         1 RES1    0.0000
     20 H2         5.1756   16.0845    7.3586 H         1 RES1    0.0000
     21 H3         0.7957   11.3141    5.4535 H         1 RES1    0.0000
     22 H4        -0.2900   12.3878    5.9647 H         1 RES1    0.0000
     23 H5         1.0618   13.9372    5.6824 H         1 RES1    0.0000
     24 H6         2.8495   13.4865    4.1466 H         1 RES1    0.0000
     25 H7         2.9694   12.0513    4.7699 H         1 RES1    0.0000
     26 H8         5.1095   10.3171    8.1215 H         1 RES1    0.0000
     27 H9         6.5118   10.1356    8.7982 H         1 RES1    0.0000
     28 H10        6.4180   10.5190    7.2815 H         1 RES1    0.0000
     29 H11        9.4734   14.7949    9.8129 H         1 RES1    0.0000
     30 H12        8.3581   14.1094   10.6751 H         1 RES1    0.0000
     31 H13        8.2470   15.6307   10.3157 H         1 RES1    0.0000
@<TRIPOS>BOND
     1    1    6 2
     2    2    6 2
     3    3   10 1
     4    4   17 2
     5    5   11 1
     6    6    7 1
     7    7    8 ar
     8    8    9 ar
     9    9   10 ar
    10   10   11 ar
    11   11   12 ar
    12   12    7 ar
    13   13   14 2
    14   14   15 1
    15   15    8 1
    16   16    3 1
    17   17    5 1
    18   18   17 1
    19   19    9 1
    20   20   12 1
    21   21   13 1
    22   22   13 1
    23   23   14 1
    24   24   15 1
    25   25   15 1
    26   26   16 1
    27   27   16 1
    28   28   16 1
    29   29   18 1
    30   30   18 1
    31   31   18 1
@<TRIPOS>SUBSTRUCTURE
     1 RES1 1

@<TRIPOS>CRYSIN
  10.2090   15.6510    7.8920  90.0000 104.8220  90.0000  14 1

