# MOL2 file generated by ConQuest
# Please check atom types

@<TRIPOS>MOLECULE
TEKJIC
    42    45     1
SMALL
NO_CHARGES
****
Generated from CSD

@<TRIPOS>ATOM
      1 O1         1.8685    5.7428    5.4896 O.3       1 RES1    0.0000
      2 O2         2.9697    1.7751    6.5247 O.2       1 RES1    0.0000
      3 O3         0.8391    1.4086    5.9632 O.3       1 RES1    0.0000
      4 N1         0.5128    5.4513    5.1822 N.2       1 RES1    0.0000
      5 C1         0.3890    4.1611    5.3427 C.2       1 RES1    0.0000
      6 C2         1.6206    3.5665    5.7608 C.2       1 RES1    0.0000
      7 C3         2.4908    4.6027    5.8332 C.2       1 RES1    0.0000
      8 C4         3.9256    4.7259    6.2067 C.3       1 RES1    0.0000
      9 H1         4.3417    3.9167    6.0284 H         1 RES1    0.0000
     10 H2         4.3198    5.3503    5.6768 H         1 RES1    0.0000
     11 H3         3.9959    4.8760    7.0674 H         1 RES1    0.0000
     12 C5         1.9133    2.1724    6.1184 C.2       1 RES1    0.0000
     13 C6         0.9141    0.0346    6.4215 C.3       1 RES1    0.0000
     14 H4         1.5657   -0.4320    5.9210 H         1 RES1    0.0000
     15 H5         1.3214    0.0760    7.3774 H         1 RES1    0.0000
     16 C7        -0.4515   -0.4801    6.4111 C.3       1 RES1    0.0000
     17 H6        -0.4446   -1.2825    6.6639 H         1 RES1    0.0000
     18 H7        -1.0064   -0.2415    5.7478 H         1 RES1    0.0000
     19 H8        -0.4369    0.0433    7.4882 H         1 RES1    0.0000
     20 C8        -0.9288    3.5107    5.1013 C.ar      1 RES1    0.0000
     21 C9        -1.3143    3.1827    3.7871 C.ar      1 RES1    0.0000
     22 C10       -0.5719    3.5665    2.6295 C.ar      1 RES1    0.0000
     23 H9         0.2061    4.1053    2.7570 H         1 RES1    0.0000
     24 C11       -0.9851    3.1990    1.3859 C.ar      1 RES1    0.0000
     25 H10       -0.4652    3.5261    0.6148 H         1 RES1    0.0000
     26 C12       -2.1377    2.3976    1.2174 C.ar      1 RES1    0.0000
     27 H11       -2.3829    2.1032    0.3238 H         1 RES1    0.0000
     28 C13       -2.8725    2.0233    2.2756 C.ar      1 RES1    0.0000
     29 H12       -3.6650    1.5057    2.1959 H         1 RES1    0.0000
     30 C14       -2.5195    2.4197    3.5976 C.ar      1 RES1    0.0000
     31 C15       -3.3098    2.0964    4.6909 C.ar      1 RES1    0.0000
     32 H13       -4.1613    1.6173    4.5581 H         1 RES1    0.0000
     33 C16       -2.9654    2.4745    5.9812 C.ar      1 RES1    0.0000
     34 C17       -3.7900    2.1734    7.1159 C.ar      1 RES1    0.0000
     35 H14       -4.6065    1.7347    6.9341 H         1 RES1    0.0000
     36 C18       -3.4223    2.5275    8.3628 C.ar      1 RES1    0.0000
     37 H15       -3.9841    2.3235    9.1317 H         1 RES1    0.0000
     38 C19       -2.1978    3.1990    8.5777 C.ar      1 RES1    0.0000
     39 H16       -1.9584    3.4116    9.4677 H         1 RES1    0.0000
     40 C20       -1.3846    3.5030    7.5404 C.ar      1 RES1    0.0000
     41 H17       -0.5351    3.9206    7.7082 H         1 RES1    0.0000
     42 C21       -1.7348    3.1740    6.1977 C.ar      1 RES1    0.0000
@<TRIPOS>BOND
     1    1    4 1
     2    2   12 2
     3    3   12 1
     4    4    5 2
     5    5    6 1
     6    6    7 2
     7    7    1 1
     8    8    7 1
     9    9    8 1
    10   10    8 1
    11   11    8 1
    12   12    6 1
    13   13    3 1
    14   14   13 1
    15   15   13 1
    16   16   13 1
    17   17   16 1
    18   18   16 1
    19   19   16 1
    20   20    5 1
    21   21   20 ar
    22   22   21 ar
    23   23   22 1
    24   24   22 ar
    25   25   24 1
    26   26   24 ar
    27   27   26 1
    28   28   26 ar
    29   29   28 1
    30   30   21 ar
    31   31   30 ar
    32   32   31 1
    33   33   31 ar
    34   34   33 ar
    35   35   34 1
    36   36   34 ar
    37   37   36 1
    38   38   36 ar
    39   39   38 1
    40   40   38 ar
    41   41   40 1
    42   42   20 ar
    43   28   30 ar
    44   33   42 ar
    45   40   42 ar
@<TRIPOS>SUBSTRUCTURE
     1 RES1 1

@<TRIPOS>CRYSIN
  10.2743    9.6211   17.3827  90.0000  94.9500  90.0000 231 1

