# MOL2 file generated by ConQuest
# Please check atom types

@<TRIPOS>MOLECULE
TEKMIF
    31    32     1
SMALL
NO_CHARGES
****
Generated from CSD

@<TRIPOS>ATOM
      1 N1         5.2347    5.1224   11.5641 N.pl3     1 RES1    0.0000
      2 O1         4.3586    5.3440   10.7353 O.2       1 RES1    0.0000
      3 O2         5.1100    5.4106   12.7438 O.2       1 RES1    0.0000
      4 C1         6.4833    4.4982   11.1102 C.ar      1 RES1    0.0000
      5 C2         7.4325    4.1653   12.0700 C.ar      1 RES1    0.0000
      6 H1         7.2819    4.3316   12.9930 H         1 RES1    0.0000
      7 C3         8.6015    3.5828   11.6252 C.ar      1 RES1    0.0000
      8 H2         9.2689    3.3305   12.2528 H         1 RES1    0.0000
      9 C4         8.8179    3.3612   10.2703 C.ar      1 RES1    0.0000
     10 H3         9.6312    2.9617    9.9824 H         1 RES1    0.0000
     11 C5         7.8504    3.7195    9.3234 C.ar      1 RES1    0.0000
     12 C6         6.6586    4.2810    9.7590 C.ar      1 RES1    0.0000
     13 H4         5.9766    4.5115    9.1388 H         1 RES1    0.0000
     14 N2         8.1697    3.4461    7.9634 N.2       1 RES1    0.0000
     15 C7         7.4815    3.9971    7.0456 C.2       1 RES1    0.0000
     16 H5         6.7754    4.5820    7.2930 H         1 RES1    0.0000
     17 C8         7.7371    3.7646    5.6262 C.ar      1 RES1    0.0000
     18 C9         8.8544    3.0750    5.1702 C.ar      1 RES1    0.0000
     19 H6         9.4527    2.6981    5.8052 H         1 RES1    0.0000
     20 C10        9.1176    2.9220    3.8265 C.ar      1 RES1    0.0000
     21 H7         9.9054    2.4773    3.5403 H         1 RES1    0.0000
     22 C11        8.2195    3.4235    2.8961 C.ar      1 RES1    0.0000
     23 C12        7.0794    4.1022    3.3225 C.ar      1 RES1    0.0000
     24 H8         6.4651    4.4445    2.6820 H         1 RES1    0.0000
     25 C13        6.8361    4.2798    4.6700 C.ar      1 RES1    0.0000
     26 H9         6.0623    4.7502    4.9543 H         1 RES1    0.0000
     27 O3         8.3594    3.3207    1.5387 O.3       1 RES1    0.0000
     28 C14        9.5522    2.7063    1.0466 C.3       1 RES1    0.0000
     29 H10        9.5612    2.7475    0.0683 H         1 RES1    0.0000
     30 H11        9.5804    1.7698    1.3346 H         1 RES1    0.0000
     31 H12       10.3342    3.1798    1.4010 H         1 RES1    0.0000
@<TRIPOS>BOND
     1    1    2 2
     2    3    1 2
     3    4    1 1
     4    5    4 ar
     5    6    5 1
     6    7    5 ar
     7    8    7 1
     8    9    7 ar
     9   10    9 1
    10   11    9 ar
    11   12    4 ar
    12   13   12 1
    13   14   11 1
    14   15   14 2
    15   16   15 1
    16   17   15 1
    17   18   17 ar
    18   19   18 1
    19   20   18 ar
    20   21   20 1
    21   22   20 ar
    22   23   22 ar
    23   24   23 1
    24   25   17 ar
    25   26   25 1
    26   27   22 1
    27   28   27 1
    28   29   28 1
    29   30   28 1
    30   31   28 1
    31   11   12 ar
    32   23   25 ar
@<TRIPOS>SUBSTRUCTURE
     1 RES1 1

@<TRIPOS>CRYSIN
  16.5350    3.8939   19.8900  90.0000 111.8700  90.0000 231 1

