# MOL2 file generated by ConQuest
# Please check atom types

@<TRIPOS>MOLECULE
TEKMOL
    62    64     2
SMALL
NO_CHARGES
****
Generated from CSD

@<TRIPOS>ATOM
      1 O1         9.2518    4.3814   -4.1234 O.2       1 RES1    0.0000
      2 O2         7.3535    4.8461   -5.0452 O.2       1 RES1    0.0000
      3 N1         8.0588    4.6867   -4.0552 N.pl3     1 RES1    0.0000
      4 C1         7.4674    4.8755   -2.7325 C.ar      1 RES1    0.0000
      5 C2         6.1123    5.1286   -2.6366 C.ar      1 RES1    0.0000
      6 H1         5.5746    5.1692   -3.4192 H         1 RES1    0.0000
      7 C3         5.5491    5.3212   -1.3952 C.ar      1 RES1    0.0000
      8 H2         4.6139    5.4703   -1.3230 H         1 RES1    0.0000
      9 C4         6.3383    5.2991   -0.2403 C.ar      1 RES1    0.0000
     10 C5         7.7034    5.0364   -0.3700 C.ar      1 RES1    0.0000
     11 H3         8.2488    5.0039    0.4066 H         1 RES1    0.0000
     12 C6         8.2733    4.8216   -1.6100 C.ar      1 RES1    0.0000
     13 H4         9.2026    4.6394   -1.6896 H         1 RES1    0.0000
     14 N2         5.8571    5.4872    1.0713 N.2       1 RES1    0.0000
     15 C7         4.6989    5.9839    1.2740 C.2       1 RES1    0.0000
     16 H5         4.1743    6.2532    0.5298 H         1 RES1    0.0000
     17 C8         4.1592    6.1484    2.6145 C.ar      1 RES1    0.0000
     18 C9         2.9048    6.7218    2.8176 C.ar      1 RES1    0.0000
     19 H6         2.3798    6.9742    2.0676 H         1 RES1    0.0000
     20 C10        2.4101    6.9292    4.0970 C.ar      1 RES1    0.0000
     21 H7         1.5547    7.3247    4.2210 H         1 RES1    0.0000
     22 C11        3.1702    6.5572    5.1956 C.ar      1 RES1    0.0000
     23 C12        4.4164    5.9492    5.0074 C.ar      1 RES1    0.0000
     24 H8         4.9307    5.6725    5.7560 H         1 RES1    0.0000
     25 C13        4.8918    5.7551    3.7385 C.ar      1 RES1    0.0000
     26 H9         5.7391    5.3434    3.6197 H         1 RES1    0.0000
     27 O3         2.8019    6.7374    6.4965 O.3       1 RES1    0.0000
     28 C14        1.6168    7.5040    6.7491 C.3       1 RES1    0.0000
     29 H10        1.5131    7.6368    7.7147 H         1 RES1    0.0000
     30 H11        0.8364    7.0251    6.4003 H         1 RES1    0.0000
     31 H12        1.6906    8.3755    6.3058 H         1 RES1    0.0000
     32 O4         9.6044    0.8545    0.5888 O.2       2 RES2    0.0000
     33 O5        11.5071    1.4043    1.4333 O.2       2 RES2    0.0000
     34 N3        10.3345    1.0722    1.5481 N.pl3     2 RES2    0.0000
     35 C15        9.7760    0.9409    2.8929 C.ar      2 RES2    0.0000
     36 C16        8.5402    0.3321    3.0489 C.ar      2 RES2    0.0000
     37 H13        8.0801   -0.0317    2.3024 H         2 RES2    0.0000
     38 C17        7.9928    0.2657    4.3130 C.ar      2 RES2    0.0000
     39 H14        7.1474   -0.1483    4.4358 H         2 RES2    0.0000
     40 C18        8.6658    0.7999    5.4106 C.ar      2 RES2    0.0000
     41 C19        9.9334    1.3615    5.2313 C.ar      2 RES2    0.0000
     42 H15       10.4162    1.6876    5.9822 H         2 RES2    0.0000
     43 C20       10.4875    1.4434    3.9685 C.ar      2 RES2    0.0000
     44 H16       11.3423    1.8374    3.8402 H         2 RES2    0.0000
     45 N4         8.1482    0.7407    6.7230 N.2       2 RES2    0.0000
     46 C21        6.9058    0.9726    6.9095 C.2       2 RES2    0.0000
     47 H17        6.3658    1.2146    6.1655 H         2 RES2    0.0000
     48 C22        6.2913    0.8774    8.2253 C.ar      2 RES2    0.0000
     49 C23        4.9682    1.2707    8.4152 C.ar      2 RES2    0.0000
     50 H18        4.4592    1.5659    7.6689 H         2 RES2    0.0000
     51 C24        4.3790    1.2390    9.6700 C.ar      2 RES2    0.0000
     52 H19        3.4726    1.4995    9.7823 H         2 RES2    0.0000
     53 C25        5.1304    0.8213   10.7599 C.ar      2 RES2    0.0000
     54 C26        6.4497    0.4110   10.5867 C.ar      2 RES2    0.0000
     55 H20        6.9568    0.1166   11.3344 H         2 RES2    0.0000
     56 C27        7.0198    0.4302    9.3376 C.ar      2 RES2    0.0000
     57 H21        7.9160    0.1373    9.2267 H         2 RES2    0.0000
     58 O6         4.6748    0.7535   12.0480 O.3       2 RES2    0.0000
     59 C28        3.3525    1.2338   12.3080 C.3       2 RES2    0.0000
     60 H22        3.1732    1.1925   13.2702 H         2 RES2    0.0000
     61 H23        2.7022    0.6774   11.8298 H         2 RES2    0.0000
     62 H24        3.2765    2.1621   12.0016 H         2 RES2    0.0000
@<TRIPOS>BOND
     1    1    3 2
     2    2    3 2
     3    3    4 1
     4    4    5 ar
     5    5    6 1
     6    7    5 ar
     7    8    7 1
     8    9    7 ar
     9   10    9 ar
    10   11   10 1
    11   12    4 ar
    12   13   12 1
    13   14    9 1
    14   15   14 2
    15   16   15 1
    16   17   15 1
    17   18   17 ar
    18   19   18 1
    19   20   18 ar
    20   21   20 1
    21   22   20 ar
    22   23   22 ar
    23   24   23 1
    24   25   17 ar
    25   26   25 1
    26   27   22 1
    27   28   27 1
    28   29   28 1
    29   30   28 1
    30   31   28 1
    31   32   34 2
    32   33   34 2
    33   34   35 1
    34   35   36 ar
    35   36   37 1
    36   38   36 ar
    37   39   38 1
    38   40   38 ar
    39   41   40 ar
    40   42   41 1
    41   43   35 ar
    42   44   43 1
    43   45   40 1
    44   46   45 2
    45   47   46 1
    46   48   46 1
    47   49   48 ar
    48   50   49 1
    49   51   49 ar
    50   52   51 1
    51   53   51 ar
    52   54   53 ar
    53   55   54 1
    54   56   48 ar
    55   57   56 1
    56   58   53 1
    57   59   58 1
    58   60   59 1
    59   61   59 1
    60   62   59 1
    61   10   12 ar
    62   23   25 ar
    63   41   43 ar
    64   54   56 ar
@<TRIPOS>SUBSTRUCTURE
     1 RES1 1
     2 RES2 32

@<TRIPOS>CRYSIN
  11.4508    7.3793   29.0470  90.0000  99.6420  90.0000 231 1

