# MOL2 file generated by ConQuest
# Please check atom types

@<TRIPOS>MOLECULE
TELNUT
    55    58     1
SMALL
NO_CHARGES
****
Generated from CSD

@<TRIPOS>ATOM
      1 O1         9.1035    7.9959   -1.9927 O.2       1 RES1    0.0000
      2 O2         6.9431    5.7063   -2.9174 O.2       1 RES1    0.0000
      3 O3         8.5325    5.6791   -4.3501 O.2       1 RES1    0.0000
      4 O4         6.0085    4.0880   -0.2980 O.2       1 RES1    0.0000
      5 N1         8.0980    5.4731   -3.2275 N.pl3     1 RES1    0.0000
      6 N2         8.4611    6.9239    2.5400 N.pl3     1 RES1    0.0000
      7 H1         8.6689    7.1103    3.3534 H         1 RES1    0.0000
      8 C1         9.3447    8.2007   -0.8133 C.2       1 RES1    0.0000
      9 C2        10.2241    9.3434   -0.3809 C.3       1 RES1    0.0000
     10 H2         9.6868   10.1505   -0.3462 H         1 RES1    0.0000
     11 H3        10.9092    9.4766   -1.0541 H         1 RES1    0.0000
     12 C3        10.9018    9.1540    0.9695 C.3       1 RES1    0.0000
     13 C4        11.9619    8.0520    0.8911 C.3       1 RES1    0.0000
     14 H4        12.3742    7.9421    1.7515 H         1 RES1    0.0000
     15 H5        12.6296    8.2962    0.2461 H         1 RES1    0.0000
     16 H6        11.5466    7.2278    0.6266 H         1 RES1    0.0000
     17 C5        11.5564   10.4623    1.4208 C.3       1 RES1    0.0000
     18 H7        11.9497   10.3402    2.2880 H         1 RES1    0.0000
     19 H8        10.8922   11.1544    1.4657 H         1 RES1    0.0000
     20 H9        12.2389   10.7125    0.7917 H         1 RES1    0.0000
     21 C6         9.8319    8.7653    1.9868 C.3       1 RES1    0.0000
     22 H10       10.2603    8.5030    2.8167 H         1 RES1    0.0000
     23 H11        9.2712    9.5351    2.1706 H         1 RES1    0.0000
     24 C7         8.9850    7.6480    1.4992 C.2       1 RES1    0.0000
     25 C8         7.5984    5.8969    2.2559 C.2       1 RES1    0.0000
     26 C9         7.0214    5.3119    3.5000 C.3       1 RES1    0.0000
     27 H12        6.2459    5.8304    3.7666 H         1 RES1    0.0000
     28 H13        7.6769    5.3684    4.2129 H         1 RES1    0.0000
     29 C10        6.6063    3.8439    3.3084 C.3       1 RES1    0.0000
     30 C11        7.8290    2.9430    3.1639 C.3       1 RES1    0.0000
     31 H14        8.3647    3.0005    3.9585 H         1 RES1    0.0000
     32 H15        8.3479    3.2255    2.4072 H         1 RES1    0.0000
     33 H16        7.5457    2.0350    3.0354 H         1 RES1    0.0000
     34 C12        5.7933    3.3869    4.5202 C.3       1 RES1    0.0000
     35 H17        6.2946    3.5513    5.3222 H         1 RES1    0.0000
     36 H18        5.6059    2.4486    4.4461 H         1 RES1    0.0000
     37 H19        4.9671    3.8752    4.5531 H         1 RES1    0.0000
     38 C13        5.7529    3.7662    2.0473 C.3       1 RES1    0.0000
     39 H20        5.5831    2.8320    1.8481 H         1 RES1    0.0000
     40 H21        4.8975    4.1859    2.2292 H         1 RES1    0.0000
     41 C14        6.3529    4.4146    0.8230 C.2       1 RES1    0.0000
     42 C15        7.3287    5.5008    1.0149 C.2       1 RES1    0.0000
     43 C16        7.9656    6.1269   -0.2088 C.3       1 RES1    0.0000
     44 C17        8.7553    7.3420    0.2227 C.2       1 RES1    0.0000
     45 H22        7.2679    6.3957   -0.8423 H         1 RES1    0.0000
     46 C18        8.9201    5.1436   -0.8834 C.ar      1 RES1    0.0000
     47 C19        9.0108    4.8818   -2.2522 C.ar      1 RES1    0.0000
     48 C20        9.9902    4.0427   -2.7843 C.ar      1 RES1    0.0000
     49 H23       10.0340    3.9004   -3.7022 H         1 RES1    0.0000
     50 C21       10.8890    3.4282   -1.9479 C.ar      1 RES1    0.0000
     51 H24       11.5267    2.8461   -2.2940 H         1 RES1    0.0000
     52 C22       10.8424    3.6764   -0.5988 C.ar      1 RES1    0.0000
     53 H25       11.4607    3.2769   -0.0303 H         1 RES1    0.0000
     54 C23        9.8708    4.5239   -0.0839 C.ar      1 RES1    0.0000
     55 H26        9.8564    4.6823    0.8322 H         1 RES1    0.0000
@<TRIPOS>BOND
     1    1    8 2
     2    2    5 2
     3    3    5 2
     4    4   41 2
     5    5   47 1
     6    6    7 1
     7    8    9 1
     8    9   10 1
     9   11    9 1
    10   12    9 1
    11   13   12 1
    12   14   13 1
    13   15   13 1
    14   16   13 1
    15   17   12 1
    16   18   17 1
    17   19   17 1
    18   20   17 1
    19   21   12 1
    20   22   21 1
    21   23   21 1
    22   24    6 1
    23   25    6 1
    24   26   25 1
    25   27   26 1
    26   28   26 1
    27   29   26 1
    28   30   29 1
    29   31   30 1
    30   32   30 1
    31   33   30 1
    32   34   29 1
    33   35   34 1
    34   36   34 1
    35   37   34 1
    36   38   29 1
    37   39   38 1
    38   40   38 1
    39   41   38 1
    40   42   25 2
    41   43   42 1
    42   44    8 1
    43   45   43 1
    44   46   43 1
    45   47   46 ar
    46   48   47 ar
    47   49   48 1
    48   50   48 ar
    49   51   50 1
    50   52   50 ar
    51   53   52 1
    52   54   46 ar
    53   55   54 1
    54   21   24 1
    55   24   44 2
    56   41   42 1
    57   43   44 1
    58   52   54 ar
@<TRIPOS>SUBSTRUCTURE
     1 RES1 1

@<TRIPOS>CRYSIN
  26.5420   10.0890   20.9220  90.0000 133.0700  90.0000  15 1

