# MOL2 file generated by ConQuest
# Please check atom types

@<TRIPOS>MOLECULE
TELNIH
    34    35     1
SMALL
NO_CHARGES
****
Generated from CSD

@<TRIPOS>ATOM
      1 C1         2.8136    1.4179    2.9905 C.2       1 RES1    0.0000
      2 H1         2.4514    1.0548    3.7663 H         1 RES1    0.0000
      3 C2         2.2808    2.5747    2.6041 C.2       1 RES1    0.0000
      4 C3         1.4253    3.3804    3.5351 C.2       1 RES1    0.0000
      5 C4         3.8846    0.6329    2.3771 C.ar      1 RES1    0.0000
      6 C5         4.7883    1.1810    1.4570 C.ar      1 RES1    0.0000
      7 H2         4.7109    2.0686    1.1890 H         1 RES1    0.0000
      8 C6         5.7909    0.3845    0.9574 C.ar      1 RES1    0.0000
      9 N1         6.7163    0.9799   -0.0258 N.pl3     1 RES1    0.0000
     10 O1         7.2698    0.2310   -0.8179 O.2       1 RES1    0.0000
     11 O2         6.8836    2.1905    0.0002 O.2       1 RES1    0.0000
     12 C7         5.9713   -0.9307    1.3142 C.ar      1 RES1    0.0000
     13 H3         6.6607   -1.4386    0.9514 H         1 RES1    0.0000
     14 C8         5.0881   -1.4713    2.2330 C.ar      1 RES1    0.0000
     15 H4         5.1837   -2.3556    2.5034 H         1 RES1    0.0000
     16 C9         4.0656   -0.6987    2.7469 C.ar      1 RES1    0.0000
     17 H5         3.4792   -1.0797    3.3593 H         1 RES1    0.0000
     18 O3         2.6972    3.1961    1.4609 O.3       1 RES1    0.0000
     19 C10        1.7026    3.9401    0.7484 C.3       1 RES1    0.0000
     20 H6         2.0968    4.3347   -0.0327 H         1 RES1    0.0000
     21 H7         1.3541    4.6325    1.3153 H         1 RES1    0.0000
     22 H8         0.9904    3.3526    0.4865 H         1 RES1    0.0000
     23 O4         1.6090    4.5791    3.6119 O.2       1 RES1    0.0000
     24 C11        0.3981    2.6997    4.3742 C.ar      1 RES1    0.0000
     25 C12       -0.2757    1.5689    3.9337 C.ar      1 RES1    0.0000
     26 H9        -0.0539    1.1800    3.1180 H         1 RES1    0.0000
     27 C13       -1.2812    1.0220    4.7148 C.ar      1 RES1    0.0000
     28 H10       -1.7492    0.2763    4.4145 H         1 RES1    0.0000
     29 C14       -1.5886    1.5816    5.9356 C.ar      1 RES1    0.0000
     30 H11       -2.2501    1.1981    6.4661 H         1 RES1    0.0000
     31 C15       -0.9233    2.7044    6.3763 C.ar      1 RES1    0.0000
     32 H12       -1.1330    3.0758    7.2023 H         1 RES1    0.0000
     33 C16        0.0562    3.2781    5.5869 C.ar      1 RES1    0.0000
     34 H13        0.4866    4.0525    5.8702 H         1 RES1    0.0000
@<TRIPOS>BOND
     1    1    2 1
     2    3    1 2
     3    4    3 1
     4    5    1 1
     5    6    5 ar
     6    7    6 1
     7    8    6 ar
     8    9    8 1
     9   10    9 2
    10   11    9 2
    11   12    8 ar
    12   13   12 1
    13   14   12 ar
    14   15   14 1
    15   16    5 ar
    16   17   16 1
    17   18    3 1
    18   19   18 1
    19   20   19 1
    20   21   19 1
    21   22   19 1
    22   23    4 2
    23   24    4 1
    24   25   24 ar
    25   26   25 1
    26   27   25 ar
    27   28   27 1
    28   29   27 ar
    29   30   29 1
    30   31   29 ar
    31   32   31 1
    32   33   24 ar
    33   34   33 1
    34   14   16 ar
    35   31   33 ar
@<TRIPOS>SUBSTRUCTURE
     1 RES1 1

@<TRIPOS>CRYSIN
   8.3840    8.7830    9.4920  95.0100  97.1700 101.5000   2 1

