# MOL2 file generated by ConQuest
# Please check atom types

@<TRIPOS>MOLECULE
TELWIQ
    35    36     1
SMALL
NO_CHARGES
****
Generated from CSD

@<TRIPOS>ATOM
      1 O1        -4.0620   -0.3114    4.2372 O.2       1 RES1    0.0000
      2 O2        -3.5477    1.7442    4.3573 O.2       1 RES1    0.0000
      3 O3         2.9142    0.1230    5.7625 O.3       1 RES1    0.0000
      4 O4         6.8117    0.2864    7.3440 O.2       1 RES1    0.0000
      5 N1        -3.2596    0.5891    4.4774 N.pl3     1 RES1    0.0000
      6 N2         4.2097   -0.2393    6.1976 N.2       1 RES1    0.0000
      7 N3         7.3454    0.1749    5.1660 N.am      1 RES1    0.0000
      8 H1         8.1831    0.1893    5.3608 H         1 RES1    0.0000
      9 C1        -1.9028    0.2191    4.9124 C.ar      1 RES1    0.0000
     10 C2        -1.6028   -1.0850    5.1500 C.ar      1 RES1    0.0000
     11 H2        -2.2498   -1.7433    5.0352 H         1 RES1    0.0000
     12 C3        -0.3463   -1.4184    5.5610 C.ar      1 RES1    0.0000
     13 H3        -0.1329   -2.3112    5.7105 H         1 RES1    0.0000
     14 C4         0.6233   -0.4324    5.7599 C.ar      1 RES1    0.0000
     15 C5         0.2965    0.8716    5.4996 C.ar      1 RES1    0.0000
     16 H4         0.9406    1.5357    5.6037 H         1 RES1    0.0000
     17 C6        -0.9714    1.2157    5.0846 C.ar      1 RES1    0.0000
     18 H5        -1.1916    2.1046    4.9231 H         1 RES1    0.0000
     19 C7         1.9741   -0.8130    6.2683 C.3       1 RES1    0.0000
     20 H6         1.9801   -0.8005    7.2385 H         1 RES1    0.0000
     21 H7         2.2019   -1.7077    5.9721 H         1 RES1    0.0000
     22 C8         5.0752    0.6083    5.7679 C.2       1 RES1    0.0000
     23 C9         6.4970    0.3162    6.1642 C.2       1 RES1    0.0000
     24 C10        6.9941   -0.0048    3.7581 C.3       1 RES1    0.0000
     25 H8         6.3515   -0.7294    3.6967 H         1 RES1    0.0000
     26 H9         7.7901   -0.2825    3.2803 H         1 RES1    0.0000
     27 C11        6.4297    1.1734    3.0668 C.3       1 RES1    0.0000
     28 H10        6.4725    1.0167    2.1099 H         1 RES1    0.0000
     29 H11        6.9883    1.9412    3.2616 H         1 RES1    0.0000
     30 C12        4.9918    1.5193    3.4338 C.3       1 RES1    0.0000
     31 H12        4.4143    0.7803    3.1842 H         1 RES1    0.0000
     32 H13        4.7128    2.2978    2.9253 H         1 RES1    0.0000
     33 C13        4.8150    1.8096    4.9218 C.3       1 RES1    0.0000
     34 H14        5.4251    2.5188    5.1820 H         1 RES1    0.0000
     35 H15        3.9113    2.1200    5.0806 H         1 RES1    0.0000
@<TRIPOS>BOND
     1    1    5 2
     2    2    5 2
     3    3    6 1
     4    4   23 2
     5    5    9 1
     6    6   22 2
     7    7    8 1
     8    9   10 ar
     9   10   11 1
    10   12   10 ar
    11   13   12 1
    12   14   12 ar
    13   15   14 ar
    14   16   15 1
    15   17    9 ar
    16   18   17 1
    17   19    3 1
    18   20   19 1
    19   21   19 1
    20   22   23 1
    21   23    7 1
    22   24    7 1
    23   25   24 1
    24   26   24 1
    25   27   24 1
    26   28   27 1
    27   29   27 1
    28   30   27 1
    29   31   30 1
    30   32   30 1
    31   33   22 1
    32   34   33 1
    33   35   33 1
    34   14   19 1
    35   15   17 ar
    36   30   33 1
@<TRIPOS>SUBSTRUCTURE
     1 RES1 1

@<TRIPOS>CRYSIN
  21.1410    9.6100   13.9800  90.0000 107.3300  90.0000  15 1

