# MOL2 file generated by ConQuest
# Please check atom types

@<TRIPOS>MOLECULE
TELYOY
    69    73     1
SMALL
NO_CHARGES
****
Generated from CSD

@<TRIPOS>ATOM
      1 O1         9.7012    4.8361    0.8882 O.3       1 RES1    0.0000
      2 O2         2.0867    7.8787    8.5389 O.3       1 RES1    0.0000
      3 O3         1.2549    6.1941    9.7013 O.2       1 RES1    0.0000
      4 N1        10.0726    5.9225    1.6971 N.2       1 RES1    0.0000
      5 C1         8.2110    7.7392    4.0722 C.3       1 RES1    0.0000
      6 H1         8.3563    8.5026    4.6526 H         1 RES1    0.0000
      7 H2         8.3288    6.9361    4.6039 H         1 RES1    0.0000
      8 C2         9.2515    7.7564    2.9524 C.3       1 RES1    0.0000
      9 H3         9.1707    8.5748    2.4390 H         1 RES1    0.0000
     10 H4        10.1435    7.7178    3.3303 H         1 RES1    0.0000
     11 C3         9.0222    6.5874    2.0780 C.2       1 RES1    0.0000
     12 C4         7.6438    6.2583    1.7322 C.2       1 RES1    0.0000
     13 H5         7.4785    5.6423    1.0558 H         1 RES1    0.0000
     14 C5         6.6045    6.8327    2.3766 C.2       1 RES1    0.0000
     15 C6         5.1951    6.5550    1.9104 C.3       1 RES1    0.0000
     16 H6         5.2109    5.8356    1.2599 H         1 RES1    0.0000
     17 H7         4.8434    7.3453    1.4717 H         1 RES1    0.0000
     18 C7         4.2636    6.1672    3.0667 C.3       1 RES1    0.0000
     19 H8         3.3518    6.1152    2.7392 H         1 RES1    0.0000
     20 H9         4.5135    5.2906    3.3973 H         1 RES1    0.0000
     21 C8         4.3309    7.1740    4.2108 C.3       1 RES1    0.0000
     22 H10        4.0023    8.0402    3.8909 H         1 RES1    0.0000
     23 C9         5.7936    7.3410    4.6922 C.3       1 RES1    0.0000
     24 H11        6.0926    6.4534    4.9802 H         1 RES1    0.0000
     25 C10        6.7588    7.7814    3.5375 C.3       1 RES1    0.0000
     26 C11        5.8828    8.2463    5.9201 C.3       1 RES1    0.0000
     27 H12        5.6691    9.1547    5.6566 H         1 RES1    0.0000
     28 H13        6.7959    8.2408    6.2492 H         1 RES1    0.0000
     29 C12        4.9430    7.8200    7.0521 C.3       1 RES1    0.0000
     30 H14        5.2324    6.9636    7.4025 H         1 RES1    0.0000
     31 H15        4.9916    8.4696    7.7696 H         1 RES1    0.0000
     32 C13        3.5004    7.7062    6.5722 C.3       1 RES1    0.0000
     33 C14        3.4837    6.7330    5.3854 C.3       1 RES1    0.0000
     34 H16        3.8930    5.9054    5.7145 H         1 RES1    0.0000
     35 C15        1.9894    6.4131    5.1858 C.3       1 RES1    0.0000
     36 H17        1.8726    5.5255    4.8111 H         1 RES1    0.0000
     37 H18        1.5730    7.0609    4.5963 H         1 RES1    0.0000
     38 C16        1.3917    6.4956    6.6087 C.3       1 RES1    0.0000
     39 H19        0.6477    7.1190    6.6331 H         1 RES1    0.0000
     40 H20        1.0787    5.6252    6.9012 H         1 RES1    0.0000
     41 C17        2.5416    6.9874    7.4984 C.3       1 RES1    0.0000
     42 H21        2.9933    6.2173    7.9037 H         1 RES1    0.0000
     43 C18        2.9413    9.0837    6.2126 C.3       1 RES1    0.0000
     44 H22        3.5539    9.5333    5.6261 H         1 RES1    0.0000
     45 H23        2.8269    9.6012    7.0124 H         1 RES1    0.0000
     46 H24        2.0953    8.9810    5.7724 H         1 RES1    0.0000
     47 C19        6.4490    9.1926    3.0393 C.3       1 RES1    0.0000
     48 H25        6.5419    9.8153    3.7629 H         1 RES1    0.0000
     49 H26        5.5511    9.2238    2.7026 H         1 RES1    0.0000
     50 H27        7.0614    9.4251    2.3370 H         1 RES1    0.0000
     51 C20       10.8917    4.0849    0.5759 C.3       1 RES1    0.0000
     52 H28       10.6387    3.1772    0.3458 H         1 RES1    0.0000
     53 H29       11.4532    4.0433    1.3650 H         1 RES1    0.0000
     54 C21       11.6971    4.6783   -0.5698 C.ar      1 RES1    0.0000
     55 C22       12.8132    3.9736   -0.9689 C.ar      1 RES1    0.0000
     56 H30       13.0368    3.1808   -0.5363 H         1 RES1    0.0000
     57 C23       13.5998    4.4324   -1.9988 C.ar      1 RES1    0.0000
     58 H31       14.3530    3.9522   -2.2578 H         1 RES1    0.0000
     59 C24       13.2779    5.5934   -2.6462 C.ar      1 RES1    0.0000
     60 H32       13.8027    5.8937   -3.3531 H         1 RES1    0.0000
     61 C25       12.1671    6.3213   -2.2471 C.ar      1 RES1    0.0000
     62 H33       11.9553    7.1214   -2.6721 H         1 RES1    0.0000
     63 C26       11.3679    5.8509   -1.2066 C.ar      1 RES1    0.0000
     64 H34       10.6131    6.3286   -0.9430 H         1 RES1    0.0000
     65 C27        1.4496    7.3808    9.5779 C.2       1 RES1    0.0000
     66 C28        1.0111    8.4433   10.5271 C.3       1 RES1    0.0000
     67 H35        1.2906    9.3009   10.1980 H         1 RES1    0.0000
     68 H36        1.4058    8.2861   11.3878 H         1 RES1    0.0000
     69 H37        0.0553    8.4274   10.6047 H         1 RES1    0.0000
@<TRIPOS>BOND
     1    1    4 1
     2    2   41 1
     3    3   65 2
     4    4   11 2
     5    5    6 1
     6    7    5 1
     7    8    5 1
     8    9    8 1
     9   10    8 1
    10   11    8 1
    11   12   11 1
    12   13   12 1
    13   14   12 2
    14   15   14 1
    15   16   15 1
    16   17   15 1
    17   18   15 1
    18   19   18 1
    19   20   18 1
    20   21   18 1
    21   22   21 1
    22   23   21 1
    23   24   23 1
    24   25    5 1
    25   26   23 1
    26   27   26 1
    27   28   26 1
    28   29   26 1
    29   30   29 1
    30   31   29 1
    31   32   29 1
    32   33   21 1
    33   34   33 1
    34   35   33 1
    35   36   35 1
    36   37   35 1
    37   38   35 1
    38   39   38 1
    39   40   38 1
    40   41   32 1
    41   42   41 1
    42   43   32 1
    43   44   43 1
    44   45   43 1
    45   46   43 1
    46   47   25 1
    47   48   47 1
    48   49   47 1
    49   50   47 1
    50   51    1 1
    51   52   51 1
    52   53   51 1
    53   54   51 1
    54   55   54 ar
    55   56   55 1
    56   57   55 ar
    57   58   57 1
    58   59   57 ar
    59   60   59 1
    60   61   59 ar
    61   62   61 1
    62   63   54 ar
    63   64   63 1
    64   65    2 1
    65   66   65 1
    66   67   66 1
    67   68   66 1
    68   69   66 1
    69   14   25 1
    70   23   25 1
    71   32   33 1
    72   38   41 1
    73   61   63 ar
@<TRIPOS>SUBSTRUCTURE
     1 RES1 1

@<TRIPOS>CRYSIN
  13.5070    6.1170   15.2500  90.0000  92.5820  90.0000   4 1

