# MOL2 file generated by ConQuest
# Please check atom types

@<TRIPOS>MOLECULE
TELYIS
    69    73     1
SMALL
NO_CHARGES
****
Generated from CSD

@<TRIPOS>ATOM
      1 O1         3.5622   32.7133    5.3469 O.3       1 RES1    0.0000
      2 O2         0.7186   21.9037    2.3263 O.3       1 RES1    0.0000
      3 O3        -0.3174   20.6414    3.8084 O.2       1 RES1    0.0000
      4 N1         4.4145   31.6041    5.5638 N.2       1 RES1    0.0000
      5 C1         2.3568   29.1788    3.7039 C.3       1 RES1    0.0000
      6 H1         1.9240   28.9261    4.5336 H         1 RES1    0.0000
      7 H2         1.6811   29.1848    3.0078 H         1 RES1    0.0000
      8 C2         2.9315   30.6029    3.8533 C.3       1 RES1    0.0000
      9 H3         3.2407   30.9195    2.9908 H         1 RES1    0.0000
     10 H4         2.2343   31.2027    4.1613 H         1 RES1    0.0000
     11 C3         4.0634   30.6166    4.8246 C.2       1 RES1    0.0000
     12 C4         4.8749   29.4134    4.9205 C.2       1 RES1    0.0000
     13 H5         5.6179   29.4287    5.4806 H         1 RES1    0.0000
     14 C5         4.6156   28.2873    4.2494 C.2       1 RES1    0.0000
     15 C6         5.5659   27.1227    4.3690 C.3       1 RES1    0.0000
     16 H6         6.1885   27.2902    5.0937 H         1 RES1    0.0000
     17 H7         6.0772   27.0411    3.5490 H         1 RES1    0.0000
     18 C7         4.8259   25.8142    4.6332 C.3       1 RES1    0.0000
     19 H8         5.4628   25.0822    4.6357 H         1 RES1    0.0000
     20 H9         4.4125   25.8528    5.5097 H         1 RES1    0.0000
     21 C8         3.7684   25.5462    3.5995 C.3       1 RES1    0.0000
     22 H10        4.2043   25.4852    2.7236 H         1 RES1    0.0000
     23 C9         2.7600   26.7085    3.5527 C.3       1 RES1    0.0000
     24 H11        2.3517   26.7322    4.4431 H         1 RES1    0.0000
     25 C10        3.4153   28.1282    3.3577 C.3       1 RES1    0.0000
     26 C11        1.6199   26.4345    2.5972 C.3       1 RES1    0.0000
     27 H12        1.9546   26.4626    1.6874 H         1 RES1    0.0000
     28 H13        0.9523   27.1335    2.6914 H         1 RES1    0.0000
     29 C12        0.9605   25.0674    2.8475 C.3       1 RES1    0.0000
     30 H14        0.5185   25.0786    3.7112 H         1 RES1    0.0000
     31 H15        0.2858   24.9091    2.1690 H         1 RES1    0.0000
     32 C13        1.9577   23.9541    2.8196 C.3       1 RES1    0.0000
     33 C14        3.0376   24.2514    3.8527 C.3       1 RES1    0.0000
     34 H16        2.5640   24.3772    4.7013 H         1 RES1    0.0000
     35 C15        3.7776   22.9285    3.9876 C.3       1 RES1    0.0000
     36 H17        4.4625   22.8462    3.3055 H         1 RES1    0.0000
     37 H18        4.1951   22.8554    4.8604 H         1 RES1    0.0000
     38 C16        2.7069   21.8587    3.8102 C.3       1 RES1    0.0000
     39 H19        2.5405   21.4007    4.6478 H         1 RES1    0.0000
     40 H20        2.9804   21.2079    3.1457 H         1 RES1    0.0000
     41 C17        1.4484   22.6099    3.3462 C.3       1 RES1    0.0000
     42 H21        0.8625   22.7626    4.1157 H         1 RES1    0.0000
     43 C18        2.5140   23.7187    1.4171 C.3       1 RES1    0.0000
     44 H22        3.1489   22.9996    1.4401 H         1 RES1    0.0000
     45 H23        2.9468   24.5182    1.1073 H         1 RES1    0.0000
     46 H24        1.7954   23.4938    0.8212 H         1 RES1    0.0000
     47 C19        3.8858   28.2905    1.8793 C.3       1 RES1    0.0000
     48 H25        3.1335   28.1941    1.2907 H         1 RES1    0.0000
     49 H26        4.5411   27.6196    1.6752 H         1 RES1    0.0000
     50 H27        4.2727   29.1623    1.7615 H         1 RES1    0.0000
     51 C20        3.9501   33.7454    6.2380 C.3       1 RES1    0.0000
     52 H28        4.8994   33.9213    6.1463 H         1 RES1    0.0000
     53 H29        3.7776   33.4746    7.1533 H         1 RES1    0.0000
     54 C21        3.1672   34.9835    5.9143 C.ar      1 RES1    0.0000
     55 C22        2.5201   35.1281    4.7286 C.ar      1 RES1    0.0000
     56 H30        2.5375   34.4412    4.1024 H         1 RES1    0.0000
     57 C23        1.8362   36.2972    4.4522 C.ar      1 RES1    0.0000
     58 H31        1.3973   36.3896    3.6365 H         1 RES1    0.0000
     59 C24        1.7903   37.3216    5.3488 C.ar      1 RES1    0.0000
     60 H32        1.3330   38.1050    5.1514 H         1 RES1    0.0000
     61 C25        2.4272   37.1690    6.5374 C.ar      1 RES1    0.0000
     62 H33        2.4048   37.8560    7.1667 H         1 RES1    0.0000
     63 C26        3.1050   36.0039    6.8126 C.ar      1 RES1    0.0000
     64 H34        3.5326   35.9115    7.6332 H         1 RES1    0.0000
     65 C27       -0.1511   20.9789    2.6689 C.2       1 RES1    0.0000
     66 C28       -0.8145   20.3763    1.4851 C.3       1 RES1    0.0000
     67 H35       -0.5155   20.8222    0.6888 H         1 RES1    0.0000
     68 H36       -1.7658   20.4727    1.5677 H         1 RES1    0.0000
     69 H37       -0.5910   19.4442    1.4341 H         1 RES1    0.0000
@<TRIPOS>BOND
     1    1    4 1
     2    2   41 1
     3    3   65 2
     4    4   11 2
     5    5    6 1
     6    7    5 1
     7    8    5 1
     8    9    8 1
     9   10    8 1
    10   11    8 1
    11   12   11 1
    12   13   12 1
    13   14   12 2
    14   15   14 1
    15   16   15 1
    16   17   15 1
    17   18   15 1
    18   19   18 1
    19   20   18 1
    20   21   18 1
    21   22   21 1
    22   23   21 1
    23   24   23 1
    24   25    5 1
    25   26   23 1
    26   27   26 1
    27   28   26 1
    28   29   26 1
    29   30   29 1
    30   31   29 1
    31   32   29 1
    32   33   21 1
    33   34   33 1
    34   35   33 1
    35   36   35 1
    36   37   35 1
    37   38   35 1
    38   39   38 1
    39   40   38 1
    40   41   32 1
    41   42   41 1
    42   43   32 1
    43   44   43 1
    44   45   43 1
    45   46   43 1
    46   47   25 1
    47   48   47 1
    48   49   47 1
    49   50   47 1
    50   51    1 1
    51   52   51 1
    52   53   51 1
    53   54   51 1
    54   55   54 ar
    55   56   55 1
    56   57   55 ar
    57   58   57 1
    58   59   57 ar
    59   60   59 1
    60   61   59 ar
    61   62   61 1
    62   63   54 ar
    63   64   63 1
    64   65    2 1
    65   66   65 1
    66   67   66 1
    67   68   66 1
    68   69   66 1
    69   14   25 1
    70   23   25 1
    71   32   33 1
    72   38   41 1
    73   61   63 ar
@<TRIPOS>SUBSTRUCTURE
     1 RES1 1

@<TRIPOS>CRYSIN
  10.2070   40.1740    6.0740  90.0000  90.0000  90.0000  19 1

