# MOL2 file generated by ConQuest
# Please check atom types

@<TRIPOS>MOLECULE
TEMDIY
    30    31     1
SMALL
NO_CHARGES
****
Generated from CSD

@<TRIPOS>ATOM
      1 C1         1.3706    3.9458    0.8398 C.ar      1 RES1    0.0000
      2 C2         2.2950    4.6326    0.0451 C.ar      1 RES1    0.0000
      3 H1         2.9351    5.2059    0.4500 H         1 RES1    0.0000
      4 C3         2.2787    4.4773   -1.3242 C.ar      1 RES1    0.0000
      5 H2         2.9058    4.9511   -1.8579 H         1 RES1    0.0000
      6 C4         1.3603    3.6402   -1.9304 C.ar      1 RES1    0.0000
      7 H3         1.3620    3.5327   -2.8743 H         1 RES1    0.0000
      8 C5         0.4402    2.9623   -1.1562 C.ar      1 RES1    0.0000
      9 H4        -0.1947    2.3900   -1.5694 H         1 RES1    0.0000
     10 C6         0.4402    3.1136    0.2155 C.ar      1 RES1    0.0000
     11 H5        -0.1999    2.6468    0.7397 H         1 RES1    0.0000
     12 C7         1.3086    4.0622    2.2937 C.2       1 RES1    0.0000
     13 C8         0.1913    3.5406    3.0165 C.1       1 RES1    0.0000
     14 N1        -0.7469    3.1565    3.5517 N.1       1 RES1    0.0000
     15 N2         2.2287    4.6578    3.0257 N.pl3     1 RES1    0.0000
     16 O1         3.2694    5.2268    2.6903 O.2       1 RES1    0.0000
     17 O2         1.9947    4.5685    4.4571 O.3       1 RES1    0.0000
     18 C9         1.3896    5.7206    4.9552 C.2       1 RES1    0.0000
     19 O3         1.0553    6.6224    4.2383 O.2       1 RES1    0.0000
     20 C10        1.2259    5.6230    6.4159 C.ar      1 RES1    0.0000
     21 C11        0.4575    6.5945    7.0473 C.ar      1 RES1    0.0000
     22 H6         0.0327    7.2724    6.5352 H         1 RES1    0.0000
     23 C12        0.3153    6.5726    8.4172 C.ar      1 RES1    0.0000
     24 H7        -0.2068    7.2385    8.8491 H         1 RES1    0.0000
     25 C13        0.9270    5.5852    9.1664 C.ar      1 RES1    0.0000
     26 H8         0.8305    5.5782   10.1116 H         1 RES1    0.0000
     27 C14        1.6799    4.6077    8.5410 C.ar      1 RES1    0.0000
     28 H9         2.0934    3.9259    9.0572 H         1 RES1    0.0000
     29 C15        1.8315    4.6197    7.1666 C.ar      1 RES1    0.0000
     30 H10        2.3467    3.9468    6.7374 H         1 RES1    0.0000
@<TRIPOS>BOND
     1    1    2 ar
     2    2    3 1
     3    4    2 ar
     4    5    4 1
     5    6    4 ar
     6    7    6 1
     7    8    6 ar
     8    9    8 1
     9   10    1 ar
    10   11   10 1
    11   12    1 1
    12   13   12 1
    13   14   13 3
    14   15   12 2
    15   16   15 1
    16   17   15 1
    17   18   17 1
    18   19   18 2
    19   20   18 1
    20   21   20 ar
    21   22   21 1
    22   23   21 ar
    23   24   23 1
    24   25   23 ar
    25   26   25 1
    26   27   25 ar
    27   28   27 1
    28   29   20 ar
    29   30   29 1
    30    8   10 ar
    31   27   29 ar
@<TRIPOS>SUBSTRUCTURE
     1 RES1 1

@<TRIPOS>CRYSIN
   8.6150    9.9540   29.6840  90.0000  90.0000  90.0000  61 1

