# MOL2 file generated by ConQuest
# Please check atom types

@<TRIPOS>MOLECULE
TEMWUD
    13    13     1
SMALL
NO_CHARGES
****
Generated from CSD

@<TRIPOS>ATOM
      1 O1         2.1848    3.0171   -1.0381 O.3       1 RES1    0.0000
      2 O2         6.6903    4.4295   -2.2587 O.3       1 RES1    0.0000
      3 O3         2.7422    5.4546   -1.5871 O.2       1 RES1    0.0000
      4 O4         4.7241    6.0778   -2.1513 O.2       1 RES1    0.0000
      5 N1         3.9324    5.1865   -1.8007 N.pl3     1 RES1    0.0000
      6 C1         4.3963    3.8440   -1.6553 C.ar      1 RES1    0.0000
      7 C2         3.4882    2.8215   -1.2781 C.ar      1 RES1    0.0000
      8 C3         3.9514    1.5213   -1.1461 C.ar      1 RES1    0.0000
      9 C4         5.2857    1.2349   -1.3818 C.ar      1 RES1    0.0000
     10 C5         6.1848    2.2142   -1.7533 C.ar      1 RES1    0.0000
     11 C6         5.7650    3.5289   -1.8948 C.ar      1 RES1    0.0000
     12 H1         2.0536    3.8277   -1.1499 H         1 RES1    0.0000
     13 H2         6.3148    5.2065   -2.3566 H         1 RES1    0.0000
@<TRIPOS>BOND
     1    1    7 1
     2    2   11 1
     3    3    5 2
     4    4    5 2
     5    5    6 1
     6    6    7 ar
     7    7    8 ar
     8    8    9 ar
     9    9   10 ar
    10   10   11 ar
    11   11    6 ar
    12   12    1 1
    13   13    2 1
@<TRIPOS>SUBSTRUCTURE
     1 RES1 1

@<TRIPOS>CRYSIN
   7.0830    7.6960    6.6070  74.6100  77.8100  68.6400   2 1

