# MOL2 file generated by ConQuest
# Please check atom types

@<TRIPOS>MOLECULE
TENJAX01
    40    40     2
SMALL
NO_CHARGES
****
Generated from CSD

@<TRIPOS>ATOM
      1 N1        -0.2494    5.8899    6.1351 N.2       1 RES1    0.0000
      2 O1        -0.1718    6.6514    7.0576 O.2       1 RES1    0.0000
      3 N2        -0.3320    6.6847    6.3758 Du        2 SUP2    0.0000
      4 O2         0.0576    5.5083    6.5818 Du        2 SUP2    0.0000
      5 N3        -0.6541    6.6208    5.0376 N.3       1 RES1    0.0000
      6 C1        -0.7118    5.6045    3.9637 C.3       1 RES1    0.0000
      7 C2        -2.0657    5.7393    3.2960 C.3       1 RES1    0.0000
      8 C3        -2.4765    7.1573    2.9688 C.3       1 RES1    0.0000
      9 C4        -2.4635    8.0011    4.2120 C.3       1 RES1    0.0000
     10 C5        -1.0891    7.9932    4.8721 C.3       1 RES1    0.0000
     11 C6         0.5346    5.6833    3.1014 C.ar      1 RES1    0.0000
     12 C7         1.7613    5.3358    3.6713 C.ar      1 RES1    0.0000
     13 C8         2.8984    5.3525    2.9077 C.ar      1 RES1    0.0000
     14 C9         2.8772    5.6571    1.6034 C.ar      1 RES1    0.0000
     15 C10        1.6638    5.9538    1.0006 C.ar      1 RES1    0.0000
     16 C11        0.5162    5.9687    1.7529 C.ar      1 RES1    0.0000
     17 C12       -0.0348    8.8475    4.1462 C.ar      1 RES1    0.0000
     18 C13        1.3163    8.6016    4.3869 C.ar      1 RES1    0.0000
     19 C14        2.2876    9.4086    3.8010 C.ar      1 RES1    0.0000
     20 C15        1.9441   10.4511    3.0074 C.ar      1 RES1    0.0000
     21 C16        0.6101   10.7032    2.7581 C.ar      1 RES1    0.0000
     22 C17       -0.3617    9.9207    3.3497 C.ar      1 RES1    0.0000
     23 H1        -0.6803    4.7380    4.3747 H         1 RES1    0.0000
     24 H2        -2.7573    5.3113    3.8057 H         1 RES1    0.0000
     25 H3        -1.9993    5.2903    2.4497 H         1 RES1    0.0000
     26 H4        -3.3452    7.2002    2.5635 H         1 RES1    0.0000
     27 H5        -1.8483    7.5442    2.3547 H         1 RES1    0.0000
     28 H6        -2.7557    8.8948    4.0183 H         1 RES1    0.0000
     29 H7        -3.0782    7.6151    4.8402 H         1 RES1    0.0000
     30 H8        -1.1765    8.3880    5.7429 H         1 RES1    0.0000
     31 H9         1.8318    5.1223    4.6051 H         1 RES1    0.0000
     32 H10        3.7484    5.1380    3.2989 H         1 RES1    0.0000
     33 H11        3.7080    5.6868    1.1238 H         1 RES1    0.0000
     34 H12        1.6367    6.1630    0.0639 H         1 RES1    0.0000
     35 H13       -0.3185    6.1805    1.3278 H         1 RES1    0.0000
     36 H14        1.5645    7.8584    4.9408 H         1 RES1    0.0000
     37 H15        3.2126    9.2598    4.0117 H         1 RES1    0.0000
     38 H16        2.6393   10.9876    2.6180 H         1 RES1    0.0000
     39 H17        0.3695   11.4253    2.1732 H         1 RES1    0.0000
     40 H18       -1.2926   10.0983    3.1926 H         1 RES1    0.0000
@<TRIPOS>BOND
     1    1    2 2
     2    5    1 1
     3    6    5 1
     4    7    6 1
     5    8    7 1
     6    9    8 1
     7   10    5 1
     8   11    6 1
     9   12   11 ar
    10   13   12 ar
    11   14   13 ar
    12   15   14 ar
    13   16   11 ar
    14   17   10 1
    15   18   17 ar
    16   19   18 ar
    17   20   19 ar
    18   21   20 ar
    19   22   17 ar
    20   23    6 1
    21   24    7 1
    22   25    7 1
    23   26    8 1
    24   27    8 1
    25   28    9 1
    26   29    9 1
    27   30   10 1
    28   31   12 1
    29   32   13 1
    30   33   14 1
    31   34   15 1
    32   35   16 1
    33   36   18 1
    34   37   19 1
    35   38   20 1
    36   39   21 1
    37   40   22 1
    38    9   10 1
    39   15   16 ar
    40   21   22 ar
@<TRIPOS>SUBSTRUCTURE
     1 RES1 1
     2 SUP2 3

