# MOL2 file generated by ConQuest
# Please check atom types

@<TRIPOS>MOLECULE
TENJAX
    40    40     2
SMALL
NO_CHARGES
****
Generated from CSD

@<TRIPOS>ATOM
      1 O1         3.9738    9.8188    3.7599 O.2       1 RES1    0.0000
      2 N1         4.9922    9.9730    3.1287 N.2       1 RES1    0.0000
      3 O2         4.8522   10.7667    2.7482 Du        2 SUP2    0.0000
      4 N2         4.7952    9.7380    3.4007 Du        2 SUP2    0.0000
      5 N3         5.8804    8.9913    3.2718 N.3       1 RES1    0.0000
      6 C1         7.0917    9.2053    2.4457 C.3       1 RES1    0.0000
      7 C2         8.2991    9.0981    3.3236 C.3       1 RES1    0.0000
      8 C3         8.2993    7.9034    4.2511 C.3       1 RES1    0.0000
      9 C4         7.0193    7.8680    5.0711 C.3       1 RES1    0.0000
     10 C5         5.7722    7.8781    4.2166 C.3       1 RES1    0.0000
     11 C6         7.0561    8.3010    1.2097 C.ar      1 RES1    0.0000
     12 C7         6.0616    8.4896    0.2933 C.ar      1 RES1    0.0000
     13 C8         5.9722    7.6893   -0.8423 C.ar      1 RES1    0.0000
     14 C9         6.9014    6.7387   -1.0777 C.ar      1 RES1    0.0000
     15 C10        7.9157    6.5673   -0.1979 C.ar      1 RES1    0.0000
     16 C11        8.0028    7.3492    0.9418 C.ar      1 RES1    0.0000
     17 C12        5.4176    6.6027    3.5001 C.ar      1 RES1    0.0000
     18 C13        4.3842    6.5829    2.6000 C.ar      1 RES1    0.0000
     19 C14        3.9991    5.4082    1.9688 C.ar      1 RES1    0.0000
     20 C15        4.6410    4.2399    2.2438 C.ar      1 RES1    0.0000
     21 C16        5.6492    4.2385    3.1419 C.ar      1 RES1    0.0000
     22 C17        6.0282    5.3733    3.7731 C.ar      1 RES1    0.0000
     23 H1         7.0195   10.1104    2.1281 H         1 RES1    0.0000
     24 H2         9.0890    9.0951    2.7806 H         1 RES1    0.0000
     25 H3         8.3280    9.8881    3.8695 H         1 RES1    0.0000
     26 H4         8.3919    7.1096    3.7173 H         1 RES1    0.0000
     27 H5         9.0593    7.9609    4.8326 H         1 RES1    0.0000
     28 H6         6.9844    8.6065    5.6830 H         1 RES1    0.0000
     29 H7         7.0417    7.0550    5.5836 H         1 RES1    0.0000
     30 H8         5.0292    8.0712    4.7910 H         1 RES1    0.0000
     31 H9         5.4071    9.1749    0.4486 H         1 RES1    0.0000
     32 H10        5.2830    7.8269   -1.4948 H         1 RES1    0.0000
     33 H11        6.8009    6.1343   -1.8165 H         1 RES1    0.0000
     34 H12        8.5821    5.9069   -0.3998 H         1 RES1    0.0000
     35 H13        8.7639    7.2604    1.5172 H         1 RES1    0.0000
     36 H14        3.9423    7.4152    2.4122 H         1 RES1    0.0000
     37 H15        3.2924    5.4240    1.3213 H         1 RES1    0.0000
     38 H16        4.3601    3.4170    1.8338 H         1 RES1    0.0000
     39 H17        6.1312    3.4247    3.3144 H         1 RES1    0.0000
     40 H18        6.7331    5.3570    4.4236 H         1 RES1    0.0000
@<TRIPOS>BOND
     1    1    2 2
     2    2    5 1
     3    5    6 1
     4    6    7 1
     5    7    8 1
     6    8    9 1
     7    9   10 1
     8   10    5 1
     9   11    6 1
    10   12   11 ar
    11   13   12 ar
    12   14   13 ar
    13   15   14 ar
    14   16   11 ar
    15   17   10 1
    16   18   17 ar
    17   19   18 ar
    18   20   19 ar
    19   21   20 ar
    20   22   17 ar
    21   23    6 1
    22   24    7 1
    23   25    7 1
    24   26    8 1
    25   27    8 1
    26   28    9 1
    27   29    9 1
    28   30   10 1
    29   31   12 1
    30   32   13 1
    31   33   14 1
    32   34   15 1
    33   35   16 1
    34   36   18 1
    35   37   19 1
    36   38   20 1
    37   39   21 1
    38   40   22 1
    39   15   16 ar
    40   21   22 ar
@<TRIPOS>SUBSTRUCTURE
     1 RES1 1
     2 SUP2 3

@<TRIPOS>CRYSIN
   7.5470    9.5060   10.3740  80.9200  81.9200  87.8300   2 1

