# MOL2 file generated by ConQuest
# Please check atom types

@<TRIPOS>MOLECULE
TENTOY
    15    16     1
SMALL
NO_CHARGES
****
Generated from CSD

@<TRIPOS>ATOM
      1 O1         7.3239    3.3987    3.3788 O.2       1 RES1    0.0000
      2 O2         5.2077    3.1600    2.9473 O.2       1 RES1    0.0000
      3 N1         6.2531    2.7881    3.4901 N.pl3     1 RES1    0.0000
      4 C1         6.2422    1.6217    4.2922 C.2       1 RES1    0.0000
      5 C2         5.1028    0.8423    4.4967 C.2       1 RES1    0.0000
      6 N2         3.9141    1.0132    3.9606 N.3       1 RES1    0.0000
      7 H1         3.7744    1.6813    3.4043 H         1 RES1    0.0000
      8 H2         3.2583    0.4601    4.1577 H         1 RES1    0.0000
      9 N3         5.1100   -0.3064    5.3615 N.2       1 RES1    0.0000
     10 N4         6.1642   -0.7106    5.9426 N.2       1 RES1    0.0000
     11 C3         7.3197    0.0054    5.7300 C.2       1 RES1    0.0000
     12 N5         8.4798   -0.2989    6.2679 N.2       1 RES1    0.0000
     13 O3         9.3169    0.6697    5.8208 O.3       1 RES1    0.0000
     14 N6         8.6708    1.6050    4.9793 N.2       1 RES1    0.0000
     15 C4         7.4246    1.1809    4.9397 C.2       1 RES1    0.0000
@<TRIPOS>BOND
     1    1    3 2
     2    2    3 2
     3    3    4 1
     4    4    5 2
     5    5    6 1
     6    6    7 1
     7    8    6 1
     8    9    5 1
     9   10    9 2
    10   11   10 1
    11   12   11 2
    12   13   12 1
    13   14   13 1
    14   15    4 1
    15   11   15 1
    16   14   15 2
@<TRIPOS>SUBSTRUCTURE
     1 RES1 1

@<TRIPOS>CRYSIN
  13.4067    5.3751    9.2125  90.0000  91.1210  90.0000   9 1

