# MOL2 file generated by ConQuest
# Please check atom types

@<TRIPOS>MOLECULE
TENTUE
    32    32     2
SMALL
USER_CHARGES
****
Generated from CSD

@<TRIPOS>ATOM
      1 O1         7.3883    1.9221   11.5360 O.2       1 RES1    0.0000
      2 O2         5.2769    2.2656   11.8666 O.2       1 RES1    0.0000
      3 N1         6.3507    2.5291   11.3071 N.pl3     1 RES1    0.0000
      4 N2         6.4449    3.5118   10.3399 N.2       1 RES1    0.0000
      5 C1         5.4215    4.3181   10.1879 C.2       1 RES1    0.0000
      6 N3         4.2820    4.4369   10.8422 N.3       1 RES1    0.0000
      7 H1         4.1078    3.9068   11.5215 H         1 RES1    0.0000
      8 H2         3.6969    5.0470   10.5993 H         1 RES1    0.0000
      9 C2         5.6724    5.2744    9.0972 C.2       1 RES1    0.0000
     10 C3         6.6892    5.3142    8.1015 C.2       1 RES1    0.0000
     11 C4         7.7488    4.3775    7.8479 C.1       1 RES1    0.0000
     12 N4         8.6056    3.6788    7.5867 N.1       1 RES1    0.0000
     13 N5         6.5687    6.3420    7.3073 N.2       1 RES1    0.0000
     14 O3         5.4708    7.0407    7.7309 O.3       1 RES1    0.0000
     15 N6         4.9076    6.3303    8.8508 N.pl3     1 RES1    1.0000
     16 O4         3.8448    6.7830    9.3547 O.2       1 RES1   -1.0000
     17 O5         2.9310    3.0390   13.1448 O.2       2 RES2    0.0000
     18 O6         0.8229    3.3714   13.4639 O.2       2 RES2    0.0000
     19 N7         1.8660    2.7623   13.6991 N.pl3     2 RES2    0.0000
     20 N8         1.7542    1.7933   14.6693 N.2       2 RES2    0.0000
     21 C5         2.8028    0.9589   14.8142 C.2       2 RES2    0.0000
     22 N9         3.9336    0.8619   14.1559 N.3       2 RES2    0.0000
     23 H3         4.1012    1.4090   13.4884 H         2 RES2    0.0000
     24 H4         4.5230    0.2497   14.3831 H         2 RES2    0.0000
     25 C6         2.5420    0.0095   15.9009 C.2       2 RES2    0.0000
     26 C7         1.5351   -0.0286   16.9019 C.2       2 RES2    0.0000
     27 C8         0.4602    0.8853   17.1495 C.1       2 RES2    0.0000
     28 N10       -0.4087    1.5919   17.3997 N.1       2 RES2    0.0000
     29 N11        1.6786   -1.0676   17.6984 N.2       2 RES2    0.0000
     30 O7         2.7732   -1.7424   17.2785 O.3       2 RES2    0.0000
     31 N12        3.3331   -1.0374   16.1318 N.pl3     2 RES2    1.0000
     32 O8         4.3192   -1.4689   15.6497 O.2       2 RES2   -1.0000
@<TRIPOS>BOND
     1    1    3 2
     2    2    3 2
     3    3    4 1
     4    4    5 2
     5    5    6 1
     6    6    7 1
     7    8    6 1
     8    9    5 1
     9   10    9 1
    10   11   10 1
    11   12   11 3
    12   13   10 2
    13   14   13 1
    14   15    9 2
    15   16   15 1
    16   17   19 2
    17   18   19 2
    18   19   20 1
    19   20   21 2
    20   21   22 1
    21   22   23 1
    22   24   22 1
    23   25   21 1
    24   26   25 1
    25   27   26 1
    26   28   27 3
    27   29   26 2
    28   30   29 1
    29   31   25 2
    30   32   31 1
    31   14   15 1
    32   30   31 1
@<TRIPOS>SUBSTRUCTURE
     1 RES1 1
     2 RES2 17

@<TRIPOS>CRYSIN
  10.9570    5.3009   24.9924  90.0000  90.0000  90.0000  33 1

