# MOL2 file generated by ConQuest
# Please check atom types

@<TRIPOS>MOLECULE
TENVAM
    32    34     2
SMALL
USER_CHARGES
****
Generated from CSD

@<TRIPOS>ATOM
      1 O1         9.5733    6.3298    3.6427 O.2       1 RES1    0.0000
      2 O2        11.6499    6.2340    4.3387 O.2       1 RES1    0.0000
      3 N1        10.7896    6.6075    3.5175 N.pl3     1 RES1    0.0000
      4 C1        11.1576    7.4058    2.4327 C.2       1 RES1    0.0000
      5 C2        12.4986    7.7426    2.1454 C.2       1 RES1    0.0000
      6 N2        13.5532    7.3761    2.8609 N.3       1 RES1    0.0000
      7 H1        14.3578    7.6384    2.6226 H         1 RES1    0.0000
      8 H2        13.4463    6.8717    3.5738 H         1 RES1    0.0000
      9 N3        12.8794    8.5344    1.0664 N.2       1 RES1    0.0000
     10 N4        11.9802    9.0106    0.2741 N.pl3     1 RES1    1.0000
     11 O3        12.3125    9.7432   -0.6892 O.2       1 RES1   -1.0000
     12 C3        10.6099    8.7442    0.5008 C.2       1 RES1    0.0000
     13 N5         9.6347    9.1878   -0.2410 N.2       1 RES1    0.0000
     14 O4         8.5432    8.6415    0.3751 O.3       1 RES1    0.0000
     15 N6         8.8675    7.8512    1.4878 N.2       1 RES1    0.0000
     16 C4        10.1887    7.9323    1.5467 C.2       1 RES1    0.0000
     17 O5        12.4028   11.3619    1.6141 O.2       2 RES2    0.0000
     18 O6        13.8426   12.5411    2.7573 O.2       2 RES2    0.0000
     19 N7        12.6837   12.1056    2.5637 N.pl3     2 RES2    0.0000
     20 C5        11.6577   12.4629    3.4412 C.2       2 RES2    0.0000
     21 C6        11.8265   13.3148    4.5402 C.2       2 RES2    0.0000
     22 N8        12.9703   13.8816    4.9085 N.3       2 RES2    0.0000
     23 H3        12.9977   14.3927    5.6256 H         2 RES2    0.0000
     24 H4        13.7006   13.7470    4.4355 H         2 RES2    0.0000
     25 N9        10.8116   13.6589    5.4230 N.2       2 RES2    0.0000
     26 N10        9.5953   13.2451    5.1747 N.pl3     2 RES2    1.0000
     27 O7         8.6747   13.5812    5.9555 O.2       2 RES2   -1.0000
     28 C7         9.3376   12.3976    4.1009 C.2       2 RES2    0.0000
     29 N11        8.1429   11.9005    3.7895 N.2       2 RES2    0.0000
     30 O8         8.4204   11.1502    2.6942 O.3       2 RES2    0.0000
     31 N12        9.7904   11.1909    2.3022 N.2       2 RES2    0.0000
     32 C8        10.3319   11.9779    3.2208 C.2       2 RES2    0.0000
@<TRIPOS>BOND
     1    1    3 2
     2    2    3 2
     3    3    4 1
     4    4    5 2
     5    5    6 1
     6    6    7 1
     7    8    6 1
     8    9    5 1
     9   10    9 2
    10   11   10 1
    11   12   10 1
    12   13   12 2
    13   14   13 1
    14   15   14 1
    15   16    4 1
    16   17   19 2
    17   18   19 2
    18   19   20 1
    19   20   21 2
    20   21   22 1
    21   22   23 1
    22   24   22 1
    23   25   21 1
    24   26   25 2
    25   27   26 1
    26   28   26 1
    27   29   28 2
    28   30   29 1
    29   31   30 1
    30   32   20 1
    31   12   16 1
    32   15   16 2
    33   28   32 1
    34   31   32 2
@<TRIPOS>SUBSTRUCTURE
     1 RES1 1
     2 RES2 17

@<TRIPOS>CRYSIN
  28.5727   36.6880    5.2610  90.0000  90.0000  90.0000  43 1

