# MOL2 file generated by ConQuest
# Please check atom types

@<TRIPOS>MOLECULE
TENZUJ
    14    14     1
SMALL
NO_CHARGES
****
Generated from CSD

@<TRIPOS>ATOM
      1 N1         1.8806    0.6414    2.2072 N.2       1 RES1    0.0000
      2 N2         0.7571    1.2942    2.2019 N.pl3     1 RES1    0.0000
      3 H1         0.0622    0.9876    1.7996 H         1 RES1    0.0000
      4 N3         0.7301    2.4579    2.8473 N.2       1 RES1    0.0000
      5 C1         1.9648    2.5531    3.3253 C.2       1 RES1    0.0000
      6 C2         2.6720    1.4332    2.9107 C.2       1 RES1    0.0000
      7 N4         2.4815    3.6168    4.0358 N.pl3     1 RES1    0.0000
      8 H2         3.3330    3.6449    4.1512 H         1 RES1    0.0000
      9 N5         1.7449    4.6139    4.5632 N.pl3     1 RES1    0.0000
     10 O1         0.5579    4.6439    4.3440 O.2       1 RES1    0.0000
     11 O2         2.3744    5.4332    5.2130 O.2       1 RES1    0.0000
     12 N6         4.0283    1.0882    3.1581 N.pl3     1 RES1    0.0000
     13 O3         4.4934    0.1096    2.6245 O.2       1 RES1    0.0000
     14 O4         4.6267    1.8266    3.9276 O.2       1 RES1    0.0000
@<TRIPOS>BOND
     1    1    2 1
     2    2    3 1
     3    4    2 1
     4    5    4 2
     5    6    1 2
     6    7    5 1
     7    8    7 1
     8    9    7 1
     9   10    9 2
    10   11    9 2
    11   12    6 1
    12   13   12 2
    13   14   12 2
    14    5    6 1
@<TRIPOS>SUBSTRUCTURE
     1 RES1 1

@<TRIPOS>CRYSIN
  11.4300    5.9890    8.9150  90.0000  99.0430  90.0000  14 1

