# MOL2 file generated by ConQuest
# Please check atom types

@<TRIPOS>MOLECULE
TEPCOJ
   102   108     2
SMALL
NO_CHARGES
****
Generated from CSD

@<TRIPOS>ATOM
      1 O1         2.0402   10.7899   10.6749 O.2       1 RES1    0.0000
      2 O2         3.5523    9.2745   10.4256 O.2       1 RES1    0.0000
      3 N1         2.9904   10.3205   10.0676 N.pl3     1 RES1    0.0000
      4 O3         2.5829   14.4519    5.8606 O.2       1 RES1    0.0000
      5 O4         1.2060   14.0956    7.4975 O.2       1 RES1    0.0000
      6 N2         5.3888    9.5760    8.5999 N.pl3     1 RES1    0.0000
      7 H1         5.1207    9.0552    9.2567 H         1 RES1    0.0000
      8 N3         6.6034    9.3502    7.9819 N.2       1 RES1    0.0000
      9 N4         2.2255   13.8439    6.8709 N.pl3     1 RES1    0.0000
     10 C1         3.4558   11.0013    8.8807 C.ar      1 RES1    0.0000
     11 C2         4.6222   10.5970    8.1889 C.ar      1 RES1    0.0000
     12 C3         9.8526    6.3424    6.4962 C.ar      1 RES1    0.0000
     13 C4         2.6956   12.0734    8.4558 C.ar      1 RES1    0.0000
     14 H2         1.9238   12.3369    8.9430 H         1 RES1    0.0000
     15 C5         7.2686    8.3648    8.4422 C.2       1 RES1    0.0000
     16 C6         4.1921   12.3796    6.6071 C.ar      1 RES1    0.0000
     17 H3         4.4362   12.8626    5.8264 H         1 RES1    0.0000
     18 C7         4.9456   11.3267    7.0175 C.ar      1 RES1    0.0000
     19 H4         5.7067   11.0738    6.5081 H         1 RES1    0.0000
     20 C8         3.0641   12.7506    7.3293 C.ar      1 RES1    0.0000
     21 C9        11.8083    6.1418    5.1120 C.ar      1 RES1    0.0000
     22 H5        12.3050    6.4027    4.3450 H         1 RES1    0.0000
     23 C10       10.0771    7.8930    4.5647 C.ar      1 RES1    0.0000
     24 C11       10.5903    6.7691    5.3836 C.ar      1 RES1    0.0000
     25 C12        8.7264    8.2449    4.6704 C.ar      1 RES1    0.0000
     26 C13       10.3857    5.3706    7.3283 C.ar      1 RES1    0.0000
     27 H6         9.9030    5.1040    8.1018 H         1 RES1    0.0000
     28 C14       11.5994    4.7850    7.0570 C.ar      1 RES1    0.0000
     29 H7        11.9517    4.1261    7.6435 H         1 RES1    0.0000
     30 C15        8.4991    6.9389    6.7963 C.3       1 RES1    0.0000
     31 H8         7.9337    6.2253    7.2094 H         1 RES1    0.0000
     32 C16       12.3041    5.1572    5.9290 C.ar      1 RES1    0.0000
     33 H9        13.1285    4.7335    5.7199 H         1 RES1    0.0000
     34 C17        8.5996    8.0981    7.7948 C.3       1 RES1    0.0000
     35 H10        9.2666    7.8767    8.4917 H         1 RES1    0.0000
     36 H11        8.9062    8.9133    7.3242 H         1 RES1    0.0000
     37 C18        6.8236    7.4525    9.5377 C.3       1 RES1    0.0000
     38 H12        6.7818    7.9509   10.3808 H         1 RES1    0.0000
     39 H13        7.4600    6.7132    9.6263 H         1 RES1    0.0000
     40 H14        5.9357    7.0961    9.3251 H         1 RES1    0.0000
     41 C19        7.8230    7.3871    5.5162 C.3       1 RES1    0.0000
     42 H15        7.5510    6.5895    4.9961 H         1 RES1    0.0000
     43 H16        7.0058    7.8972    5.7413 H         1 RES1    0.0000
     44 C20       10.9097    8.6500    3.7338 C.ar      1 RES1    0.0000
     45 H17       11.8234    8.4095    3.6399 H         1 RES1    0.0000
     46 C21        8.2573    9.3554    3.9839 C.ar      1 RES1    0.0000
     47 H18        7.3444    9.6070    4.0650 H         1 RES1    0.0000
     48 C22       10.4177    9.7421    3.0490 C.ar      1 RES1    0.0000
     49 H19       10.9913   10.2453    2.4835 H         1 RES1    0.0000
     50 C23        9.1015   10.1008    3.1842 C.ar      1 RES1    0.0000
     51 H20        8.7690   10.8638    2.7264 H         1 RES1    0.0000
     52 O5         3.6398    9.1583   15.7019 O.2       2 RES2    0.0000
     53 O6         3.3294   10.3027   13.8942 O.2       2 RES2    0.0000
     54 O7        -0.3662    9.1783   11.1392 O.2       2 RES2    0.0000
     55 O8        -1.0676    7.1467   10.9761 O.2       2 RES2    0.0000
     56 N5        -0.5369    5.4646   12.8864 N.pl3     2 RES2    0.0000
     57 H21       -1.0857    5.6299   12.2186 H         2 RES2    0.0000
     58 N6        -0.3699    8.0205   11.5195 N.pl3     2 RES2    0.0000
     59 N7         3.1140    9.3247   14.6001 N.pl3     2 RES2    0.0000
     60 N8        -0.5868    4.2470   13.5437 N.2       2 RES2    0.0000
     61 C24       -1.2412    1.6653   17.2963 C.ar      2 RES2    0.0000
     62 C25        0.4766    7.6465   12.6299 C.ar      2 RES2    0.0000
     63 C26        2.1775    8.3117   14.1313 C.ar      2 RES2    0.0000
     64 C27       -1.4611    2.9854   16.8756 C.ar      2 RES2    0.0000
     65 C28        1.3950    8.5970   13.0515 C.ar      2 RES2    0.0000
     66 H22        1.4768    9.4278   12.5983 H         2 RES2    0.0000
     67 C29       -2.8735    0.8271   15.6161 C.ar      2 RES2    0.0000
     68 C30       -2.1189    0.5911   16.7748 C.ar      2 RES2    0.0000
     69 C31        1.1970    6.1616   14.3880 C.ar      2 RES2    0.0000
     70 H23        1.1416    5.3329   14.8493 H         2 RES2    0.0000
     71 C32        0.3560    6.3941   13.2748 C.ar      2 RES2    0.0000
     72 C33       -0.2024    1.4131   18.1896 C.ar      2 RES2    0.0000
     73 H24       -0.0465    0.5251   18.4891 H         2 RES2    0.0000
     74 C34       -2.7825    2.1550   14.9179 C.3       2 RES2    0.0000
     75 H25       -3.6319    2.3085   14.4124 H         2 RES2    0.0000
     76 C35        2.0844    7.1012   14.8102 C.ar      2 RES2    0.0000
     77 H26        2.6368    6.9322   15.5643 H         2 RES2    0.0000
     78 C36       -0.6288    4.0002   17.3222 C.ar      2 RES2    0.0000
     79 H27       -0.7651    4.8898   17.0178 H         2 RES2    0.0000
     80 C37        0.6029    2.4384   18.6452 C.ar      2 RES2    0.0000
     81 H28        1.3014    2.2536   19.2625 H         2 RES2    0.0000
     82 C38       -3.0065   -1.6481   16.8497 C.ar      2 RES2    0.0000
     83 H29       -3.0432   -2.4982   17.2716 H         2 RES2    0.0000
     84 C39       -3.6841   -0.1906   15.1125 C.ar      2 RES2    0.0000
     85 H30       -4.2049   -0.0294   14.3345 H         2 RES2    0.0000
     86 C40       -2.6289    3.2628   15.9607 C.3       2 RES2    0.0000
     87 H31       -2.4897    4.1294   15.5026 H         2 RES2    0.0000
     88 H32       -3.4585    3.3288   16.4964 H         2 RES2    0.0000
     89 C41       -1.5382    3.4670   13.1863 C.2       2 RES2    0.0000
     90 C42       -2.2116   -0.6553   17.3812 C.ar      2 RES2    0.0000
     91 H33       -1.7195   -0.8262   18.1755 H         2 RES2    0.0000
     92 C43       -1.6166    2.1634   13.9270 C.3       2 RES2    0.0000
     93 H34       -0.7688    2.0126   14.4163 H         2 RES2    0.0000
     94 H35       -1.7308    1.4239   13.2789 H         2 RES2    0.0000
     95 C44       -3.7440   -1.4187   15.7185 C.ar      2 RES2    0.0000
     96 H36       -4.2921   -2.1050   15.3568 H         2 RES2    0.0000
     97 C45        0.3952    3.7273   18.2056 C.ar      2 RES2    0.0000
     98 H37        0.9580    4.4298   18.5111 H         2 RES2    0.0000
     99 C46       -2.5817    3.8204   12.1849 C.3       2 RES2    0.0000
    100 H38       -3.1086    4.5771   12.5156 H         2 RES2    0.0000
    101 H39       -3.1698    3.0500   12.0408 H         2 RES2    0.0000
    102 H40       -2.1519    4.0661   11.3389 H         2 RES2    0.0000
@<TRIPOS>BOND
     1    1    3 2
     2    2    3 2
     3    3   10 1
     4    4    9 2
     5    5    9 2
     6    6    7 1
     7    8    6 1
     8    9   20 1
     9   10   11 ar
    10   11    6 1
    11   12   24 ar
    12   13   10 ar
    13   14   13 1
    14   15    8 2
    15   16   17 1
    16   18   11 ar
    17   19   18 1
    18   20   13 ar
    19   21   22 1
    20   23   24 1
    21   24   21 ar
    22   25   23 ar
    23   26   12 ar
    24   27   26 1
    25   28   26 ar
    26   29   28 1
    27   30   12 1
    28   31   30 1
    29   32   21 ar
    30   33   32 1
    31   34   15 1
    32   35   34 1
    33   36   34 1
    34   37   15 1
    35   38   37 1
    36   39   37 1
    37   40   37 1
    38   41   25 1
    39   42   41 1
    40   43   41 1
    41   44   23 ar
    42   45   44 1
    43   46   25 ar
    44   47   46 1
    45   48   44 ar
    46   49   48 1
    47   50   46 ar
    48   51   50 1
    49   52   59 2
    50   53   59 2
    51   54   58 2
    52   55   58 2
    53   56   57 1
    54   58   62 1
    55   59   63 1
    56   60   56 1
    57   61   64 ar
    58   62   65 ar
    59   63   65 ar
    60   64   78 ar
    61   65   66 1
    62   67   68 ar
    63   68   61 1
    64   69   70 1
    65   71   56 1
    66   72   61 ar
    67   73   72 1
    68   74   67 1
    69   75   74 1
    70   76   63 ar
    71   77   76 1
    72   78   79 1
    73   80   72 ar
    74   81   80 1
    75   82   83 1
    76   84   67 ar
    77   85   84 1
    78   86   64 1
    79   87   86 1
    80   88   86 1
    81   89   60 2
    82   90   68 ar
    83   91   90 1
    84   92   74 1
    85   93   92 1
    86   94   92 1
    87   95   82 ar
    88   96   95 1
    89   97   78 ar
    90   98   97 1
    91   99   89 1
    92  100   99 1
    93  101   99 1
    94  102   99 1
    95   16   18 ar
    96   16   20 ar
    97   28   32 ar
    98   30   34 1
    99   30   41 1
   100   48   50 ar
   101   62   71 ar
   102   69   71 ar
   103   69   76 ar
   104   74   86 1
   105   80   97 ar
   106   82   90 ar
   107   84   95 ar
   108   89   92 1
@<TRIPOS>SUBSTRUCTURE
     1 RES1 1
     2 RES2 52

@<TRIPOS>CRYSIN
  11.2446   12.0609   15.7024 100.9700 105.5520  93.8430   2 1

