# MOL2 file generated by ConQuest
# Please check atom types

@<TRIPOS>MOLECULE
TEQNIO
    53    55     1
SMALL
NO_CHARGES
****
Generated from CSD

@<TRIPOS>ATOM
      1 O1        -4.4634    3.9614   11.7831 O.2       1 RES1    0.0000
      2 O2        -6.3299    8.1026    7.6674 O.2       1 RES1    0.0000
      3 O3        -5.6815    6.0265    7.2329 O.3       1 RES1    0.0000
      4 O4        -2.7015    7.7790   13.7213 O.2       1 RES1    0.0000
      5 O5        -2.2747    5.6502   13.2259 O.3       1 RES1    0.0000
      6 O6        -5.0447    6.6062   12.1959 O.3       1 RES1    0.0000
      7 H1        -5.1799    5.7978   12.2343 H         1 RES1    0.0000
      8 O7        -6.1353   13.0617    8.5627 O.2       1 RES1    0.0000
      9 O8        -4.5294   13.9264    7.4843 O.2       1 RES1    0.0000
     10 N1        -5.0380   12.9934    8.0637 N.pl3     1 RES1    0.0000
     11 C1        -1.8039    5.8116   10.2654 C.3       1 RES1    0.0000
     12 H2        -1.6706    6.4084    9.5123 H         1 RES1    0.0000
     13 H3        -1.2443    6.1064   11.0007 H         1 RES1    0.0000
     14 C2        -1.4703    4.3746    9.8787 C.3       1 RES1    0.0000
     15 H4        -1.6671    4.2204    8.9418 H         1 RES1    0.0000
     16 H5        -0.5308    4.1908   10.0334 H         1 RES1    0.0000
     17 C3        -2.3309    3.4976   10.7509 C.3       1 RES1    0.0000
     18 H6        -2.6399    2.7236   10.2540 H         1 RES1    0.0000
     19 H7        -1.8305    3.1908   11.5230 H         1 RES1    0.0000
     20 C4        -3.4915    4.3420   11.1801 C.2       1 RES1    0.0000
     21 C5        -3.2901    5.7895   10.6870 C.3       1 RES1    0.0000
     22 C6        -3.7105    6.8441   11.7377 C.3       1 RES1    0.0000
     23 C7        -3.6793    8.2238   11.1102 C.3       1 RES1    0.0000
     24 H8        -2.7726    8.4194   10.8270 H         1 RES1    0.0000
     25 H9        -3.9262    8.8788   11.7817 H         1 RES1    0.0000
     26 C8        -4.6175    8.3727    9.9038 C.3       1 RES1    0.0000
     27 H10       -5.5077    8.6083   10.2388 H         1 RES1    0.0000
     28 C9        -4.7404    7.0934    9.1119 C.2       1 RES1    0.0000
     29 C10       -4.1583    5.9573    9.4662 C.2       1 RES1    0.0000
     30 H11       -4.2946    5.2129    8.9253 H         1 RES1    0.0000
     31 C11       -5.6508    7.1500    7.9397 C.2       1 RES1    0.0000
     32 C12       -6.5977    6.0178    6.1121 C.3       1 RES1    0.0000
     33 H12       -6.2606    6.5899    5.4186 H         1 RES1    0.0000
     34 H13       -7.4570    6.3365    6.3986 H         1 RES1    0.0000
     35 H14       -6.6840    5.1237    5.7761 H         1 RES1    0.0000
     36 C13       -2.8325    6.8385   12.9939 C.2       1 RES1    0.0000
     37 C14       -1.4213    5.5508   14.3944 C.3       1 RES1    0.0000
     38 H15       -1.9336    5.7335   15.1971 H         1 RES1    0.0000
     39 H16       -0.7011    6.1980   14.3376 H         1 RES1    0.0000
     40 C15       -0.8698    4.1782   14.4428 C.3       1 RES1    0.0000
     41 H17       -0.3387    4.0193   13.6593 H         1 RES1    0.0000
     42 H18       -1.5902    3.5448   14.4757 H         1 RES1    0.0000
     43 H19       -0.3225    4.0801   15.2263 H         1 RES1    0.0000
     44 C16       -4.1213    9.5230    9.0340 C.ar      1 RES1    0.0000
     45 C17       -2.9051    9.4133    8.3793 C.ar      1 RES1    0.0000
     46 H20       -2.4290    8.6165    8.4397 H         1 RES1    0.0000
     47 C18       -2.3805   10.4544    7.6409 C.ar      1 RES1    0.0000
     48 H21       -1.5600   10.3548    7.2138 H         1 RES1    0.0000
     49 C19       -3.0718   11.6412    7.5354 C.ar      1 RES1    0.0000
     50 H22       -2.7298   12.3545    7.0464 H         1 RES1    0.0000
     51 C20       -4.2838   11.7347    8.1771 C.ar      1 RES1    0.0000
     52 C21       -4.8268   10.7073    8.9275 C.ar      1 RES1    0.0000
     53 H23       -5.6482   10.8107    9.3513 H         1 RES1    0.0000
@<TRIPOS>BOND
     1    1   20 2
     2    2   31 2
     3    3   31 1
     4    4   36 2
     5    5   36 1
     6    6    7 1
     7    8   10 2
     8    9   10 2
     9   10   51 1
    10   11   12 1
    11   13   11 1
    12   14   11 1
    13   15   14 1
    14   16   14 1
    15   17   14 1
    16   18   17 1
    17   19   17 1
    18   20   17 1
    19   21   11 1
    20   22    6 1
    21   23   22 1
    22   24   23 1
    23   25   23 1
    24   26   23 1
    25   27   26 1
    26   28   26 1
    27   29   21 1
    28   30   29 1
    29   31   28 1
    30   32    3 1
    31   33   32 1
    32   34   32 1
    33   35   32 1
    34   36   22 1
    35   37    5 1
    36   38   37 1
    37   39   37 1
    38   40   37 1
    39   41   40 1
    40   42   40 1
    41   43   40 1
    42   44   26 1
    43   45   44 ar
    44   46   45 1
    45   47   45 ar
    46   48   47 1
    47   49   47 ar
    48   50   49 1
    49   51   49 ar
    50   52   44 ar
    51   53   52 1
    52   20   21 1
    53   21   22 1
    54   28   29 2
    55   51   52 ar
@<TRIPOS>SUBSTRUCTURE
     1 RES1 1

@<TRIPOS>CRYSIN
   6.2700   13.0333   13.3502 104.0130  97.8030 103.7120   2 1

