# MOL2 file generated by ConQuest
# Please check atom types

@<TRIPOS>MOLECULE
TERDOJ
    40    43     1
SMALL
NO_CHARGES
****
Generated from CSD

@<TRIPOS>ATOM
      1 O1         2.5078    2.7126    0.0784 O.2       1 RES1    0.0000
      2 O2         0.7029    2.2883    1.3835 O.3       1 RES1    0.0000
      3 N1        -1.6616    1.5744    1.8170 N.pl3     1 RES1    0.0000
      4 N2        -2.0059    0.3350    2.3265 N.2       1 RES1    0.0000
      5 N3        -2.2229    0.4645    3.6016 N.2       1 RES1    0.0000
      6 N4        -0.0291    2.0620    0.1868 N.2       1 RES1    0.0000
      7 C1        -1.2061    1.6682    0.4865 C.2       1 RES1    0.0000
      8 C2         2.0278    2.6262    1.1759 C.2       1 RES1    0.0000
      9 C3        -2.0132    1.7828    3.9706 C.ar      1 RES1    0.0000
     10 C4        -2.1011    2.4104    5.1995 C.ar      1 RES1    0.0000
     11 C5        -1.8441    3.7443    5.2572 C.ar      1 RES1    0.0000
     12 C6        -1.5214    4.4776    4.0997 C.ar      1 RES1    0.0000
     13 C7        -1.4145    3.8858    2.8592 C.ar      1 RES1    0.0000
     14 C8        -1.6617    2.4923    2.8361 C.ar      1 RES1    0.0000
     15 C9        -2.1522    1.2967   -0.5926 C.ar      1 RES1    0.0000
     16 C10       -3.5167    1.3288   -0.3482 C.ar      1 RES1    0.0000
     17 C11       -4.4055    0.9930   -1.3950 C.ar      1 RES1    0.0000
     18 C12       -3.9343    0.6685   -2.6125 C.ar      1 RES1    0.0000
     19 C13       -2.5825    0.6625   -2.8499 C.ar      1 RES1    0.0000
     20 C14       -1.6652    0.9640   -1.8631 C.ar      1 RES1    0.0000
     21 C15        2.6868    2.8845    2.4787 C.ar      1 RES1    0.0000
     22 C16        2.0316    2.7945    3.6800 C.ar      1 RES1    0.0000
     23 C17        2.7035    3.0439    4.8698 C.ar      1 RES1    0.0000
     24 C18        4.0497    3.4012    4.7937 C.ar      1 RES1    0.0000
     25 C19        4.6901    3.4756    3.5924 C.ar      1 RES1    0.0000
     26 C20        4.0210    3.2486    2.4303 C.ar      1 RES1    0.0000
     27 H1        -2.3543    1.8833    5.9028 H         1 RES1    0.0000
     28 H2        -1.7400    4.1835    5.9489 H         1 RES1    0.0000
     29 H3        -1.3908    5.3820    4.2657 H         1 RES1    0.0000
     30 H4        -1.1373    4.4068    1.8677 H         1 RES1    0.0000
     31 H5        -3.8515    1.6153    0.4842 H         1 RES1    0.0000
     32 H6        -5.3750    1.1538   -0.9915 H         1 RES1    0.0000
     33 H7        -4.5529    0.4541   -3.4587 H         1 RES1    0.0000
     34 H8        -2.2574    0.4541   -3.6662 H         1 RES1    0.0000
     35 H9        -0.6225    1.1315   -1.9599 H         1 RES1    0.0000
     36 H10        1.0811    2.5235    3.8045 H         1 RES1    0.0000
     37 H11        2.1632    2.9106    5.7875 H         1 RES1    0.0000
     38 H12        4.4470    3.5210    5.5108 H         1 RES1    0.0000
     39 H13        5.6092    3.6997    3.5970 H         1 RES1    0.0000
     40 H14        4.4635    3.1935    1.5679 H         1 RES1    0.0000
@<TRIPOS>BOND
     1    1    8 2
     2    2    6 1
     3    3    4 1
     4    4    5 2
     5    5    9 1
     6    6    7 2
     7    7    3 1
     8    8    2 1
     9    9   10 ar
    10   10   11 ar
    11   11   12 ar
    12   12   13 ar
    13   13   14 ar
    14   14    3 1
    15   15    7 1
    16   16   15 ar
    17   17   16 ar
    18   18   17 ar
    19   19   18 ar
    20   20   15 ar
    21   21    8 1
    22   22   21 ar
    23   23   22 ar
    24   24   23 ar
    25   25   24 ar
    26   26   21 ar
    27   27   10 1
    28   28   11 1
    29   29   12 1
    30   30   13 1
    31   31   16 1
    32   32   17 1
    33   33   18 1
    34   34   19 1
    35   35   20 1
    36   36   22 1
    37   37   23 1
    38   38   24 1
    39   39   25 1
    40   40   26 1
    41    9   14 ar
    42   19   20 ar
    43   25   26 ar
@<TRIPOS>SUBSTRUCTURE
     1 RES1 1

@<TRIPOS>CRYSIN
   9.8350    7.4440   23.2070  90.0000  96.5000  90.0000  14 1

