# MOL2 file generated by ConQuest
# Please check atom types

@<TRIPOS>MOLECULE
TERKUX
    76    78     2
SMALL
NO_CHARGES
****
Generated from CSD

@<TRIPOS>ATOM
      1 O1         2.6913   12.0532   10.3375 O.2       1 RES1    0.0000
      2 O2        -2.1011   10.5729   16.1584 O.3       2 RES2    0.0000
      3 O3         0.7511   16.6857   13.0812 O.2       2 RES2    0.0000
      4 O4         4.1081   19.9645    9.0013 O.2       2 RES2    0.0000
      5 O5         2.9016   20.3299   10.7571 O.2       2 RES2    0.0000
      6 C1         3.1399   18.1327   10.0360 C.ar      2 RES2    0.0000
      7 O6         8.4434    2.7618    2.7311 O.3       1 RES1    0.0000
      8 C2        -0.6360    9.9237   14.4815 C.ar      2 RES2    0.0000
      9 H1        -0.8462    9.0409   14.6876 H         2 RES2    0.0000
     10 C3         2.3995   17.6745   11.0954 C.ar      2 RES2    0.0000
     11 H2         2.0936   18.2686   11.7418 H         2 RES2    0.0000
     12 C4        -0.0299   12.5546   13.8327 C.ar      2 RES2    0.0000
     13 C5         2.1064   16.3135   11.1971 C.ar      2 RES2    0.0000
     14 O7         5.5819    8.8634    5.8324 O.2       1 RES1    0.0000
     15 C6         3.7845    7.5717    8.7177 C.ar      1 RES1    0.0000
     16 H3         3.8452    6.6564    8.5601 H         1 RES1    0.0000
     17 C7         6.1170    3.7117    6.0010 C.ar      1 RES1    0.0000
     18 H4         5.5874    3.8950    6.7437 H         1 RES1    0.0000
     19 O8         6.0601    1.4654    6.6259 O.3       1 RES1    0.0000
     20 C8         3.5800   10.2483    9.1853 C.ar      1 RES1    0.0000
     21 C9         4.3862    8.4620    7.8333 C.ar      1 RES1    0.0000
     22 C10        1.2722   15.8573   12.3535 C.2       2 RES2    0.0000
     23 C11        7.2763    2.1215    4.6331 C.ar      1 RES1    0.0000
     24 H5         7.5324    1.2461    4.4553 H         1 RES1    0.0000
     25 O9         4.0842   12.4691    8.7397 O.2       1 RES1    0.0000
     26 O10        0.9193    9.2435   12.7348 O.3       2 RES2    0.0000
     27 C12       -0.9320   12.2798   14.8681 C.ar      2 RES2    0.0000
     28 H6        -1.3299   12.9739   15.3405 H         2 RES2    0.0000
     29 N1         3.3992   19.5810    9.9283 N.pl3     2 RES2    0.0000
     30 N2         3.4445   11.6976    9.4340 N.pl3     1 RES1    0.0000
     31 C13        2.9915    9.3829   10.0683 C.ar      1 RES1    0.0000
     32 H7         2.5305    9.6980   10.8118 H         1 RES1    0.0000
     33 C14        4.2714    9.8302    8.0821 C.ar      1 RES1    0.0000
     34 H8         4.6591   10.4485    7.5064 H         1 RES1    0.0000
     35 C15        6.5188    4.7394    5.1679 C.ar      1 RES1    0.0000
     36 C16        5.1732    8.0298    6.6232 C.2       1 RES1    0.0000
     37 C17        7.6733    3.1540    3.7935 C.ar      1 RES1    0.0000
     38 C18        0.2618   13.9632   13.5182 C.2       2 RES2    0.0000
     39 H9        -0.1722   14.6031   14.0348 H         2 RES2    0.0000
     40 C19       -1.2245   10.9624   15.1808 C.ar      2 RES2    0.0000
     41 C20        6.1599    6.1372    5.4348 C.2       1 RES1    0.0000
     42 H10        6.4630    6.7672    4.8218 H         1 RES1    0.0000
     43 C21        5.4557    6.5987    6.4468 C.2       1 RES1    0.0000
     44 H11        5.1251    5.9961    7.0735 H         1 RES1    0.0000
     45 C22        7.3054    4.4600    4.0505 C.ar      1 RES1    0.0000
     46 H12        7.5798    5.1459    3.4841 H         1 RES1    0.0000
     47 C23        6.5016    2.4083    5.7298 C.ar      1 RES1    0.0000
     48 C24        2.5930   15.4678   10.2092 C.ar      2 RES2    0.0000
     49 H13        2.4121   14.5572   10.2598 H         2 RES2    0.0000
     50 C25        3.6214   17.2945    9.0551 C.ar      2 RES2    0.0000
     51 H14        4.1225   17.6273    8.3448 H         2 RES2    0.0000
     52 C26        3.3399   15.9493    9.1536 C.ar      2 RES2    0.0000
     53 H15        3.6550   15.3631    8.5052 H         2 RES2    0.0000
     54 C27        0.2624   10.2061   13.4782 C.ar      2 RES2    0.0000
     55 C28        1.0742   14.4136   12.5791 C.2       2 RES2    0.0000
     56 H16        1.5333   13.8051   12.0465 H         2 RES2    0.0000
     57 C29        0.5758   11.5175   13.1472 C.ar      2 RES2    0.0000
     58 H17        1.1880   11.6977   12.4703 H         2 RES2    0.0000
     59 C30        3.1031    8.0274    9.8200 C.ar      1 RES1    0.0000
     60 H18        2.7127    7.4179   10.4041 H         1 RES1    0.0000
     61 C31       -2.6559   11.5742   16.9982 C.3       2 RES2    0.0000
     62 H19       -1.9483   12.0524   17.4364 H         2 RES2    0.0000
     63 H20       -3.2199   11.1625   17.6563 H         2 RES2    0.0000
     64 H21       -3.1739   12.1854   16.4697 H         2 RES2    0.0000
     65 C32        6.4454    0.1102    6.4246 C.3       1 RES1    0.0000
     66 H22        6.1051   -0.1979    5.5823 H         1 RES1    0.0000
     67 H23        6.0882   -0.4323    7.1308 H         1 RES1    0.0000
     68 H24        7.4034    0.0459    6.4253 H         1 RES1    0.0000
     69 C33        8.9294    3.7511    1.8458 C.3       1 RES1    0.0000
     70 H25        8.1900    4.2101    1.4408 H         1 RES1    0.0000
     71 H26        9.4616    3.3361    1.1636 H         1 RES1    0.0000
     72 H27        9.4678    4.3795    2.3319 H         1 RES1    0.0000
     73 C34        0.6621    7.8773   13.0624 C.3       2 RES2    0.0000
     74 H28        0.8740    7.7235   13.9867 H         2 RES2    0.0000
     75 H29        1.2032    7.3087   12.5115 H         2 RES2    0.0000
     76 H30       -0.2659    7.6808   12.9101 H         2 RES2    0.0000
@<TRIPOS>BOND
     1    1   30 2
     2    2   40 1
     3    3   22 2
     4    4   29 2
     5    5   29 2
     6    6   10 ar
     7    7   37 1
     8    8    9 1
     9   10   11 1
    10   12   27 ar
    11   13   10 ar
    12   14   36 2
    13   15   16 1
    14   17   18 1
    15   19   47 1
    16   20   30 1
    17   21   15 ar
    18   22   13 1
    19   23   24 1
    20   25   30 2
    21   26   54 1
    22   27   28 1
    23   29    6 1
    24   31   20 ar
    25   32   31 1
    26   33   20 ar
    27   34   33 1
    28   35   17 ar
    29   36   21 1
    30   37   23 ar
    31   38   12 1
    32   39   38 1
    33   40    8 ar
    34   41   35 1
    35   42   41 1
    36   43   36 1
    37   44   43 1
    38   45   35 ar
    39   46   45 1
    40   47   17 ar
    41   48   13 ar
    42   49   48 1
    43   50    6 ar
    44   51   50 1
    45   52   48 ar
    46   53   52 1
    47   54    8 ar
    48   55   22 1
    49   56   55 1
    50   57   12 ar
    51   58   57 1
    52   59   15 ar
    53   60   59 1
    54   61    2 1
    55   62   61 1
    56   63   61 1
    57   64   61 1
    58   65   19 1
    59   66   65 1
    60   67   65 1
    61   68   65 1
    62   69    7 1
    63   70   69 1
    64   71   69 1
    65   72   69 1
    66   73   26 1
    67   74   73 1
    68   75   73 1
    69   76   73 1
    70   21   33 ar
    71   23   47 ar
    72   27   40 ar
    73   31   59 ar
    74   37   45 ar
    75   38   55 2
    76   41   43 2
    77   50   52 ar
    78   54   57 ar
@<TRIPOS>SUBSTRUCTURE
     1 RES1 1
     2 RES2 2

@<TRIPOS>CRYSIN
   8.2658   15.8334   22.9084  90.0000  90.7470  90.0000  14 1

