# MOL2 file generated by ConQuest
# Please check atom types

@<TRIPOS>MOLECULE
TERWIW01
    56    57     1
SMALL
NO_CHARGES
****
Generated from CSD

@<TRIPOS>ATOM
      1 C1         0.9582    8.9932    8.3428 C.3       1 RES1    0.0000
      2 H1         0.1558    9.5555    8.3804 H         1 RES1    0.0000
      3 C2         1.5149    8.7874    9.7251 C.3       1 RES1    0.0000
      4 H2         2.2665    8.1603    9.6937 H         1 RES1    0.0000
      5 C3         1.9660   10.1016   10.2933 C.3       1 RES1    0.0000
      6 H3         1.1830   10.6639   10.4727 H         1 RES1    0.0000
      7 C4         2.8954   10.8243    9.3463 C.3       1 RES1    0.0000
      8 H4         3.7412   10.3349    9.2760 H         1 RES1    0.0000
      9 C5         2.2512   10.9296    7.9778 C.3       1 RES1    0.0000
     10 H5         1.4223   11.4481    8.0505 H         1 RES1    0.0000
     11 C6         3.1187   11.5340    6.9166 C.3       1 RES1    0.0000
     12 H6         3.4728   12.3880    7.2126 H         1 RES1    0.0000
     13 H7         3.8611   10.9458    6.7084 H         1 RES1    0.0000
     14 C7        -0.3699    7.6791    6.8752 C.ar      1 RES1    0.0000
     15 C8        -0.4941    8.5930    5.8554 C.ar      1 RES1    0.0000
     16 H8         0.1088    9.2962    5.7726 H         1 RES1    0.0000
     17 C9        -1.5340    8.4455    4.9547 C.ar      1 RES1    0.0000
     18 H9        -1.6384    9.0483    4.2548 H         1 RES1    0.0000
     19 C10       -2.4096    7.4004    5.1053 C.ar      1 RES1    0.0000
     20 C11       -2.2901    6.4946    6.1088 C.ar      1 RES1    0.0000
     21 H10       -2.8966    5.7929    6.1865 H         1 RES1    0.0000
     22 C12       -1.2617    6.6274    7.0056 C.ar      1 RES1    0.0000
     23 H11       -1.1634    6.0133    7.6980 H         1 RES1    0.0000
     24 C13        2.8565   11.7673    4.5671 C.2       1 RES1    0.0000
     25 C14        1.8703   11.9180    3.4708 C.3       1 RES1    0.0000
     26 H12        2.1302   11.3671    2.7282 H         1 RES1    0.0000
     27 H13        1.8410   12.8368    3.1924 H         1 RES1    0.0000
     28 H14        1.0029   11.6507    3.7807 H         1 RES1    0.0000
     29 C15        4.3801   12.6181    9.8581 C.2       1 RES1    0.0000
     30 C16        4.4908   13.8836   10.6144 C.3       1 RES1    0.0000
     31 H15        5.3726   14.2466   10.5041 H         1 RES1    0.0000
     32 H16        4.3282   13.7151   11.5452 H         1 RES1    0.0000
     33 H17        3.8431   14.5107   10.2846 H         1 RES1    0.0000
     34 C17        2.1570   10.3916   12.6628 C.2       1 RES1    0.0000
     35 C18        3.0664   10.0935   13.8106 C.3       1 RES1    0.0000
     36 H18        2.8003   10.6136   14.5720 H         1 RES1    0.0000
     37 H19        3.9688   10.3171   13.5710 H         1 RES1    0.0000
     38 H20        3.0143    9.1601   14.0263 H         1 RES1    0.0000
     39 C19        0.6960    7.1249   11.2241 C.2       1 RES1    0.0000
     40 C20       -0.4956    6.6874   11.9830 C.3       1 RES1    0.0000
     41 H21       -0.2644    5.9388   12.5386 H         1 RES1    0.0000
     42 H22       -1.1879    6.4297   11.3696 H         1 RES1    0.0000
     43 H23       -0.8075    7.4101   12.5324 H         1 RES1    0.0000
     44 N1        -3.5401    7.2675    4.1607 N.pl3     1 RES1    0.0000
     45 O1         1.9419    9.5989    7.5264 O.3       1 RES1    0.0000
     46 O2         0.6461    7.7368    7.8160 O.3       1 RES1    0.0000
     47 O3        -3.6178    8.0777    3.2676 O.2       1 RES1    0.0000
     48 O4        -4.3292    6.3617    4.3389 O.2       1 RES1    0.0000
     49 O5         2.2779   11.7106    5.7637 O.3       1 RES1    0.0000
     50 O6         4.0404   11.7025    4.4229 O.2       1 RES1    0.0000
     51 O7         3.1308   12.1075    9.9303 O.3       1 RES1    0.0000
     52 O8         5.2392   12.1109    9.2133 O.2       1 RES1    0.0000
     53 O9         2.6723    9.8621   11.5234 O.3       1 RES1    0.0000
     54 O10        1.1518   11.0171   12.6992 O.2       1 RES1    0.0000
     55 O11        0.4584    8.2520   10.5442 O.3       1 RES1    0.0000
     56 O12        1.7537    6.5675   11.2015 O.2       1 RES1    0.0000
@<TRIPOS>BOND
     1    1    2 1
     2    3    1 1
     3    4    3 1
     4    5    3 1
     5    6    5 1
     6    7    5 1
     7    8    7 1
     8    9    7 1
     9   10    9 1
    10   11    9 1
    11   12   11 1
    12   13   11 1
    13   14   15 ar
    14   15   16 1
    15   17   15 ar
    16   18   17 1
    17   19   17 ar
    18   20   19 ar
    19   21   20 1
    20   22   14 ar
    21   23   22 1
    22   24   25 1
    23   25   26 1
    24   27   25 1
    25   28   25 1
    26   29   30 1
    27   30   31 1
    28   32   30 1
    29   33   30 1
    30   34   35 1
    31   35   36 1
    32   37   35 1
    33   38   35 1
    34   39   40 1
    35   40   41 1
    36   42   40 1
    37   43   40 1
    38   44   19 1
    39   45    1 1
    40   46    1 1
    41   47   44 2
    42   48   44 2
    43   49   11 1
    44   50   24 2
    45   51    7 1
    46   52   29 2
    47   53    5 1
    48   54   34 2
    49   55    3 1
    50   56   39 2
    51    9   45 1
    52   14   46 1
    53   20   22 ar
    54   24   49 1
    55   29   51 1
    56   34   53 1
    57   39   55 1
@<TRIPOS>SUBSTRUCTURE
     1 RES1 1

@<TRIPOS>CRYSIN
   5.7832   16.2040   12.7389  90.0000 100.0440  90.0000   4 1

