# MOL2 file generated by ConQuest
# Please check atom types

@<TRIPOS>MOLECULE
TERWES
    54    58     1
SMALL
NO_CHARGES
****
Generated from CSD

@<TRIPOS>ATOM
      1 O1         3.5840    2.6095    3.6997 O.3       1 RES1    0.0000
      2 N1         4.6746    2.2811    2.8434 N.2       1 RES1    0.0000
      3 C1         5.1547    3.3554    2.3509 C.2       1 RES1    0.0000
      4 C2         4.4091    4.5919    2.7616 C.3       1 RES1    0.0000
      5 H1         3.8073    4.8916    2.0757 H         1 RES1    0.0000
      6 H2         5.0036    5.3051    3.0041 H         1 RES1    0.0000
      7 C3         3.6740    4.0419    3.9549 C.3       1 RES1    0.0000
      8 H3         4.2052    4.1863    4.7420 H         1 RES1    0.0000
      9 O2         1.3970    6.2389    7.0492 O.3       1 RES1    0.0000
     10 C4         0.8601    5.7047    8.2654 C.3       1 RES1    0.0000
     11 H4         1.4638    5.8946    8.9871 H         1 RES1    0.0000
     12 H5         0.7863    4.7501    8.1866 H         1 RES1    0.0000
     13 C5        -0.4971    6.2804    8.5913 C.3       1 RES1    0.0000
     14 H6        -0.8504    5.8561    9.3754 H         1 RES1    0.0000
     15 H7        -0.4156    7.2202    8.7698 H         1 RES1    0.0000
     16 C6        -1.4415    6.0598    7.4158 C.3       1 RES1    0.0000
     17 H8        -1.6045    5.1201    7.3027 H         1 RES1    0.0000
     18 H9        -2.2819    6.4911    7.5899 H         1 RES1    0.0000
     19 C7        -0.8267    6.6267    6.1600 C.3       1 RES1    0.0000
     20 H10       -1.3873    6.4169    5.4101 H         1 RES1    0.0000
     21 H11       -0.7761    7.5822    6.2344 H         1 RES1    0.0000
     22 C8         0.5646    6.0668    5.9219 C.3       1 RES1    0.0000
     23 C9         1.3349    6.7295    4.7703 C.3       1 RES1    0.0000
     24 O3         0.4341    6.7117    3.6682 O.3       1 RES1    0.0000
     25 C10        0.9289    7.3320    2.4833 C.3       1 RES1    0.0000
     26 H12        0.2597    7.2874    1.7974 H         1 RES1    0.0000
     27 H13        1.7035    6.8571    2.1753 H         1 RES1    0.0000
     28 C11        1.2942    8.7772    2.7378 C.3       1 RES1    0.0000
     29 H14        1.6372    9.1729    1.9328 H         1 RES1    0.0000
     30 H15        0.5130    9.2678    3.0041 H         1 RES1    0.0000
     31 C12        2.3441    8.8464    3.8344 C.3       1 RES1    0.0000
     32 H16        3.1543    8.4280    3.5338 H         1 RES1    0.0000
     33 H17        2.5383    9.7644    4.0397 H         1 RES1    0.0000
     34 C13        1.8285    8.1372    5.0828 C.3       1 RES1    0.0000
     35 H18        2.5332    8.0877    5.7330 H         1 RES1    0.0000
     36 H19        1.1104    8.6476    5.4637 H         1 RES1    0.0000
     37 O4         2.5078    5.9886    4.4431 O.3       1 RES1    0.0000
     38 C14        2.2869    4.5899    4.1945 C.3       1 RES1    0.0000
     39 H20        1.7514    4.4791    3.4059 H         1 RES1    0.0000
     40 C15        1.5932    3.9726    5.3729 C.3       1 RES1    0.0000
     41 H21        2.1666    4.0102    6.1422 H         1 RES1    0.0000
     42 H22        1.4003    3.0507    5.1884 H         1 RES1    0.0000
     43 O5         0.3717    4.6769    5.6449 O.3       1 RES1    0.0000
     44 C16        6.3118    3.3336    1.4463 C.ar      1 RES1    0.0000
     45 C17        7.2412    2.2920    1.5102 C.ar      1 RES1    0.0000
     46 H23        7.1168    1.5758    2.1352 H         1 RES1    0.0000
     47 C18        8.3417    2.2949    0.6711 C.ar      1 RES1    0.0000
     48 H24        8.9744    1.5738    0.7112 H         1 RES1    0.0000
     49 C19        8.5367    3.3306   -0.2291 C.ar      1 RES1    0.0000
     50 H25        9.2982    3.3207   -0.8124 H         1 RES1    0.0000
     51 C20        7.6360    4.3772   -0.2857 C.ar      1 RES1    0.0000
     52 H26        7.7727    5.0964   -0.9061 H         1 RES1    0.0000
     53 C21        6.5327    4.3841    0.5565 C.ar      1 RES1    0.0000
     54 H27        5.9163    5.1191    0.5252 H         1 RES1    0.0000
@<TRIPOS>BOND
     1    1    2 1
     2    2    3 2
     3    3    4 1
     4    4    5 1
     5    6    4 1
     6    7    1 1
     7    8    7 1
     8    9   10 1
     9   10   11 1
    10   12   10 1
    11   13   10 1
    12   14   13 1
    13   15   13 1
    14   16   13 1
    15   17   16 1
    16   18   16 1
    17   19   16 1
    18   20   19 1
    19   21   19 1
    20   22    9 1
    21   23   22 1
    22   24   23 1
    23   25   24 1
    24   26   25 1
    25   27   25 1
    26   28   25 1
    27   29   28 1
    28   30   28 1
    29   31   28 1
    30   32   31 1
    31   33   31 1
    32   34   23 1
    33   35   34 1
    34   36   34 1
    35   37   23 1
    36   38    7 1
    37   39   38 1
    38   40   38 1
    39   41   40 1
    40   42   40 1
    41   43   22 1
    42   44    3 1
    43   45   44 ar
    44   46   45 1
    45   47   45 ar
    46   48   47 1
    47   49   47 ar
    48   50   49 1
    49   51   49 ar
    50   52   51 1
    51   53   44 ar
    52   54   53 1
    53    4    7 1
    54   19   22 1
    55   31   34 1
    56   37   38 1
    57   40   43 1
    58   51   53 ar
@<TRIPOS>SUBSTRUCTURE
     1 RES1 1

@<TRIPOS>CRYSIN
   6.3561    9.8920   14.9370  90.0000  95.0400  90.0000   4 1

