# MOL2 file generated by ConQuest
# Please check atom types

@<TRIPOS>MOLECULE
TERZUO
    44    46     1
SMALL
NO_CHARGES
****
Generated from CSD

@<TRIPOS>ATOM
      1 O1         0.5530    1.3988    1.2365 O.2       1 RES1    0.0000
      2 O2        -0.7187    1.7944    2.9298 O.2       1 RES1    0.0000
      3 N1         0.3798    1.7243    2.3985 N.pl3     1 RES1    0.0000
      4 C1         1.5857    2.0256    3.2433 C.3       1 RES1    0.0000
      5 H1         1.8859    1.1655    3.5394 H         1 RES1    0.0000
      6 H2         1.2585    2.5340    4.0017 H         1 RES1    0.0000
      7 C2         2.6745    2.7427    2.4575 C.3       1 RES1    0.0000
      8 H3         2.9068    2.1703    1.7094 H         1 RES1    0.0000
      9 C3         3.8788    2.8459    3.3903 C.ar      1 RES1    0.0000
     10 C4         3.8674    3.7210    4.4686 C.ar      1 RES1    0.0000
     11 H4         3.1407    4.2737    4.6042 H         1 RES1    0.0000
     12 C5         4.9222    3.7454    5.3691 C.ar      1 RES1    0.0000
     13 H5         4.8738    4.3276    6.1314 H         1 RES1    0.0000
     14 C6         6.0060    2.9007    5.1923 C.ar      1 RES1    0.0000
     15 H6         6.7400    2.9042    5.8362 H         1 RES1    0.0000
     16 C7         6.0274    2.0292    4.1176 C.ar      1 RES1    0.0000
     17 H7         6.7461    1.4397    3.9686 H         1 RES1    0.0000
     18 C8         4.9643    1.9960    3.2262 C.ar      1 RES1    0.0000
     19 H8         4.9765    1.3738    2.4836 H         1 RES1    0.0000
     20 C9         2.1807    4.0576    1.8997 C.2       1 RES1    0.0000
     21 C10        1.1434    4.7933    2.4013 C.2       1 RES1    0.0000
     22 H9         0.6094    4.6417    3.1704 H         1 RES1    0.0000
     23 N2         0.9140    5.8826    1.6126 N.pl3     1 RES1    0.0000
     24 H10        0.2541    6.4170    1.7275 H         1 RES1    0.0000
     25 C11        1.7806    5.8667    0.5595 C.ar      1 RES1    0.0000
     26 C12        1.8601    6.7353   -0.5234 C.ar      1 RES1    0.0000
     27 H11        1.2729    7.4660   -0.5783 H         1 RES1    0.0000
     28 C13        2.8063    6.4637   -1.4831 C.ar      1 RES1    0.0000
     29 H12        2.9091    7.0451   -2.2260 H         1 RES1    0.0000
     30 C14        3.6644    5.3668   -1.3611 C.ar      1 RES1    0.0000
     31 H13        4.3553    5.2245   -2.0498 H         1 RES1    0.0000
     32 C15        3.6010    4.4975   -0.2807 C.ar      1 RES1    0.0000
     33 C16        2.6205    4.7397    0.7101 C.ar      1 RES1    0.0000
     34 C17        4.5432    3.3846   -0.1550 C.2       1 RES1    0.0000
     35 H14        4.7762    3.1114    0.7410 H         1 RES1    0.0000
     36 C18        5.0951    2.7200   -1.1677 C.2       1 RES1    0.0000
     37 H15        4.9013    2.8944   -2.0845 H         1 RES1    0.0000
     38 C19        6.0573    1.6245   -0.9892 C.2       1 RES1    0.0000
     39 O3         6.5669    1.0234   -1.9070 O.2       1 RES1    0.0000
     40 O4         6.3065    1.3424    0.2898 O.3       1 RES1    0.0000
     41 C20        7.3259    0.3544    0.5289 C.3       1 RES1    0.0000
     42 H16        7.0642   -0.5180    0.1612 H         1 RES1    0.0000
     43 H17        8.1536    0.6367    0.1220 H         1 RES1    0.0000
     44 H18        7.4060    0.2979    1.4715 H         1 RES1    0.0000
@<TRIPOS>BOND
     1    1    3 2
     2    2    3 2
     3    3    4 1
     4    4    5 1
     5    6    4 1
     6    7    4 1
     7    8    7 1
     8    9    7 1
     9   10    9 ar
    10   11   10 1
    11   12   10 ar
    12   13   12 1
    13   14   12 ar
    14   15   14 1
    15   16   14 ar
    16   17   16 1
    17   18    9 ar
    18   19   18 1
    19   20    7 1
    20   21   20 2
    21   22   21 1
    22   23   21 1
    23   24   23 1
    24   25   23 1
    25   26   25 ar
    26   27   26 1
    27   28   26 ar
    28   29   28 1
    29   30   28 ar
    30   31   30 1
    31   32   30 ar
    32   33   20 1
    33   34   32 1
    34   35   34 1
    35   36   34 2
    36   37   36 1
    37   38   36 1
    38   39   38 2
    39   40   38 1
    40   41   40 1
    41   42   41 1
    42   43   41 1
    43   44   41 1
    44   16   18 ar
    45   25   33 ar
    46   32   33 ar
@<TRIPOS>SUBSTRUCTURE
     1 RES1 1

@<TRIPOS>CRYSIN
  10.3040   10.7921   15.1146  90.0000  94.8220  90.0000 231 1

