# MOL2 file generated by ConQuest
# Please check atom types

@<TRIPOS>MOLECULE
TESBAX
    47    49     1
SMALL
NO_CHARGES
****
Generated from CSD

@<TRIPOS>ATOM
      1 N1         3.4378    8.4228   11.6987 N.pl3     1 RES1    0.0000
      2 O1         4.5903    8.3374   12.0867 O.2       1 RES1    0.0000
      3 O2         2.8850    9.4760   11.4351 O.2       1 RES1    0.0000
      4 C1         2.6496    7.1543   11.5684 C.3       1 RES1    0.0000
      5 H1         2.1164    7.0176   12.3927 H         1 RES1    0.0000
      6 H2         3.2739    6.3917   11.4818 H         1 RES1    0.0000
      7 C2         1.7176    7.1721   10.3696 C.3       1 RES1    0.0000
      8 H3         1.0990    7.9500   10.4786 H         1 RES1    0.0000
      9 C3         0.8769    5.8960   10.4527 C.ar      1 RES1    0.0000
     10 C4        -0.3339    5.9033   11.1389 C.ar      1 RES1    0.0000
     11 H4        -0.6558    6.7144   11.5117 H         1 RES1    0.0000
     12 C5        -1.0757    4.7420   11.2839 C.ar      1 RES1    0.0000
     13 H5        -1.8966    4.7574   11.7613 H         1 RES1    0.0000
     14 C6        -0.6154    3.5638   10.7321 C.ar      1 RES1    0.0000
     15 H6        -1.1273    2.7681   10.8205 H         1 RES1    0.0000
     16 C7         0.5860    3.5371   10.0529 C.ar      1 RES1    0.0000
     17 H7         0.9040    2.7236    9.6800 H         1 RES1    0.0000
     18 C8         1.3266    4.7008    9.9146 C.ar      1 RES1    0.0000
     19 H8         2.1519    4.6790    9.4455 H         1 RES1    0.0000
     20 C9         2.4488    7.3508    9.0634 C.2       1 RES1    0.0000
     21 C10        3.7790    7.0961    8.8426 C.2       1 RES1    0.0000
     22 H9         4.3835    6.7767    9.5029 H         1 RES1    0.0000
     23 N2         4.1181    7.3670    7.5369 N.pl3     1 RES1    0.0000
     24 C11        5.4684    7.4018    7.0019 C.3       1 RES1    0.0000
     25 H10        5.4718    7.0217    6.0990 H         1 RES1    0.0000
     26 H11        6.0621    6.8777    7.5788 H         1 RES1    0.0000
     27 H12        5.7820    8.3293    6.9674 H         1 RES1    0.0000
     28 C12        1.9198    7.8215    7.8087 C.ar      1 RES1    0.0000
     29 C13        2.9963    7.8320    6.8926 C.ar      1 RES1    0.0000
     30 C14        2.8649    8.2687    5.5782 C.ar      1 RES1    0.0000
     31 H13        3.6036    8.2581    4.9810 H         1 RES1    0.0000
     32 C15        1.6275    8.7158    5.1717 C.ar      1 RES1    0.0000
     33 H14        1.5084    9.0183    4.2798 H         1 RES1    0.0000
     34 C16        0.5481    8.7304    6.0498 C.ar      1 RES1    0.0000
     35 H15       -0.2907    9.0498    5.7397 H         1 RES1    0.0000
     36 C17        0.6541    8.2937    7.3690 C.ar      1 RES1    0.0000
     37 C18       -0.4889    8.3301    8.2753 C.2       1 RES1    0.0000
     38 H16       -0.4750    7.7091    8.9938 H         1 RES1    0.0000
     39 C19       -1.5448    9.1315    8.2114 C.2       1 RES1    0.0000
     40 H17       -1.6343    9.7501    7.4965 H         1 RES1    0.0000
     41 C20       -2.5700    9.0531    9.2513 C.2       1 RES1    0.0000
     42 O3        -2.4661    8.4290   10.2860 O.2       1 RES1    0.0000
     43 O4        -3.6693    9.7606    8.9454 O.3       1 RES1    0.0000
     44 C21       -4.7302    9.6903    9.9266 C.3       1 RES1    0.0000
     45 H18       -4.9932    8.7555   10.0569 H         1 RES1    0.0000
     46 H19       -5.5019   10.2054    9.6102 H         1 RES1    0.0000
     47 H20       -4.4136   10.0631   10.7756 H         1 RES1    0.0000
@<TRIPOS>BOND
     1    1    2 2
     2    3    1 2
     3    4    1 1
     4    5    4 1
     5    6    4 1
     6    7    4 1
     7    8    7 1
     8    9    7 1
     9   10    9 ar
    10   11   10 1
    11   12   10 ar
    12   13   12 1
    13   14   12 ar
    14   15   14 1
    15   16   14 ar
    16   17   16 1
    17   18    9 ar
    18   19   18 1
    19   20    7 1
    20   21   20 2
    21   22   21 1
    22   23   21 1
    23   24   23 1
    24   25   24 1
    25   26   24 1
    26   27   24 1
    27   28   20 1
    28   29   23 1
    29   30   29 ar
    30   31   30 1
    31   32   30 ar
    32   33   32 1
    33   34   32 ar
    34   35   34 1
    35   36   28 ar
    36   37   36 1
    37   38   37 1
    38   39   37 2
    39   40   39 1
    40   41   39 1
    41   42   41 2
    42   43   41 1
    43   44   43 1
    44   45   44 1
    45   46   44 1
    46   47   44 1
    47   16   18 ar
    48   28   29 ar
    49   34   36 ar
@<TRIPOS>SUBSTRUCTURE
     1 RES1 1

@<TRIPOS>CRYSIN
  17.7253    8.0867   24.9550  90.0000  90.0000  90.0000  61 1

