# MOL2 file generated by ConQuest
# Please check atom types

@<TRIPOS>MOLECULE
TESKOR
    37    39     1
SMALL
NO_CHARGES
****
Generated from CSD

@<TRIPOS>ATOM
      1 O1         4.4738    5.1347    3.7233 O.2       1 RES1    0.0000
      2 O2         4.5188    4.2934    1.7220 O.2       1 RES1    0.0000
      3 O3         0.4720   -0.0757    1.7658 O.2       1 RES1    0.0000
      4 O4         1.6217    0.9693    0.2792 O.2       1 RES1    0.0000
      5 O5         0.4891    1.1832    4.1257 O.2       1 RES1    0.0000
      6 O6        -0.7390    2.8497    3.5262 O.2       1 RES1    0.0000
      7 O7        -0.8982    2.5164    0.7009 O.2       1 RES1    0.0000
      8 O8         0.4122    4.2803    0.9719 O.2       1 RES1    0.0000
      9 N1         3.9886    4.5277    2.7897 N.pl3     1 RES1    0.0000
     10 N2         1.0053    0.9344    1.3333 N.pl3     1 RES1    0.0000
     11 N3         0.1754    2.0026    3.3783 N.pl3     1 RES1    0.0000
     12 N4         0.0854    3.1204    1.1717 N.pl3     1 RES1    0.0000
     13 C1         3.9886    0.7146    2.2942 C.ar      1 RES1    0.0000
     14 C2         3.2791    1.7814    3.0115 C.ar      1 RES1    0.0000
     15 C3         4.8208   -0.0946    2.9266 C.ar      1 RES1    0.0000
     16 C4         4.9458   -0.0480    4.2982 C.ar      1 RES1    0.0000
     17 C5         4.2425    0.8791    5.0100 C.ar      1 RES1    0.0000
     18 C6         3.4111    1.8382    4.4050 C.ar      1 RES1    0.0000
     19 C7         2.4818    2.8147    6.5349 C.ar      1 RES1    0.0000
     20 C8         2.6751    2.8657    5.1496 C.ar      1 RES1    0.0000
     21 C9         1.8398    3.8699    7.1892 C.ar      1 RES1    0.0000
     22 C10        1.4167    4.9338    6.4856 C.ar      1 RES1    0.0000
     23 C11        1.6077    5.0255    5.1140 C.ar      1 RES1    0.0000
     24 C12        2.2163    3.9310    4.4679 C.ar      1 RES1    0.0000
     25 C13        2.4733    4.0839    2.9923 C.3       1 RES1    0.0000
     26 C14        2.4345    2.7580    2.2531 C.3       1 RES1    0.0000
     27 C15        0.9704    2.2137    2.1135 C.3       1 RES1    0.0000
     28 H1         3.8512    0.6069    1.3798 H         1 RES1    0.0000
     29 H2         5.3285   -0.7044    2.4420 H         1 RES1    0.0000
     30 H3         5.5071   -0.6462    4.7390 H         1 RES1    0.0000
     31 H4         4.3162    0.8762    5.9353 H         1 RES1    0.0000
     32 H5         2.7799    2.0783    7.0195 H         1 RES1    0.0000
     33 H6         1.7055    3.8350    8.1091 H         1 RES1    0.0000
     34 H7         0.9843    5.6280    6.9291 H         1 RES1    0.0000
     35 H8         1.3446    5.7808    4.6404 H         1 RES1    0.0000
     36 H9         1.8577    4.7315    2.5899 H         1 RES1    0.0000
     37 H10        2.8156    2.8817    1.3579 H         1 RES1    0.0000
@<TRIPOS>BOND
     1    1    9 2
     2    2    9 2
     3    3   10 2
     4    4   10 2
     5    5   11 2
     6    6   11 2
     7    7   12 2
     8    8   12 2
     9    9   25 1
    10   10   27 1
    11   11   27 1
    12   12   27 1
    13   13   14 ar
    14   14   18 ar
    15   15   13 ar
    16   16   15 ar
    17   17   16 ar
    18   18   17 ar
    19   19   20 ar
    20   20   18 1
    21   21   19 ar
    22   22   21 ar
    23   23   22 ar
    24   24   20 ar
    25   25   24 1
    26   26   14 1
    27   27   26 1
    28   28   13 1
    29   29   15 1
    30   30   16 1
    31   31   17 1
    32   32   19 1
    33   33   21 1
    34   34   22 1
    35   35   23 1
    36   36   25 1
    37   37   26 1
    38   23   24 ar
    39   25   26 1
@<TRIPOS>SUBSTRUCTURE
     1 RES1 1

@<TRIPOS>CRYSIN
   7.7630   14.5540   27.3770  90.0000  90.0000  90.0000  61 1

