# MOL2 file generated by ConQuest
# Please check atom types

@<TRIPOS>MOLECULE
TETNOW
    98   104     1
SMALL
NO_CHARGES
****
Generated from CSD

@<TRIPOS>ATOM
      1 O1         8.5622    0.4898   17.0160 O.3       1 RES1    0.0000
      2 O2         5.7786    9.4773    8.7806 O.3       1 RES1    0.0000
      3 O3        10.5013    1.3455   17.8241 O.2       1 RES1    0.0000
      4 O4        13.9789   -2.0399   18.8818 O.2       1 RES1    0.0000
      5 O5        13.4235   -4.1336   19.1629 O.2       1 RES1    0.0000
      6 O6         8.8780   -5.5297   18.2880 O.2       1 RES1    0.0000
      7 O7         7.6403   -4.1811   17.0959 O.2       1 RES1    0.0000
      8 N1        13.1620   -2.9535   18.9172 N.pl3     1 RES1    0.0000
      9 N2         8.6182   -4.4333   17.8049 N.pl3     1 RES1    0.0000
     10 C1         8.0182    3.2655   14.4671 C.3       1 RES1    0.0000
     11 C2         8.5788    1.9893   15.1218 C.3       1 RES1    0.0000
     12 C3         8.0892    1.8095   16.5426 C.3       1 RES1    0.0000
     13 C4         6.5529    1.8095   16.6996 C.3       1 RES1    0.0000
     14 C5         6.0306    3.0940   15.9977 C.3       1 RES1    0.0000
     15 C6         4.5251    3.3141   16.1782 C.3       1 RES1    0.0000
     16 C7         4.1182    4.7237   15.7632 C.3       1 RES1    0.0000
     17 C8         4.4955    5.1133   14.3300 C.3       1 RES1    0.0000
     18 C9         6.0093    4.7660   14.0989 C.3       1 RES1    0.0000
     19 C10        6.4545    3.3193   14.5274 C.3       1 RES1    0.0000
     20 C11        6.4440    5.1732   12.6790 C.3       1 RES1    0.0000
     21 C12        6.0976    6.6262   12.3035 C.3       1 RES1    0.0000
     22 C13        4.6292    6.9806   12.5979 C.3       1 RES1    0.0000
     23 C14        4.2893    6.6727   14.0920 C.3       1 RES1    0.0000
     24 C15        2.8415    7.1139   14.4487 C.3       1 RES1    0.0000
     25 C16        2.4842    8.5349   13.9844 C.3       1 RES1    0.0000
     26 C17        2.7498    8.7312   12.4997 C.3       1 RES1    0.0000
     27 C18        4.2359    8.4212   12.2015 C.3       1 RES1    0.0000
     28 C19        4.3901    8.8841   10.7246 C.3       1 RES1    0.0000
     29 C20        5.7826    9.1766   10.2129 C.3       1 RES1    0.0000
     30 C21        3.4719   10.1583   10.6651 C.3       1 RES1    0.0000
     31 C22        2.6547   10.1697   11.9905 C.3       1 RES1    0.0000
     32 C23        6.2355    1.8839   18.2091 C.3       1 RES1    0.0000
     33 C24        5.9539    0.4919   16.1561 C.3       1 RES1    0.0000
     34 C25        5.9349    2.2456   13.5239 C.3       1 RES1    0.0000
     35 C26        3.5673    4.3082   13.3784 C.3       1 RES1    0.0000
     36 C27        5.2128    7.5180   15.0215 C.3       1 RES1    0.0000
     37 C28        1.7802    7.8497   11.6769 C.3       1 RES1    0.0000
     38 C29        6.3839    8.2693    9.2399 C.3       1 RES1    0.0000
     39 C30        6.6709   10.1025   10.9795 C.3       1 RES1    0.0000
     40 C31        9.7680    0.4165   17.5995 C.2       1 RES1    0.0000
     41 C32       10.1061   -1.0107   17.9230 C.ar      1 RES1    0.0000
     42 C33       11.4171   -1.3052   18.3479 C.ar      1 RES1    0.0000
     43 C34       11.7365   -2.6166   18.5972 C.ar      1 RES1    0.0000
     44 C35       10.8424   -3.6665   18.4875 C.ar      1 RES1    0.0000
     45 C36        9.5794   -3.3275   18.0517 C.ar      1 RES1    0.0000
     46 C37        9.1891   -2.0441   17.7676 C.ar      1 RES1    0.0000
     47 H1         8.3671    4.0230   14.9226 H         1 RES1    0.0000
     48 H2         8.2915    3.2893   13.5583 H         1 RES1    0.0000
     49 H3         9.5268    2.0430   15.1303 H         1 RES1    0.0000
     50 H4         8.3092    1.2380   14.6063 H         1 RES1    0.0000
     51 H5         8.4610    2.4926   17.0878 H         1 RES1    0.0000
     52 H6         6.4351    3.8091   16.4748 H         1 RES1    0.0000
     53 H7         4.0553    2.6858   15.6424 H         1 RES1    0.0000
     54 H8         4.5359    5.3375   16.3562 H         1 RES1    0.0000
     55 H9         4.2992    3.1808   17.0917 H         1 RES1    0.0000
     56 H10        3.1747    4.7950   15.8480 H         1 RES1    0.0000
     57 H11        6.4854    5.3509   14.6775 H         1 RES1    0.0000
     58 H12        7.3847    5.0606   12.6072 H         1 RES1    0.0000
     59 H13        6.0082    4.5966   12.0635 H         1 RES1    0.0000
     60 H14        6.2597    6.7481   11.3754 H         1 RES1    0.0000
     61 H15        6.6570    7.2100   12.8010 H         1 RES1    0.0000
     62 H16        4.0947    6.3967   12.0714 H         1 RES1    0.0000
     63 H17        2.2367    6.5063   14.0388 H         1 RES1    0.0000
     64 H18        2.7400    7.0726   15.3932 H         1 RES1    0.0000
     65 H19        3.0081    9.1580   14.4738 H         1 RES1    0.0000
     66 H20        1.5628    8.6919   14.1554 H         1 RES1    0.0000
     67 H21        4.7558    9.0112   12.7358 H         1 RES1    0.0000
     68 H22        4.0053    8.2186   10.1672 H         1 RES1    0.0000
     69 H23        4.0032   10.9427   10.6003 H         1 RES1    0.0000
     70 H24        2.8877   10.1098    9.9181 H         1 RES1    0.0000
     71 H25        1.7507   10.4115   11.8262 H         1 RES1    0.0000
     72 H26        3.0345   10.7742   12.6171 H         1 RES1    0.0000
     73 H27        6.6435    1.1512   18.6558 H         1 RES1    0.0000
     74 H28        6.5716    2.6982   18.5628 H         1 RES1    0.0000
     75 H29        5.2943    1.8477   18.3354 H         1 RES1    0.0000
     76 H30        5.2185    0.6882   15.5870 H         1 RES1    0.0000
     77 H31        6.6165    0.0196   15.6661 H         1 RES1    0.0000
     78 H32        5.6572   -0.0434   16.8841 H         1 RES1    0.0000
     79 H33        6.5444    1.5170   13.4911 H         1 RES1    0.0000
     80 H34        5.0838    1.9335   13.8094 H         1 RES1    0.0000
     81 H35        5.8571    2.6310   12.6586 H         1 RES1    0.0000
     82 H36        3.9510    4.2793   12.5103 H         1 RES1    0.0000
     83 H37        3.4651    3.4226   13.7086 H         1 RES1    0.0000
     84 H38        2.7167    4.7299   13.3349 H         1 RES1    0.0000
     85 H39        5.0846    8.4418   14.8416 H         1 RES1    0.0000
     86 H40        4.9975    7.3382   15.9291 H         1 RES1    0.0000
     87 H41        6.1196    7.2865   14.8594 H         1 RES1    0.0000
     88 H42        0.8856    8.0347   11.9369 H         1 RES1    0.0000
     89 H43        1.8858    8.0368   10.7505 H         1 RES1    0.0000
     90 H44        1.9742    6.9341   11.8381 H         1 RES1    0.0000
     91 H45        5.9715    7.4332    9.0560 H         1 RES1    0.0000
     92 H46        7.3280    8.1711    9.2043 H         1 RES1    0.0000
     93 H47        6.2233   10.9292   11.1183 H         1 RES1    0.0000
     94 H48        6.8838    9.7129   11.8203 H         1 RES1    0.0000
     95 H49        7.4694   10.2524   10.4876 H         1 RES1    0.0000
     96 H50       12.0611   -0.6149   18.4580 H         1 RES1    0.0000
     97 H51       11.0830   -4.5614   18.6993 H         1 RES1    0.0000
     98 H52        8.3052   -1.8622   17.4694 H         1 RES1    0.0000
@<TRIPOS>BOND
     1    1   12 1
     2    2   29 1
     3    3   40 2
     4    4    8 2
     5    5    8 2
     6    6    9 2
     7    7    9 2
     8    8   43 1
     9    9   45 1
    10   10   11 1
    11   11   12 1
    12   12   13 1
    13   13   14 1
    14   14   15 1
    15   15   16 1
    16   16   17 1
    17   17   18 1
    18   18   19 1
    19   19   10 1
    20   20   18 1
    21   21   20 1
    22   22   21 1
    23   23   17 1
    24   24   23 1
    25   25   24 1
    26   26   25 1
    27   27   22 1
    28   28   27 1
    29   29   28 1
    30   30   28 1
    31   31   26 1
    32   32   13 1
    33   33   13 1
    34   34   19 1
    35   35   17 1
    36   36   23 1
    37   37   26 1
    38   38    2 1
    39   39   29 1
    40   40    1 1
    41   41   40 1
    42   42   41 ar
    43   43   42 ar
    44   44   43 ar
    45   45   44 ar
    46   46   41 ar
    47   47   10 1
    48   48   10 1
    49   49   11 1
    50   50   11 1
    51   51   12 1
    52   52   14 1
    53   53   15 1
    54   54   16 1
    55   55   15 1
    56   56   16 1
    57   57   18 1
    58   58   20 1
    59   59   20 1
    60   60   21 1
    61   61   21 1
    62   62   22 1
    63   63   24 1
    64   64   24 1
    65   65   25 1
    66   66   25 1
    67   67   27 1
    68   68   28 1
    69   69   30 1
    70   70   30 1
    71   71   31 1
    72   72   31 1
    73   73   32 1
    74   74   32 1
    75   75   32 1
    76   76   33 1
    77   77   33 1
    78   78   33 1
    79   79   34 1
    80   80   34 1
    81   81   34 1
    82   82   35 1
    83   83   35 1
    84   84   35 1
    85   85   36 1
    86   86   36 1
    87   87   36 1
    88   88   37 1
    89   89   37 1
    90   90   37 1
    91   91   38 1
    92   92   38 1
    93   93   39 1
    94   94   39 1
    95   95   39 1
    96   96   42 1
    97   97   44 1
    98   98   46 1
    99   14   19 1
   100   22   23 1
   101   26   27 1
   102   29   38 1
   103   30   31 1
   104   45   46 ar
@<TRIPOS>SUBSTRUCTURE
     1 RES1 1

@<TRIPOS>CRYSIN
   7.9420   10.3340   19.7870  90.0000  92.1600  90.0000   4 1

