# MOL2 file generated by ConQuest
# Please check atom types

@<TRIPOS>MOLECULE
TETZOH
   102   108     2
SMALL
NO_CHARGES
****
Generated from CSD

@<TRIPOS>ATOM
      1 C1        12.1111    4.2394    0.3717 C.2       1 RES1    0.0000
      2 C2        12.4407    3.5740   -0.9291 C.ar      1 RES1    0.0000
      3 C3        11.5812    2.8089   -1.7034 C.ar      1 RES1    0.0000
      4 C4        12.1589    2.3677   -2.8184 C.ar      1 RES1    0.0000
      5 C5        13.4770    2.6156   -3.1797 C.ar      1 RES1    0.0000
      6 C6        14.2989    3.2346   -2.3848 C.ar      1 RES1    0.0000
      7 C7        13.8305    3.8262   -1.2182 C.ar      1 RES1    0.0000
      8 C8        14.3834    4.7039   -0.1549 C.ar      1 RES1    0.0000
      9 C9        15.6507    5.4985    0.1342 C.ar      1 RES1    0.0000
     10 C10       15.6655    6.2947    1.3111 C.ar      1 RES1    0.0000
     11 C11       14.7968    6.4767    2.2609 C.ar      1 RES1    0.0000
     12 C12       13.5410    5.7722    2.0028 C.ar      1 RES1    0.0000
     13 C13       13.4140    4.9536    0.8672 C.ar      1 RES1    0.0000
     14 C14        9.7313    3.9019    0.5988 C.ar      1 RES1    0.0000
     15 C15        9.2242    2.7264    1.2079 C.ar      1 RES1    0.0000
     16 C16        7.9381    2.3463    0.8053 C.ar      1 RES1    0.0000
     17 C17        7.2956    3.0477   -0.1136 C.ar      1 RES1    0.0000
     18 C18        7.7594    4.1849   -0.6814 C.ar      1 RES1    0.0000
     19 C19        9.0412    4.6858   -0.3407 C.ar      1 RES1    0.0000
     20 C20       10.0349    1.8773    2.1577 C.3       1 RES1    0.0000
     21 C21       10.8002    0.7168    1.4763 C.3       1 RES1    0.0000
     22 C22        9.6079    5.9248   -0.9498 C.3       1 RES1    0.0000
     23 C23        8.8184    6.7372   -1.8686 C.3       1 RES1    0.0000
     24 N1        11.0447    4.3924    1.1046 N.2       1 RES1    0.0000
     25 N2        11.2707    1.6858   -3.7166 N.pl3     1 RES1    0.0000
     26 N3        16.7129    5.3198   -0.8362 N.pl3     1 RES1    0.0000
     27 N4        14.8454    7.3363    3.4378 N.pl3     1 RES1    0.0000
     28 O1        10.2025    1.3253   -3.3449 O.2       1 RES1    0.0000
     29 O2        11.6626    1.5083   -4.8935 O.2       1 RES1    0.0000
     30 O3        16.8850    4.3595   -1.5795 O.2       1 RES1    0.0000
     31 O4        17.5203    6.2540   -0.8259 O.2       1 RES1    0.0000
     32 O5        16.0352    7.7295    3.4585 O.2       1 RES1    0.0000
     33 O6        13.9857    7.3908    4.1914 O.2       1 RES1    0.0000
     34 C24        7.1283   -5.2979    6.6795 C.2       2 RES2    0.0000
     35 C25        6.8026   -4.2787    5.6574 C.ar      2 RES2    0.0000
     36 C26        7.5328   -3.2258    5.1206 C.ar      2 RES2    0.0000
     37 C27        6.9883   -2.3592    4.1605 C.ar      2 RES2    0.0000
     38 C28        5.6663   -2.5648    3.7578 C.ar      2 RES2    0.0000
     39 C29        4.9219   -3.5275    4.3257 C.ar      2 RES2    0.0000
     40 C30        5.4284   -4.4909    5.2961 C.ar      2 RES2    0.0000
     41 C31        4.9021   -5.6686    6.0187 C.ar      2 RES2    0.0000
     42 C32        3.6677   -6.4158    6.0291 C.ar      2 RES2    0.0000
     43 C33        3.6125   -7.5366    6.7930 C.ar      2 RES2    0.0000
     44 C34        4.5931   -7.9552    7.6293 C.ar      2 RES2    0.0000
     45 C35        5.8060   -7.2781    7.6602 C.ar      2 RES2    0.0000
     46 C36        5.9090   -6.1856    6.8756 C.ar      2 RES2    0.0000
     47 C37        9.4960   -4.8702    7.0821 C.ar      2 RES2    0.0000
     48 C38        9.8904   -3.9718    8.1145 C.ar      2 RES2    0.0000
     49 C39       11.1923   -3.3493    7.9906 C.ar      2 RES2    0.0000
     50 C40       11.9462   -3.7205    6.8343 C.ar      2 RES2    0.0000
     51 C41       11.5170   -4.6414    5.8432 C.ar      2 RES2    0.0000
     52 C42       10.2505   -5.2874    5.9155 C.ar      2 RES2    0.0000
     53 C43        9.0407   -3.5454    9.3223 C.3       2 RES2    0.0000
     54 C44        8.1408   -2.3530    9.1055 C.3       2 RES2    0.0000
     55 C45        9.7445   -6.2542    4.9141 C.3       2 RES2    0.0000
     56 C46       10.7496   -6.7835    3.9540 C.3       2 RES2    0.0000
     57 N5         8.2317   -5.6059    7.3195 N.2       2 RES2    0.0000
     58 N6         7.8198   -1.3675    3.5101 N.pl3     2 RES2    0.0000
     59 N7         2.5109   -6.0672    5.2341 N.pl3     2 RES2    0.0000
     60 N8         4.4816   -9.1160    8.4448 N.pl3     2 RES2    0.0000
     61 O7         8.9549   -1.4112    3.6856 O.2       2 RES2    0.0000
     62 O8         7.2811   -0.6147    2.7668 O.2       2 RES2    0.0000
     63 O9         2.4318   -4.9481    4.7799 O.2       2 RES2    0.0000
     64 O10        1.6980   -6.9385    5.0277 O.2       2 RES2    0.0000
     65 O11        3.4406   -9.7056    8.3622 O.2       2 RES2    0.0000
     66 O12        5.3813   -9.4071    9.1778 O.2       2 RES2    0.0000
     67 H1        10.6580    2.5909   -1.4495 H         1 RES1    0.0000
     68 H2        13.8518    2.2684   -4.0387 H         1 RES1    0.0000
     69 H3        15.2647    3.2900   -2.5933 H         1 RES1    0.0000
     70 H4        16.4840    6.8764    1.4236 H         1 RES1    0.0000
     71 H5        12.7881    5.8908    2.6336 H         1 RES1    0.0000
     72 H6         7.4645    1.5755    1.1439 H         1 RES1    0.0000
     73 H7         6.3862    2.7820   -0.4573 H         1 RES1    0.0000
     74 H8         7.2637    4.6676   -1.4422 H         1 RES1    0.0000
     75 H9        10.7375    2.3924    2.6388 H         1 RES1    0.0000
     76 H10        9.5292    1.4526    2.8927 H         1 RES1    0.0000
     77 H11       10.1949    0.1029    1.0778 H         1 RES1    0.0000
     78 H12       11.4007    1.0435    0.8187 H         1 RES1    0.0000
     79 H13       11.3519    0.1817    2.1081 H         1 RES1    0.0000
     80 H14        9.8111    6.5992   -0.2137 H         1 RES1    0.0000
     81 H15       10.4726    5.8027   -1.3689 H         1 RES1    0.0000
     82 H16        9.2202    7.5152   -2.2227 H         1 RES1    0.0000
     83 H17        8.6212    6.1582   -2.6759 H         1 RES1    0.0000
     84 H18        7.9572    6.9497   -1.5197 H         1 RES1    0.0000
     85 H19        8.5244   -3.1226    5.3694 H         2 RES2    0.0000
     86 H20        5.3028   -2.0196    2.9929 H         2 RES2    0.0000
     87 H21        3.9746   -3.6162    4.0655 H         2 RES2    0.0000
     88 H22        2.7888   -8.1305    6.7373 H         2 RES2    0.0000
     89 H23        6.5331   -7.5706    8.2528 H         2 RES2    0.0000
     90 H24       11.5999   -2.7265    8.6121 H         2 RES2    0.0000
     91 H25       12.8346   -3.2921    6.6939 H         2 RES2    0.0000
     92 H26       12.1338   -4.8474    5.0142 H         2 RES2    0.0000
     93 H27        8.4624   -4.2373    9.6837 H         2 RES2    0.0000
     94 H28        9.5981   -3.2756   10.1193 H         2 RES2    0.0000
     95 H29        8.6707   -1.5924    8.8216 H         2 RES2    0.0000
     96 H30        7.5319   -2.5534    8.3911 H         2 RES2    0.0000
     97 H31        7.6337   -2.0821    9.8654 H         2 RES2    0.0000
     98 H32        9.4089   -7.0729    5.3642 H         2 RES2    0.0000
     99 H33        9.0094   -5.9158    4.4124 H         2 RES2    0.0000
    100 H34       10.3970   -7.3978    3.2788 H         2 RES2    0.0000
    101 H35       11.1113   -6.0261    3.4006 H         2 RES2    0.0000
    102 H36       11.5032   -7.1917    4.3463 H         2 RES2    0.0000
@<TRIPOS>BOND
     1    1    2 1
     2    2    3 ar
     3    3    4 ar
     4    4    5 ar
     5    5    6 ar
     6    6    7 ar
     7    7    2 ar
     8    8    7 1
     9    9    8 ar
    10   10    9 ar
    11   11   10 ar
    12   12   11 ar
    13   13    1 1
    14   14   15 ar
    15   15   16 ar
    16   16   17 ar
    17   17   18 ar
    18   18   19 ar
    19   19   14 ar
    20   20   15 1
    21   21   20 1
    22   22   19 1
    23   23   22 1
    24   24    1 2
    25   25    4 1
    26   26    9 1
    27   27   11 1
    28   28   25 2
    29   29   25 2
    30   30   26 2
    31   31   26 2
    32   32   27 2
    33   33   27 2
    34   34   35 1
    35   35   36 ar
    36   36   37 ar
    37   37   38 ar
    38   38   39 ar
    39   39   40 ar
    40   40   35 ar
    41   41   40 1
    42   42   41 ar
    43   43   42 ar
    44   44   43 ar
    45   45   44 ar
    46   46   34 1
    47   47   48 ar
    48   48   49 ar
    49   49   50 ar
    50   50   51 ar
    51   51   52 ar
    52   52   47 ar
    53   53   48 1
    54   54   53 1
    55   55   52 1
    56   56   55 1
    57   57   34 2
    58   58   37 1
    59   59   42 1
    60   60   44 1
    61   61   58 2
    62   62   58 2
    63   63   59 2
    64   64   59 2
    65   65   60 2
    66   66   60 2
    67   67    3 1
    68   68    5 1
    69   69    6 1
    70   70   10 1
    71   71   12 1
    72   72   16 1
    73   73   17 1
    74   74   18 1
    75   75   20 1
    76   76   20 1
    77   77   21 1
    78   78   21 1
    79   79   21 1
    80   80   22 1
    81   81   22 1
    82   82   23 1
    83   83   23 1
    84   84   23 1
    85   85   36 1
    86   86   38 1
    87   87   39 1
    88   88   43 1
    89   89   45 1
    90   90   49 1
    91   91   50 1
    92   92   51 1
    93   93   53 1
    94   94   53 1
    95   95   54 1
    96   96   54 1
    97   97   54 1
    98   98   55 1
    99   99   55 1
   100  100   56 1
   101  101   56 1
   102  102   56 1
   103    8   13 ar
   104   12   13 ar
   105   14   24 1
   106   41   46 ar
   107   45   46 ar
   108   47   57 1
@<TRIPOS>SUBSTRUCTURE
     1 RES1 1
     2 RES2 34

@<TRIPOS>CRYSIN
  12.8810   16.4700   10.4550  98.4500  90.9300 105.6200   2 1

