# MOL2 file generated by ConQuest
# Please check atom types

@<TRIPOS>MOLECULE
TETZIB
    39    42     1
SMALL
NO_CHARGES
****
Generated from CSD

@<TRIPOS>ATOM
      1 C1         5.2033    0.4308    4.8364 C.2       1 RES1    0.0000
      2 C2         6.0951    1.5640    5.1227 C.ar      1 RES1    0.0000
      3 C3         6.4977    2.6309    4.3187 C.ar      1 RES1    0.0000
      4 C4         7.3228    3.5720    4.8730 C.ar      1 RES1    0.0000
      5 C5         7.7688    3.5189    6.1623 C.ar      1 RES1    0.0000
      6 C6         7.3948    2.4520    6.9602 C.ar      1 RES1    0.0000
      7 C7         6.5461    1.4646    6.4628 C.ar      1 RES1    0.0000
      8 C8         5.9843    0.2253    7.0476 C.ar      1 RES1    0.0000
      9 C9         6.0225   -0.3844    8.2942 C.ar      1 RES1    0.0000
     10 C10        5.3749   -1.5772    8.5460 C.ar      1 RES1    0.0000
     11 C11        4.6915   -2.1869    7.5024 C.ar      1 RES1    0.0000
     12 C12        4.5560   -1.6170    6.2679 C.ar      1 RES1    0.0000
     13 C13        5.2038   -0.4308    6.0587 C.ar      1 RES1    0.0000
     14 C14        4.4494    0.9874    2.7004 C.ar      1 RES1    0.0000
     15 C15        5.3235    0.7886    1.6548 C.ar      1 RES1    0.0000
     16 C16        5.2785    1.6501    0.5888 C.ar      1 RES1    0.0000
     17 C17        4.3876    2.6641    0.5645 C.ar      1 RES1    0.0000
     18 C18        3.5017    2.8562    1.5675 C.ar      1 RES1    0.0000
     19 C19        3.5151    1.9616    2.6355 C.ar      1 RES1    0.0000
     20 N1         4.4755    0.0928    3.8314 N.2       1 RES1    0.0000
     21 N2         7.7322    4.7449    4.0425 N.pl3     1 RES1    0.0000
     22 N3         6.7950    0.2452    9.4516 N.pl3     1 RES1    0.0000
     23 N4         4.0936   -3.5256    7.7217 N.pl3     1 RES1    0.0000
     24 O1         7.5067    4.6588    2.8405 O.2       1 RES1    0.0000
     25 O2         8.2205    5.7058    4.6050 O.2       1 RES1    0.0000
     26 O3         7.8814    0.6163    9.2810 O.2       1 RES1    0.0000
     27 O4         6.1386    0.2916   10.4993 O.2       1 RES1    0.0000
     28 O5         4.3900   -4.1021    8.7896 O.2       1 RES1    0.0000
     29 O6         3.3978   -4.0093    6.8668 O.2       1 RES1    0.0000
     30 H1         6.2065    2.7038    3.4233 H         1 RES1    0.0000
     31 H2         8.3435    4.1995    6.5237 H         1 RES1    0.0000
     32 H3         7.6877    2.4030    7.8719 H         1 RES1    0.0000
     33 H4         5.3837   -1.9530    9.4130 H         1 RES1    0.0000
     34 H5         4.0223   -2.0126    5.5938 H         1 RES1    0.0000
     35 H6         5.9373    0.0583    1.6690 H         1 RES1    0.0000
     36 H7         5.8982    1.5713   -0.1421 H         1 RES1    0.0000
     37 H8         4.3662    3.2717   -0.1868 H         1 RES1    0.0000
     38 H9         2.8418    3.5521    1.5005 H         1 RES1    0.0000
     39 H10        2.8641    2.0484    3.3542 H         1 RES1    0.0000
@<TRIPOS>BOND
     1    1    2 1
     2    2    3 ar
     3    3    4 ar
     4    4    5 ar
     5    5    6 ar
     6    6    7 ar
     7    7    2 ar
     8    8    7 1
     9    9    8 ar
    10   10    9 ar
    11   11   10 ar
    12   12   11 ar
    13   13    1 1
    14   14   15 ar
    15   15   16 ar
    16   16   17 ar
    17   17   18 ar
    18   18   19 ar
    19   19   14 ar
    20   20    1 2
    21   21    4 1
    22   22    9 1
    23   23   11 1
    24   24   21 2
    25   25   21 2
    26   26   22 2
    27   27   22 2
    28   28   23 2
    29   29   23 2
    30   30    3 1
    31   31    5 1
    32   32    6 1
    33   33   10 1
    34   34   12 1
    35   35   15 1
    36   36   16 1
    37   37   17 1
    38   38   18 1
    39   39   19 1
    40    8   13 ar
    41   12   13 ar
    42   14   20 1
@<TRIPOS>SUBSTRUCTURE
     1 RES1 1

@<TRIPOS>CRYSIN
  12.9860    6.6270   20.7470  90.0000 101.8600  90.0000  14 2

