# MOL2 file generated by ConQuest
# Please check atom types

@<TRIPOS>MOLECULE
TEVBUS
    67    69     1
SMALL
NO_CHARGES
****
Generated from CSD

@<TRIPOS>ATOM
      1 C1         0.4846    2.1179    1.6904 C.3       1 RES1    0.0000
      2 H1         0.4632    3.0762    1.4056 H         1 RES1    0.0000
      3 C2        -0.7815    1.8443    2.4799 C.3       1 RES1    0.0000
      4 H2        -0.9062    0.8898    2.7500 H         1 RES1    0.0000
      5 O1        -1.1345    2.8050    3.4944 O.3       1 RES1    0.0000
      6 C3        -2.0287    2.6162    2.3685 C.3       1 RES1    0.0000
      7 C4        -3.3472    1.9820    2.7508 C.3       1 RES1    0.0000
      8 H3        -3.8937    2.6532    3.2315 H         1 RES1    0.0000
      9 H4        -3.1695    1.2362    3.3774 H         1 RES1    0.0000
     10 C5        -4.1570    1.4473    1.5729 C.3       1 RES1    0.0000
     11 H5        -5.0357    1.1298    1.9014 H         1 RES1    0.0000
     12 H6        -4.3207    2.1836    0.9313 H         1 RES1    0.0000
     13 C6        -3.4724    0.3372    0.8711 C.2       1 RES1    0.0000
     14 H7        -2.5968    0.5014    0.5396 H         1 RES1    0.0000
     15 C7        -3.9819   -0.8604    0.6706 C.2       1 RES1    0.0000
     16 H8        -4.8538   -1.0644    0.9864 H         1 RES1    0.0000
     17 H9        -3.4779   -1.5205    0.2101 H         1 RES1    0.0000
     18 O2         0.4702    1.3146    0.5098 O.3       1 RES1    0.0000
     19 H10        0.7169    0.4817    0.7436 H         1 RES1    0.0000
     20 C8         1.7083    1.9257    2.5739 C.ar      1 RES1    0.0000
     21 C9         2.2372    0.6474    2.8141 C.ar      1 RES1    0.0000
     22 C10        3.3601    0.4747    3.5998 C.ar      1 RES1    0.0000
     23 H11        3.7124   -0.3960    3.7436 H         1 RES1    0.0000
     24 C11        3.9735    1.5812    4.1803 C.ar      1 RES1    0.0000
     25 H12        4.7532    1.4696    4.7116 H         1 RES1    0.0000
     26 C12        3.4465    2.8426    3.9821 C.ar      1 RES1    0.0000
     27 C13        2.3030    3.0302    3.1898 C.ar      1 RES1    0.0000
     28 O3         1.5566   -0.4046    2.2294 O.3       1 RES1    0.0000
     29 C14        2.1936   -1.6786    2.2454 C.3       1 RES1    0.0000
     30 H13        1.6180   -2.3366    1.8024 H         1 RES1    0.0000
     31 H14        2.3512   -1.9541    3.1723 H         1 RES1    0.0000
     32 H15        3.0502   -1.6212    1.7718 H         1 RES1    0.0000
     33 O4         3.9851    3.9936    4.5097 O.3       1 RES1    0.0000
     34 C15        4.9880    3.8572    5.4991 C.3       1 RES1    0.0000
     35 H16        5.2844    4.7452    5.7887 H         1 RES1    0.0000
     36 H17        5.7491    3.3646    5.1267 H         1 RES1    0.0000
     37 H18        4.6250    3.3680    6.2671 H         1 RES1    0.0000
     38 C16        1.7640    4.4268    3.0205 C.3       1 RES1    0.0000
     39 H19        2.0114    4.9576    3.8190 H         1 RES1    0.0000
     40 H20        0.7754    4.3798    2.9897 H         1 RES1    0.0000
     41 C17        2.2452    5.1584    1.7925 C.2       1 RES1    0.0000
     42 C18        3.0326    4.6172    0.8884 C.2       1 RES1    0.0000
     43 H21        3.2909    5.1170    0.1224 H         1 RES1    0.0000
     44 H22        3.3430    3.7270    1.0007 H         1 RES1    0.0000
     45 C19        1.7193    6.5605    1.6748 C.3       1 RES1    0.0000
     46 H23        2.1246    6.9967    0.8966 H         1 RES1    0.0000
     47 H24        1.9447    7.0626    2.4858 H         1 RES1    0.0000
     48 H25        0.7455    6.5364    1.5658 H         1 RES1    0.0000
     49 C20       -2.0834    3.7835    1.4210 C.3       1 RES1    0.0000
     50 H26       -1.2066    4.2426    1.3893 H         1 RES1    0.0000
     51 H27       -2.3106    3.4750    0.5080 H         1 RES1    0.0000
     52 O5        -3.1051    4.6842    1.9160 O.3       1 RES1    0.0000
     53 C21       -2.8834    5.9984    1.7874 C.2       1 RES1    0.0000
     54 O6        -1.9239    6.4745    1.2400 O.2       1 RES1    0.0000
     55 C22       -3.9517    6.7944    2.4551 C.ar      1 RES1    0.0000
     56 C23       -3.7345    8.1542    2.6384 C.ar      1 RES1    0.0000
     57 H28       -2.9407    8.5566    2.3063 H         1 RES1    0.0000
     58 C24       -4.6740    8.9222    3.3046 C.ar      1 RES1    0.0000
     59 H29       -4.5212    9.8450    3.4702 H         1 RES1    0.0000
     60 C25       -5.8379    8.3118    3.7212 C.ar      1 RES1    0.0000
     61 C26       -6.0875    6.9710    3.5413 C.ar      1 RES1    0.0000
     62 H30       -6.9023    6.5830    3.8384 H         1 RES1    0.0000
     63 C27       -5.1223    6.2022    2.9161 C.ar      1 RES1    0.0000
     64 H31       -5.2600    5.2694    2.8021 H         1 RES1    0.0000
     65 N1        -6.8743    9.1344    4.3617 N.pl3     1 RES1    0.0000
     66 O7        -6.5470   10.2264    4.8155 O.2       1 RES1    0.0000
     67 O8        -8.0124    8.6975    4.4039 O.2       1 RES1    0.0000
@<TRIPOS>BOND
     1    1    2 1
     2    3    1 1
     3    4    3 1
     4    5    3 1
     5    6    3 1
     6    7    6 1
     7    8    7 1
     8    9    7 1
     9   10    7 1
    10   11   10 1
    11   12   10 1
    12   13   10 1
    13   14   13 1
    14   15   13 2
    15   16   15 1
    16   17   15 1
    17   18    1 1
    18   19   18 1
    19   20    1 1
    20   21   20 ar
    21   22   21 ar
    22   23   22 1
    23   24   22 ar
    24   25   24 1
    25   26   24 ar
    26   27   20 ar
    27   28   21 1
    28   29   28 1
    29   30   29 1
    30   31   29 1
    31   32   29 1
    32   33   26 1
    33   34   33 1
    34   35   34 1
    35   36   34 1
    36   37   34 1
    37   38   27 1
    38   39   38 1
    39   40   38 1
    40   41   38 1
    41   42   41 2
    42   43   42 1
    43   44   42 1
    44   45   41 1
    45   46   45 1
    46   47   45 1
    47   48   45 1
    48   49    6 1
    49   50   49 1
    50   51   49 1
    51   52   49 1
    52   53   52 1
    53   54   53 2
    54   55   53 1
    55   56   55 ar
    56   57   56 1
    57   58   56 ar
    58   59   58 1
    59   60   58 ar
    60   61   60 ar
    61   62   61 1
    62   63   55 ar
    63   64   63 1
    64   65   60 1
    65   66   65 2
    66   67   65 2
    67    5    6 1
    68   26   27 ar
    69   61   63 ar
@<TRIPOS>SUBSTRUCTURE
     1 RES1 1

@<TRIPOS>CRYSIN
  10.9760   11.3680   11.4464  90.0790 116.3970 101.3380   2 1

