# MOL2 file generated by ConQuest
# Please check atom types

@<TRIPOS>MOLECULE
TEVDEG
    47    48     2
SMALL
USER_CHARGES
****
Generated from CSD

@<TRIPOS>ATOM
      1 C1         3.8227   -2.9858    5.8836 C.3       1 RES1    0.0000
      2 C2         3.5035   -2.2349    7.1518 C.3       1 RES1    0.0000
      3 H1         2.5438   -1.9897    7.1591 H         1 RES1    0.0000
      4 H2         3.6781   -2.8171    7.9333 H         1 RES1    0.0000
      5 N1         4.3087   -1.0355    7.2537 N.pl3     1 RES1    0.0000
      6 H3         5.1570   -1.0494    7.0223 H         1 RES1    0.0000
      7 C3         3.7378    0.1232    7.7138 C.2       1 RES1    0.0000
      8 N2         2.4553    0.3656    7.6670 N.2       1 RES1    0.0000
      9 O1         2.3262    1.6557    8.2189 O.3       1 RES1    0.0000
     10 N3         3.5461    2.1561    8.6018 N.2       1 RES1    0.0000
     11 C4         4.4149    1.2416    8.2978 C.2       1 RES1    0.0000
     12 C5         5.8477    1.3873    8.5320 C.2       1 RES1    0.0000
     13 N4         6.6485    0.6593    7.8102 N.2       1 RES1    0.0000
     14 O2         7.9312    0.9452    8.2161 O.3       1 RES1    0.0000
     15 N5         7.8514    1.9075    9.2657 N.pl3     1 RES1    1.0000
     16 C6         6.5791    2.1873    9.4705 C.2       1 RES1    0.0000
     17 C7         6.1590    3.0832   10.5312 C.2       1 RES1    0.0000
     18 N6         4.9843    2.9351   11.0858 N.2       1 RES1    0.0000
     19 O3         4.8929    3.9165   12.0363 O.3       1 RES1    0.0000
     20 N7         6.0590    4.6880   12.0822 N.2       1 RES1    0.0000
     21 C8         6.8381    4.1825   11.1620 C.2       1 RES1    0.0000
     22 N8         8.0786    4.6842   10.8783 N.3       1 RES1    0.0000
     23 H4         8.5308    4.3912   10.1822 H         1 RES1    0.0000
     24 C9         8.6323    5.7024   11.7406 C.3       1 RES1    0.0000
     25 H5         9.4074    5.3296   12.2319 H         1 RES1    0.0000
     26 H6         7.9528    5.9765   12.4054 H         1 RES1    0.0000
     27 C10        9.0778    6.9193   10.9426 C.3       1 RES1    0.0000
     28 N9         3.8296   -2.0805    4.6723 N.pl3     1 RES1    0.0000
     29 O4         4.7637   -2.1787    3.8973 O.2       1 RES1    0.0000
     30 O5         2.8763   -1.3290    4.5906 O.2       1 RES1    0.0000
     31 N10        5.1712   -3.6873    5.9176 N.pl3     1 RES1    0.0000
     32 O6         6.0424   -3.1382    6.5797 O.2       1 RES1    0.0000
     33 O7         5.2883   -4.7342    5.3041 O.2       1 RES1    0.0000
     34 N11        2.7980   -4.0924    5.6458 N.pl3     1 RES1    0.0000
     35 O8         2.6055   -4.7952    6.6219 O.2       1 RES1    0.0000
     36 O9         2.2895   -4.1636    4.5456 O.2       1 RES1    0.0000
     37 O10        8.9119    2.2279    9.7249 O.2       1 RES1   -1.0000
     38 N12       10.4056    6.7241   10.2391 N.pl3     1 RES1    0.0000
     39 O11       10.6485    5.5739    9.8902 O.2       1 RES1    0.0000
     40 O12       11.0900    7.7080   10.0647 O.2       1 RES1    0.0000
     41 N13        9.2485    8.1182   11.8618 N.pl3     1 RES1    0.0000
     42 O13        8.7927    9.1813   11.5036 O.2       1 RES1    0.0000
     43 O14        9.8173    7.8765   12.9087 O.2       1 RES1    0.0000
     44 N14        8.0575    7.2988    9.8801 N.pl3     1 RES1    0.0000
     45 O15        8.4919    7.5288    8.7717 O.2       1 RES1    0.0000
     46 O16        6.9096    7.3238   10.2520 O.2       1 RES1    0.0000
     47 O17        6.8625   -0.0564    6.8910 Du        2 SUP2    0.0000
@<TRIPOS>BOND
     1    1    2 1
     2    2    3 1
     3    4    2 1
     4    5    2 1
     5    6    5 1
     6    7    5 1
     7    8    7 2
     8    9    8 1
     9   10    9 1
    10   11    7 1
    11   12   11 1
    12   13   12 2
    13   14   13 1
    14   15   14 1
    15   16   12 1
    16   17   16 1
    17   18   17 2
    18   19   18 1
    19   20   19 1
    20   21   17 1
    21   22   21 1
    22   23   22 1
    23   24   22 1
    24   25   24 1
    25   26   24 1
    26   27   24 1
    27   28    1 1
    28   29   28 2
    29   30   28 2
    30   31    1 1
    31   32   31 2
    32   33   31 2
    33   34    1 1
    34   35   34 2
    35   36   34 2
    36   37   15 1
    37   38   27 1
    38   39   38 2
    39   40   38 2
    40   41   27 1
    41   42   41 2
    42   43   41 2
    43   44   27 1
    44   45   44 2
    45   46   44 2
    46   10   11 2
    47   15   16 2
    48   20   21 2
@<TRIPOS>SUBSTRUCTURE
     1 RES1 1
     2 SUP2 47

@<TRIPOS>CRYSIN
  12.1720   18.8060    9.8890  90.0000 111.7800  90.0000  14 1

