# MOL2 file generated by ConQuest
# Please check atom types

@<TRIPOS>MOLECULE
TEVGAF
    34    35     1
SMALL
NO_CHARGES
****
Generated from CSD

@<TRIPOS>ATOM
      1 O1         4.5639    0.9243    6.7996 O.3       1 RES1    0.0000
      2 O2         3.4149   -6.5849    4.7209 O.2       1 RES1    0.0000
      3 N1         4.4980   -0.3024    6.1233 N.2       1 RES1    0.0000
      4 N2         3.9280   -3.5367    7.4312 N.2       1 RES1    0.0000
      5 N3         3.6224   -3.0738    5.2512 N.pl3     1 RES1    0.0000
      6 N4         3.3770   -5.3914    4.3963 N.pl3     1 RES1    0.0000
      7 O3         3.1835   -5.0027    3.2483 O.2       1 RES1    0.0000
      8 C1         3.5812   -4.4400    5.4300 C.2       1 RES1    0.0000
      9 C2         5.1543    4.3944    6.2717 C.ar      1 RES1    0.0000
     10 H1         4.8478    4.4672    5.3752 H         1 RES1    0.0000
     11 C3         5.4072    3.1368    6.8076 C.ar      1 RES1    0.0000
     12 C4         6.0126    4.2063    8.8977 C.ar      1 RES1    0.0000
     13 H2         6.2997    4.1309    9.7994 H         1 RES1    0.0000
     14 C5         5.7537    5.4706    8.3575 C.ar      1 RES1    0.0000
     15 C6         5.3411    5.5427    7.0244 C.ar      1 RES1    0.0000
     16 H3         5.1868    6.3927    6.6279 H         1 RES1    0.0000
     17 C7         3.7761   -4.7000    6.7563 C.2       1 RES1    0.0000
     18 H4         3.8008   -5.5657    7.1462 H         1 RES1    0.0000
     19 C8         5.2263    1.9020    5.9680 C.3       1 RES1    0.0000
     20 H5         4.6759    2.1061    5.1705 H         1 RES1    0.0000
     21 H6         6.1043    1.5589    5.6654 H         1 RES1    0.0000
     22 C9         5.8945    6.7235    9.2009 C.3       1 RES1    0.0000
     23 H7         5.9780    7.5051    8.6153 H         1 RES1    0.0000
     24 H8         6.6936    6.6505    9.7631 H         1 RES1    0.0000
     25 H9         5.1028    6.8255    9.7696 H         1 RES1    0.0000
     26 C10        3.9985   -1.1863    6.8922 C.2       1 RES1    0.0000
     27 H10        3.6472   -0.9235    7.7732 H         1 RES1    0.0000
     28 C11        3.8430   -2.5811    6.4937 C.2       1 RES1    0.0000
     29 C12        5.8527    3.0583    8.1256 C.ar      1 RES1    0.0000
     30 H11        6.0506    2.2095    8.5026 H         1 RES1    0.0000
     31 C13        3.3942   -2.3050    4.0177 C.3       1 RES1    0.0000
     32 H12        3.5028   -1.3494    4.2040 H         1 RES1    0.0000
     33 H13        2.4863   -2.4741    3.6910 H         1 RES1    0.0000
     34 H14        4.0427   -2.5803    3.3373 H         1 RES1    0.0000
@<TRIPOS>BOND
     1    1    3 1
     2    2    6 2
     3    3   26 2
     4    4   17 1
     5    5    8 1
     6    6    7 2
     7    8    6 1
     8    9   10 1
     9   11    9 ar
    10   12   13 1
    11   14   12 ar
    12   15    9 ar
    13   16   15 1
    14   17    8 2
    15   18   17 1
    16   19    1 1
    17   20   19 1
    18   21   19 1
    19   22   14 1
    20   23   22 1
    21   24   22 1
    22   25   22 1
    23   26   27 1
    24   28    4 2
    25   29   11 ar
    26   30   29 1
    27   31    5 1
    28   32   31 1
    29   33   31 1
    30   34   31 1
    31    5   28 1
    32   11   19 1
    33   12   29 ar
    34   14   15 ar
    35   26   28 1
@<TRIPOS>SUBSTRUCTURE
     1 RES1 1

@<TRIPOS>CRYSIN
   7.2106   13.7834   13.0568  90.0000  97.1480  90.0000  14 1

