# MOL2 file generated by ConQuest
# Please check atom types

@<TRIPOS>MOLECULE
TEVHIN
    57    61     1
SMALL
NO_CHARGES
****
Generated from CSD

@<TRIPOS>ATOM
      1 N1         2.4805   18.4424    6.6698 N.pl3     1 RES1    0.0000
      2 O1         1.0147    7.1774    2.4508 O.2       1 RES1    0.0000
      3 O2         1.0240    9.0783    3.6438 O.3       1 RES1    0.0000
      4 O3         0.0091   10.7763    1.0012 O.2       1 RES1    0.0000
      5 O4         1.8563   11.5654    1.9875 O.3       1 RES1    0.0000
      6 O5         3.7581   13.2555    3.1668 O.3       1 RES1    0.0000
      7 O6         4.2518   12.3844    5.1867 O.2       1 RES1    0.0000
      8 O7         2.4285   19.3849    5.9102 O.2       1 RES1    0.0000
      9 O8         2.2765   18.5079    7.8728 O.2       1 RES1    0.0000
     10 C1         1.9207    8.5581    0.0523 C.3       1 RES1    0.0000
     11 H1         1.6164    7.6179    0.1046 H         1 RES1    0.0000
     12 H2         1.3493    9.0448   -0.5928 H         1 RES1    0.0000
     13 C2         3.3973    8.6325   -0.3624 C.3       1 RES1    0.0000
     14 C3         3.6971    8.5976   -1.8729 C.3       1 RES1    0.0000
     15 H3         3.1656    7.8934   -2.3225 H         1 RES1    0.0000
     16 H4         3.4953    9.4708   -2.2938 H         1 RES1    0.0000
     17 C4         5.2009    8.2846   -1.9514 C.3       1 RES1    0.0000
     18 H5         5.7171    9.1107   -2.1282 H         1 RES1    0.0000
     19 H6         5.3816    7.6368   -2.6774 H         1 RES1    0.0000
     20 C5         5.5971    7.6849   -0.5853 C.3       1 RES1    0.0000
     21 H7         6.1730    8.3118   -0.0797 H         1 RES1    0.0000
     22 H8         6.0802    6.8295   -0.7036 H         1 RES1    0.0000
     23 C6         4.2521    7.4621    0.1445 C.3       1 RES1    0.0000
     24 H9         3.8502    6.6175   -0.2080 H         1 RES1    0.0000
     25 C7         4.3115    7.3506    1.6924 C.3       1 RES1    0.0000
     26 H10        3.5544    6.7916    2.0000 H         1 RES1    0.0000
     27 H11        5.1480    6.8864    1.9452 H         1 RES1    0.0000
     28 C8         4.2565    8.6948    2.4259 C.3       1 RES1    0.0000
     29 H12        5.1712    9.0685    2.4782 H         1 RES1    0.0000
     30 H13        3.9391    8.5423    3.3511 H         1 RES1    0.0000
     31 C9         3.3394    9.7219    1.7509 C.3       1 RES1    0.0000
     32 C10        3.1176   11.0212    2.5579 C.3       1 RES1    0.0000
     33 H14        2.9704   10.7897    3.5192 H         1 RES1    0.0000
     34 C11        1.1024   10.5740    1.4309 C.2       1 RES1    0.0000
     35 C12        1.8740    9.2356    1.4533 C.3       1 RES1    0.0000
     36 C13        1.2564    8.3428    2.5442 C.2       1 RES1    0.0000
     37 C14        0.4968    8.3671    4.7919 C.3       1 RES1    0.0000
     38 H15       -0.3373    7.9177    4.5429 H         1 RES1    0.0000
     39 H16        0.3212    9.0018    5.5179 H         1 RES1    0.0000
     40 H17        1.1496    7.7011    5.0920 H         1 RES1    0.0000
     41 C15        3.8426    9.9401    0.3250 C.3       1 RES1    0.0000
     42 H18        4.8269   10.0462    0.2989 H         1 RES1    0.0000
     43 H19        3.4177   10.7317   -0.0922 H         1 RES1    0.0000
     44 C16        4.1342   12.0125    2.4645 C.3       1 RES1    0.0000
     45 H20        4.3065   12.2142    1.5118 H         1 RES1    0.0000
     46 H21        4.9720   11.6564    2.8567 H         1 RES1    0.0000
     47 C17        3.8522   13.2926    4.4980 C.2       1 RES1    0.0000
     48 C18        3.4694   14.6357    5.0485 C.ar      1 RES1    0.0000
     49 C19        3.3174   15.7311    4.2291 C.ar      1 RES1    0.0000
     50 H22        3.4248   15.6272    3.2901 H         1 RES1    0.0000
     51 C20        3.0091   16.9950    4.7471 C.ar      1 RES1    0.0000
     52 H23        2.9222   17.7536    4.1817 H         1 RES1    0.0000
     53 C21        2.8359   17.0940    6.1119 C.ar      1 RES1    0.0000
     54 C22        2.9696   16.0332    6.9675 C.ar      1 RES1    0.0000
     55 H24        2.8445   16.1445    7.9027 H         1 RES1    0.0000
     56 C23        3.2916   14.7922    6.4370 C.ar      1 RES1    0.0000
     57 H25        3.3924   14.0439    7.0123 H         1 RES1    0.0000
@<TRIPOS>BOND
     1    1    8 2
     2    2   36 2
     3    3   36 1
     4    4   34 2
     5    5   32 1
     6    6   44 1
     7    7   47 2
     8    9    1 2
     9   10   11 1
    10   12   10 1
    11   13   10 1
    12   14   13 1
    13   15   14 1
    14   16   14 1
    15   17   14 1
    16   18   17 1
    17   19   17 1
    18   20   17 1
    19   21   20 1
    20   22   20 1
    21   23   13 1
    22   24   23 1
    23   25   23 1
    24   26   25 1
    25   27   25 1
    26   28   25 1
    27   29   28 1
    28   30   28 1
    29   31   28 1
    30   32   31 1
    31   33   32 1
    32   34    5 1
    33   35   10 1
    34   36   35 1
    35   37    3 1
    36   38   37 1
    37   39   37 1
    38   40   37 1
    39   41   13 1
    40   42   41 1
    41   43   41 1
    42   44   32 1
    43   45   44 1
    44   46   44 1
    45   47    6 1
    46   48   47 1
    47   49   48 ar
    48   50   49 1
    49   51   49 ar
    50   52   51 1
    51   53    1 1
    52   54   53 ar
    53   55   54 1
    54   56   48 ar
    55   57   56 1
    56   20   23 1
    57   31   35 1
    58   31   41 1
    59   34   35 1
    60   51   53 ar
    61   54   56 ar
@<TRIPOS>SUBSTRUCTURE
     1 RES1 1

@<TRIPOS>CRYSIN
   7.1090   12.0380   13.4070 111.5100  90.5500  96.7320   2 1

