# MOL2 file generated by ConQuest
# Please check atom types

@<TRIPOS>MOLECULE
TEVHEH01
    13    13     1
SMALL
NO_CHARGES
****
Generated from CSD

@<TRIPOS>ATOM
      1 O1         2.6813    3.2189    0.8833 O.2       1 RES1    0.0000
      2 O2         2.5553    1.0573    0.8313 O.2       1 RES1    0.0000
      3 O3         6.9937    4.4179    3.4838 O.2       1 RES1    0.0000
      4 O4         8.1530    2.6284    3.7672 O.2       1 RES1    0.0000
      5 N1         5.0628    3.0269    2.1913 N.2       1 RES1    0.0000
      6 N2         4.9229    0.8209    2.0918 N.pl3     1 RES1    0.0000
      7 H1         4.6180    0.0202    1.9526 H         1 RES1    0.0000
      8 N3         3.1097    2.1024    1.1166 N.pl3     1 RES1    0.0000
      9 N4         7.1620    3.2190    3.3758 N.pl3     1 RES1    0.0000
     10 C1         4.3672    2.0028    1.8046 C.2       1 RES1    0.0000
     11 C2         6.0827    1.0907    2.7154 C.2       1 RES1    0.0000
     12 H2         6.6403    0.4207    3.0526 H         1 RES1    0.0000
     13 C3         6.1357    2.4407    2.7606 C.2       1 RES1    0.0000
@<TRIPOS>BOND
     1    1    8 2
     2    2    8 2
     3    3    9 2
     4    4    9 2
     5    5   10 2
     6    6    7 1
     7    8   10 1
     8    9   13 1
     9   10    6 1
    10   11    6 1
    11   12   11 1
    12   13    5 1
    13   11   13 2
@<TRIPOS>SUBSTRUCTURE
     1 RES1 1

@<TRIPOS>CRYSIN
   6.3001   10.0898   18.4560  90.0000  90.0000  90.0000  61 1

