# MOL2 file generated by ConQuest
# Please check atom types

@<TRIPOS>MOLECULE
TEVHEH
    13    13     1
SMALL
NO_CHARGES
****
Generated from CSD

@<TRIPOS>ATOM
      1 O1         3.2406    0.8842    3.6237 O.2       1 RES1    0.0000
      2 O2         1.0562    0.8324    3.7352 O.2       1 RES1    0.0000
      3 O3         2.6411    3.7845   -1.8492 O.2       1 RES1    0.0000
      4 O4         4.4356    3.4959   -0.6884 O.2       1 RES1    0.0000
      5 N1         0.8233    2.1068    1.3743 N.3       1 RES1    0.0000
      6 N2         2.1388    1.1154    3.2108 N.pl3     1 RES1    0.0000
      7 N3         3.0513    2.1993    1.2337 N.2       1 RES1    0.0000
      8 N4         3.2153    3.3757   -0.8676 N.pl3     1 RES1    0.0000
      9 C1         2.0355    1.8053    1.9189 C.2       1 RES1    0.0000
     10 C2         2.4558    2.7635    0.1773 C.2       1 RES1    0.0000
     11 C3         1.0856    2.7339    0.1963 C.2       1 RES1    0.0000
     12 H1        -0.2430    2.0347    1.6466 H         1 RES1    0.0000
     13 H2         0.3241    3.2000   -0.3800 H         1 RES1    0.0000
@<TRIPOS>BOND
     1    1    6 2
     2    2    6 2
     3    3    8 2
     4    4    8 2
     5    5    9 1
     6    6    9 1
     7    7    9 2
     8    8   10 1
     9   10    7 1
    10   11    5 1
    11   12    5 1
    12   13   11 1
    13   10   11 2
@<TRIPOS>SUBSTRUCTURE
     1 RES1 1

@<TRIPOS>CRYSIN
  10.1270   18.4970    6.3330  90.0000  90.0000  90.0000  61 1

