# MOL2 file generated by ConQuest
# Please check atom types

@<TRIPOS>MOLECULE
TEVKAI
    38    38     2
SMALL
NO_CHARGES
****
Generated from CSD

@<TRIPOS>ATOM
      1 O1         4.8647    5.7393    2.0912 O.3       1 RES1    0.0000
      2 H1         4.3221    5.5894    2.8584 H         1 RES1    0.0000
      3 N1         5.2622    7.0872    2.3204 N.2       1 RES1    0.0000
      4 N2         5.4016    7.0678    0.0000 N.pl3     1 RES1    0.0000
      5 H2         5.0413    6.2528    0.0000 H         1 RES1    0.0000
      6 C1         5.5248    7.6863    1.2224 C.2       1 RES1    0.0000
      7 C2         5.9727    9.1273    1.2478 C.3       1 RES1    0.0000
      8 H3         6.9610    9.1685    1.2791 H         1 RES1    0.0000
      9 H4         5.6181    9.5731    2.0572 H         1 RES1    0.0000
     10 C3         5.4671    9.8486    0.0000 C.3       1 RES1    0.0000
     11 H5         5.7911   10.7840    0.0000 H         1 RES1    0.0000
     12 H6         4.4774    9.8631    0.0000 H         1 RES1    0.0000
     13 O2         4.9311    8.3702    4.6967 O.3       2 RES2    0.0000
     14 H7         5.1552    7.8797    3.9949 H         2 RES2    0.0000
     15 N3         3.5773    8.7272    4.4653 N.2       2 RES2    0.0000
     16 N4         3.5802    8.8216    6.7895 N.pl3     2 RES2    0.0000
     17 H8         4.4361    8.5206    6.7895 H         2 RES2    0.0000
     18 C4         2.9607    8.9553    5.5678 C.2       2 RES2    0.0000
     19 C5         1.5265    9.3900    5.5396 C.3       2 RES2    0.0000
     20 H9         1.0845    9.0228    4.7336 H         2 RES2    0.0000
     21 H10        1.4796   10.3780    5.4940 H         2 RES2    0.0000
     22 C6         0.7996    8.9008    6.7895 C.3       2 RES2    0.0000
     23 H11        0.7655    7.9108    6.7895 H         2 RES2    0.0000
     24 H12       -0.1296    9.2420    6.7895 H         2 RES2    0.0000
     25 O1E        4.8647    5.7393   -2.0912 O.3       1 RES1    0.0000
     26 H1E        4.3221    5.5894   -2.8584 H         1 RES1    0.0000
     27 N1E        5.2622    7.0872   -2.3204 N.2       1 RES1    0.0000
     28 C1E        5.5248    7.6863   -1.2224 C.2       1 RES1    0.0000
     29 C2E        5.9727    9.1273   -1.2478 C.3       1 RES1    0.0000
     30 H3E        6.9610    9.1685   -1.2791 H         1 RES1    0.0000
     31 H4E        5.6181    9.5731   -2.0572 H         1 RES1    0.0000
     32 O2E        4.9311    8.3702    8.8822 O.3       2 RES2    0.0000
     33 H7E        5.1552    7.8797    9.5840 H         2 RES2    0.0000
     34 N3E        3.5773    8.7272    9.1136 N.2       2 RES2    0.0000
     35 C4E        2.9607    8.9553    8.0111 C.2       2 RES2    0.0000
     36 C5E        1.5265    9.3900    8.0393 C.3       2 RES2    0.0000
     37 H9E        1.0845    9.0228    8.8453 H         2 RES2    0.0000
     38 H10E       1.4796   10.3780    8.0849 H         2 RES2    0.0000
@<TRIPOS>BOND
     1    1    2 1
     2    3    1 1
     3    4    5 1
     4    6    3 2
     5    7    6 1
     6    8    7 1
     7    9    7 1
     8   10    7 1
     9   11   10 1
    10   12   10 1
    11   13   14 1
    12   15   13 1
    13   16   17 1
    14   18   15 2
    15   19   18 1
    16   20   19 1
    17   21   19 1
    18   22   19 1
    19   23   22 1
    20   24   22 1
    21   25   26 1
    22   27   25 1
    23   28    4 1
    24   29   10 1
    25   30   29 1
    26   31   29 1
    27   32   33 1
    28   34   32 1
    29   35   16 1
    30   36   22 1
    31   37   36 1
    32   38   36 1
    33    4    6 1
    34   16   18 1
    35   27   28 2
    36   28   29 1
    37   34   35 2
    38   35   36 1
@<TRIPOS>SUBSTRUCTURE
     1 RES1 1
     2 RES2 13

@<TRIPOS>CRYSIN
   7.1205   14.1467   13.5789  90.0000  90.0000  90.0000  55 1

