# MOL2 file generated by ConQuest
# Please check atom types

@<TRIPOS>MOLECULE
TEVKAI01
    38    38     2
SMALL
NO_CHARGES
****
Generated from CSD

@<TRIPOS>ATOM
      1 O1         8.4177    2.2457    2.0919 O.3       1 RES1    0.0000
      2 H1         8.5831    2.7633    2.8647 H         1 RES1    0.0000
      3 N1         7.0883    1.7162    0.0000 N.pl3     1 RES1    0.0000
      4 H2         7.8723    2.0743    0.0000 H         1 RES1    0.0000
      5 N2         7.0685    1.8533    2.3166 N.2       1 RES1    0.0000
      6 C1         6.4703    1.5969    1.2234 C.2       1 RES1    0.0000
      7 C2         5.0286    1.1543    1.2465 C.3       1 RES1    0.0000
      8 H3         4.9938    0.1776    1.2667 H         1 RES1    0.0000
      9 H4         4.6186    1.4633    2.0732 H         1 RES1    0.0000
     10 C3         4.3118    1.6615    0.0000 C.3       1 RES1    0.0000
     11 H5         4.3043    2.6070    0.0000 H         1 RES1    0.0000
     12 H6         3.3981    1.3497    0.0000 H         1 RES1    0.0000
     13 O2         8.3746    4.9227    8.8802 O.3       2 RES2    0.0000
     14 H7         7.8921    5.1288    9.5854 H         2 RES2    0.0000
     15 N3         8.8276    3.5724    6.7885 N.pl3     2 RES2    0.0000
     16 H8         8.5236    4.3829    6.7885 H         2 RES2    0.0000
     17 N4         8.7340    3.5681    9.1122 N.2       2 RES2    0.0000
     18 C4         8.9641    2.9579    8.0107 C.2       2 RES2    0.0000
     19 C5         9.4000    1.5244    8.0370 C.3       2 RES2    0.0000
     20 H9         9.0659    1.1295    8.8454 H         2 RES2    0.0000
     21 H10       10.3416    1.4918    8.0457 H         2 RES2    0.0000
     22 C6         8.9137    0.7942    6.7885 C.3       2 RES2    0.0000
     23 H11        9.1976   -0.0995    6.7885 H         2 RES2    0.0000
     24 H12        7.9006    0.7601    6.7885 H         2 RES2    0.0000
     25 O1E        8.4177    2.2457   -2.0919 O.3       1 RES1    0.0000
     26 H1E        8.5831    2.7633   -2.8647 H         1 RES1    0.0000
     27 N2E        7.0685    1.8533   -2.3166 N.2       1 RES1    0.0000
     28 C1E        6.4703    1.5969   -1.2234 C.2       1 RES1    0.0000
     29 C2E        5.0286    1.1543   -1.2465 C.3       1 RES1    0.0000
     30 H3E        4.9938    0.1776   -1.2667 H         1 RES1    0.0000
     31 H4E        4.6186    1.4633   -2.0732 H         1 RES1    0.0000
     32 O2E        8.3746    4.9227    4.6968 O.3       2 RES2    0.0000
     33 H7E        7.8921    5.1288    3.9916 H         2 RES2    0.0000
     34 N4E        8.7340    3.5681    4.4648 N.2       2 RES2    0.0000
     35 C4E        8.9641    2.9579    5.5663 C.2       2 RES2    0.0000
     36 C5E        9.4000    1.5244    5.5400 C.3       2 RES2    0.0000
     37 H9E        9.0659    1.1295    4.7316 H         2 RES2    0.0000
     38 H10E      10.3416    1.4918    5.5313 H         2 RES2    0.0000
@<TRIPOS>BOND
     1    1    2 1
     2    3    4 1
     3    5    1 1
     4    6    3 1
     5    7    6 1
     6    8    7 1
     7    9    7 1
     8   10    7 1
     9   11   10 1
    10   12   10 1
    11   13   14 1
    12   15   16 1
    13   17   13 1
    14   18   15 1
    15   19   18 1
    16   20   19 1
    17   21   19 1
    18   22   19 1
    19   23   22 1
    20   24   22 1
    21   25   26 1
    22   27   25 1
    23   28    3 1
    24   29   10 1
    25   30   29 1
    26   31   29 1
    27   32   33 1
    28   34   32 1
    29   35   15 1
    30   36   22 1
    31   37   36 1
    32   38   36 1
    33    5    6 2
    34   17   18 2
    35   27   28 2
    36   28   29 1
    37   34   35 2
    38   35   36 1
@<TRIPOS>SUBSTRUCTURE
     1 RES1 1
     2 RES2 13

@<TRIPOS>CRYSIN
  14.1588    7.1036   13.5770  90.0000  90.0000  90.0000  55 1

