# MOL2 file generated by ConQuest
# Please check atom types

@<TRIPOS>MOLECULE
TEVSET
    84    88     2
SMALL
NO_CHARGES
****
Generated from CSD

@<TRIPOS>ATOM
      1 O1         0.8957   28.6749    1.9695 O.3       1 RES1    0.0000
      2 H1         0.6238   29.3854    2.2737 H         1 RES1    0.0000
      3 O2        -1.1617   23.2303    4.1109 O.2       1 RES1    0.0000
      4 O3        -2.2976   24.5322    5.3460 O.2       1 RES1    0.0000
      5 O4        -2.6158   31.1478    5.6032 O.2       1 RES1    0.0000
      6 O5         0.5501   28.9201    7.4777 O.3       2 RES2    0.0000
      7 H2         0.2155   29.5697    7.8492 H         2 RES2    0.0000
      8 O6         4.5226   29.6686    2.7701 O.2       2 RES2    0.0000
      9 O7         3.8978   31.7111    3.0669 O.2       2 RES2    0.0000
     10 O8        -0.1449   34.5217    7.6923 O.2       2 RES2    0.0000
     11 N1        -1.4658   24.3501    4.4866 N.pl3     1 RES1    0.0000
     12 N2        -0.5117   30.2555    3.4992 N.2       1 RES1    0.0000
     13 N3        -1.1185   33.7678    3.9102 N.3       1 RES1    0.0000
     14 N4        -1.9480   33.2560    4.9168 N.am      1 RES1    0.0000
     15 N5         3.8692   30.5143    3.3540 N.pl3     2 RES2    0.0000
     16 N6         0.1574   31.4147    8.0339 N.2       2 RES2    0.0000
     17 N7        -1.5873   33.2143   10.5510 N.3       2 RES2    0.0000
     18 N8        -1.3726   34.2504    9.6319 N.am      2 RES2    0.0000
     19 C1         0.3188   27.6610    2.6239 C.ar      1 RES1    0.0000
     20 C2        -0.6284   27.8704    3.6455 C.ar      1 RES1    0.0000
     21 C3        -1.1914   26.7661    4.2593 C.ar      1 RES1    0.0000
     22 H3        -1.8077   26.8819    4.9467 H         1 RES1    0.0000
     23 C4        -0.8450   25.4960    3.8590 C.ar      1 RES1    0.0000
     24 C5         0.0825   25.2950    2.8566 C.ar      1 RES1    0.0000
     25 H4         0.3058   24.4337    2.5897 H         1 RES1    0.0000
     26 C6         0.6648   26.3713    2.2641 C.ar      1 RES1    0.0000
     27 H5         1.3074   26.2367    1.6055 H         1 RES1    0.0000
     28 C7        -1.0025   29.2092    4.0490 C.2       1 RES1    0.0000
     29 H6        -1.6232   29.3117    4.7332 H         1 RES1    0.0000
     30 C8        -0.9040   31.5338    3.9134 C.2       1 RES1    0.0000
     31 C9        -0.4315   32.6886    3.3967 C.2       1 RES1    0.0000
     32 C10       -1.9096   31.8627    4.9040 C.2       1 RES1    0.0000
     33 C11       -3.1084   33.9772    5.3257 C.ar      1 RES1    0.0000
     34 C12       -3.7624   34.8359    4.4760 C.ar      1 RES1    0.0000
     35 H7        -3.4265   35.0007    3.6252 H         1 RES1    0.0000
     36 C13       -4.9282   35.4546    4.8998 C.ar      1 RES1    0.0000
     37 H8        -5.3722   36.0404    4.3308 H         1 RES1    0.0000
     38 C14       -5.4293   35.2097    6.1423 C.ar      1 RES1    0.0000
     39 H9        -6.2221   35.6127    6.4134 H         1 RES1    0.0000
     40 C15       -4.7652   34.3669    6.9931 C.ar      1 RES1    0.0000
     41 H10       -5.1070   34.2043    7.8428 H         1 RES1    0.0000
     42 C16       -3.5942   33.7622    6.5981 C.ar      1 RES1    0.0000
     43 H11       -3.1319   33.2088    7.1874 H         1 RES1    0.0000
     44 C17        0.6732   32.8884    2.4189 C.3       1 RES1    0.0000
     45 H12        0.9189   32.0437    2.0368 H         1 RES1    0.0000
     46 H13        1.4322   33.2715    2.8662 H         1 RES1    0.0000
     47 H14        0.3804   33.4816    1.7229 H         1 RES1    0.0000
     48 C18       -0.4285   35.0070    4.2859 C.3       1 RES1    0.0000
     49 H15        0.1141   34.8495    5.0620 H         1 RES1    0.0000
     50 H16       -1.0769   35.6865    4.4834 H         1 RES1    0.0000
     51 H17        0.1274   35.2957    3.5601 H         1 RES1    0.0000
     52 C19        1.3646   29.3364    6.5010 C.ar      2 RES2    0.0000
     53 C20        1.5622   30.7050    6.2469 C.ar      2 RES2    0.0000
     54 C21        2.4008   31.0678    5.2093 C.ar      2 RES2    0.0000
     55 H18        2.5473   31.9663    5.0204 H         2 RES2    0.0000
     56 C22        3.0175   30.0999    4.4567 C.ar      2 RES2    0.0000
     57 C23        2.8497   28.7509    4.7172 C.ar      2 RES2    0.0000
     58 H19        3.2904   28.1097    4.2080 H         2 RES2    0.0000
     59 C24        2.0223   28.3803    5.7377 C.ar      2 RES2    0.0000
     60 H20        1.8984   27.4792    5.9235 H         2 RES2    0.0000
     61 C25        0.8941   31.7318    7.0304 C.2       2 RES2    0.0000
     62 H21        1.0006   32.6263    6.8020 H         2 RES2    0.0000
     63 C26       -0.4917   32.3711    8.8046 C.2       2 RES2    0.0000
     64 C27       -1.1184   32.0717    9.9746 C.2       2 RES2    0.0000
     65 C28       -0.5955   33.7954    8.5719 C.2       2 RES2    0.0000
     66 C29       -1.5206   35.6065   10.0343 C.ar      2 RES2    0.0000
     67 C30       -1.1137   36.0286   11.2769 C.ar      2 RES2    0.0000
     68 H22       -0.7505   35.4210   11.8811 H         2 RES2    0.0000
     69 C31       -1.2466   37.3574   11.6249 C.ar      2 RES2    0.0000
     70 H23       -0.9702   37.6443   12.4650 H         2 RES2    0.0000
     71 C32       -1.7828   38.2512   10.7400 C.ar      2 RES2    0.0000
     72 H24       -1.8755   39.1449   10.9759 H         2 RES2    0.0000
     73 C33       -2.1843   37.8183    9.5059 C.ar      2 RES2    0.0000
     74 H25       -2.5417   38.4259    8.8996 H         2 RES2    0.0000
     75 C34       -2.0643   36.4969    9.1505 C.ar      2 RES2    0.0000
     76 H26       -2.3507   36.2100    8.3136 H         2 RES2    0.0000
     77 C35       -1.3031   30.7459   10.6215 C.3       2 RES2    0.0000
     78 H27       -0.9282   30.7680   11.5053 H         2 RES2    0.0000
     79 H28       -0.8610   30.0712   10.1016 H         2 RES2    0.0000
     80 H29       -2.2397   30.5431   10.6759 H         2 RES2    0.0000
     81 C36       -2.7908   33.2803   11.3708 C.3       2 RES2    0.0000
     82 H30       -3.5646   33.2936   10.8029 H         2 RES2    0.0000
     83 H31       -2.7725   34.0789   11.9035 H         2 RES2    0.0000
     84 H32       -2.8285   32.5120   11.9462 H         2 RES2    0.0000
@<TRIPOS>BOND
     1    1    2 1
     2    3   11 2
     3    4   11 2
     4    5   32 2
     5    6    7 1
     6    8   15 2
     7    9   15 2
     8   10   65 2
     9   11   23 1
    10   12   28 2
    11   13   14 1
    12   14   32 1
    13   15   56 1
    14   16   61 2
    15   17   18 1
    16   18   65 1
    17   19    1 1
    18   20   19 ar
    19   21   20 ar
    20   22   21 1
    21   23   21 ar
    22   24   23 ar
    23   25   24 1
    24   26   19 ar
    25   27   26 1
    26   28   20 1
    27   29   28 1
    28   30   12 1
    29   31   13 1
    30   32   30 1
    31   33   14 1
    32   34   33 ar
    33   35   34 1
    34   36   34 ar
    35   37   36 1
    36   38   36 ar
    37   39   38 1
    38   40   38 ar
    39   41   40 1
    40   42   33 ar
    41   43   42 1
    42   44   31 1
    43   45   44 1
    44   46   44 1
    45   47   44 1
    46   48   13 1
    47   49   48 1
    48   50   48 1
    49   51   48 1
    50   52    6 1
    51   53   52 ar
    52   54   53 ar
    53   55   54 1
    54   56   54 ar
    55   57   56 ar
    56   58   57 1
    57   59   52 ar
    58   60   59 1
    59   61   53 1
    60   62   61 1
    61   63   16 1
    62   64   17 1
    63   65   63 1
    64   66   18 1
    65   67   66 ar
    66   68   67 1
    67   69   67 ar
    68   70   69 1
    69   71   69 ar
    70   72   71 1
    71   73   71 ar
    72   74   73 1
    73   75   66 ar
    74   76   75 1
    75   77   64 1
    76   78   77 1
    77   79   77 1
    78   80   77 1
    79   81   17 1
    80   82   81 1
    81   83   81 1
    82   84   81 1
    83   24   26 ar
    84   30   31 2
    85   40   42 ar
    86   57   59 ar
    87   63   64 2
    88   73   75 ar
@<TRIPOS>SUBSTRUCTURE
     1 RES1 1
     2 RES2 6

@<TRIPOS>CRYSIN
   8.4387   36.8700   13.3937  90.0000 127.1550  90.0000  14 1

