# MOL2 file generated by ConQuest
# Please check atom types

@<TRIPOS>MOLECULE
TEVSET01
    42    44     1
SMALL
NO_CHARGES
****
Generated from CSD

@<TRIPOS>ATOM
      1 O1         0.2171   -1.1454    9.3812 O.3       1 RES1    0.0000
      2 H1         0.1350   -0.3531    9.1848 H         1 RES1    0.0000
      3 O2         0.7222   -2.9290   15.3134 O.2       1 RES1    0.0000
      4 O3         0.5773   -0.7879   15.5999 O.2       1 RES1    0.0000
      5 O4        -0.0412    4.2342   11.0051 O.2       1 RES1    0.0000
      6 N1         0.6095   -1.7854   14.8733 N.pl3     1 RES1    0.0000
      7 N2         0.1729    1.3811    9.7277 N.2       1 RES1    0.0000
      8 N3        -0.0957    4.8629    8.7690 N.am      1 RES1    0.0000
      9 N4        -0.1885    4.1702    7.5424 N.3       1 RES1    0.0000
     10 C1         0.3435   -1.2670   10.7129 C.ar      1 RES1    0.0000
     11 C2         0.4583   -2.5344   11.2512 C.ar      1 RES1    0.0000
     12 H2         0.4667   -3.2758   10.6898 H         1 RES1    0.0000
     13 C3         0.5597   -2.7046   12.6014 C.ar      1 RES1    0.0000
     14 H3         0.6427   -3.5596   12.9595 H         1 RES1    0.0000
     15 C4         0.5387   -1.6133   13.4272 C.ar      1 RES1    0.0000
     16 C5         0.4536   -0.3376   12.9121 C.ar      1 RES1    0.0000
     17 H4         0.4665    0.3910   13.4896 H         1 RES1    0.0000
     18 C6         0.3480   -0.1262   11.5469 C.ar      1 RES1    0.0000
     19 C7         0.2633    1.2044   11.0051 C.2       1 RES1    0.0000
     20 H5         0.2736    1.9395   11.5757 H         1 RES1    0.0000
     21 C8         0.0797    2.6508    9.1606 C.2       1 RES1    0.0000
     22 C9         0.0050    3.9276    9.8143 C.2       1 RES1    0.0000
     23 C10        0.0068    2.8521    7.8161 C.2       1 RES1    0.0000
     24 C11        0.0913    1.8591    6.7119 C.3       1 RES1    0.0000
     25 H6        -0.6178    2.0178    6.0847 H         1 RES1    0.0000
     26 H7         0.0086    0.9720    7.0723 H         1 RES1    0.0000
     27 H8         0.9373    1.9462    6.2672 H         1 RES1    0.0000
     28 C12        0.3372    4.8603    6.3712 C.3       1 RES1    0.0000
     29 H9         1.2392    5.1416    6.5421 H         1 RES1    0.0000
     30 H10       -0.2063    5.6287    6.1817 H         1 RES1    0.0000
     31 H11        0.3244    4.2657    5.6169 H         1 RES1    0.0000
     32 C13       -0.8298    6.0845    8.9215 C.ar      1 RES1    0.0000
     33 C14       -0.3349    7.0521    9.7427 C.ar      1 RES1    0.0000
     34 H12        0.4782    6.9270   10.1770 H         1 RES1    0.0000
     35 C15       -1.0471    8.2207    9.9287 C.ar      1 RES1    0.0000
     36 H13       -0.7199    8.8866   10.4888 H         1 RES1    0.0000
     37 C16       -2.2355    8.3883    9.2807 C.ar      1 RES1    0.0000
     38 H14       -2.7212    9.1704    9.4100 H         1 RES1    0.0000
     39 C17       -2.7195    7.4342    8.4502 C.ar      1 RES1    0.0000
     40 H15       -3.5264    7.5660    8.0078 H         1 RES1    0.0000
     41 C18       -2.0133    6.2611    8.2643 C.ar      1 RES1    0.0000
     42 H16       -2.3395    5.6019    7.6960 H         1 RES1    0.0000
@<TRIPOS>BOND
     1    1    2 1
     2    3    6 2
     3    4    6 2
     4    5   22 2
     5    6   15 1
     6    7   19 2
     7    8    9 1
     8    9   23 1
     9   10    1 1
    10   11   10 ar
    11   12   11 1
    12   13   11 ar
    13   14   13 1
    14   15   13 ar
    15   16   15 ar
    16   17   16 1
    17   18   10 ar
    18   19   18 1
    19   20   19 1
    20   21    7 1
    21   22    8 1
    22   23   21 2
    23   24   23 1
    24   25   24 1
    25   26   24 1
    26   27   24 1
    27   28    9 1
    28   29   28 1
    29   30   28 1
    30   31   28 1
    31   32    8 1
    32   33   32 ar
    33   34   33 1
    34   35   33 ar
    35   36   35 1
    36   37   35 ar
    37   38   37 1
    38   39   37 ar
    39   40   39 1
    40   41   32 ar
    41   42   41 1
    42   16   18 ar
    43   21   22 1
    44   39   41 ar
@<TRIPOS>SUBSTRUCTURE
     1 RES1 1

@<TRIPOS>CRYSIN
   6.5897   22.3450   11.6230  90.0000  96.4110  90.0000 231 1

