# MOL2 file generated by ConQuest
# Please check atom types

@<TRIPOS>MOLECULE
TEWHOS
    90    90     2
SMALL
NO_CHARGES
****
Generated from CSD

@<TRIPOS>ATOM
      1 O1         1.4258    0.4446    8.8742 O.2       1 RES1    0.0000
      2 O2        -0.2161    1.8324    8.6017 O.2       1 RES1    0.0000
      3 O3        -0.3877    1.1284    2.4470 O.2       1 RES1    0.0000
      4 O4        -2.1828    0.9990    3.6572 O.2       1 RES1    0.0000
      5 O5         2.5163   -1.0163    3.0981 O.2       1 RES1    0.0000
      6 O6         2.8284   -2.2976    4.8260 O.2       1 RES1    0.0000
      7 N1         0.4777    0.8722    8.1858 N.pl3     1 RES1    0.0000
      8 N2        -1.8663    1.4025    6.4272 N.3       1 RES1    0.0000
      9 N3        -0.9595    1.1231    3.5611 N.pl3     1 RES1    0.0000
     10 N4         2.0738    1.7931    3.9157 N.3       1 RES1    0.0000
     11 N5         2.3880   -1.2329    4.3182 N.pl3     1 RES1    0.0000
     12 N6         1.5417   -1.7170    7.0460 N.3       1 RES1    0.0000
     13 C1         0.2449    0.3375    6.9218 C.ar      1 RES1    0.0000
     14 C2        -0.6628    0.9954    6.0122 C.ar      1 RES1    0.0000
     15 C3        -0.1633    1.2227    4.7084 C.ar      1 RES1    0.0000
     16 C4         1.2712    0.9469    4.5162 C.ar      1 RES1    0.0000
     17 C5         1.7394   -0.3001    5.1176 C.ar      1 RES1    0.0000
     18 C6         1.1985   -0.6329    6.3916 C.ar      1 RES1    0.0000
     19 C7        -2.5608    0.7823    7.5406 C.3       1 RES1    0.0000
     20 C8        -2.5680    2.5414    5.8499 C.3       1 RES1    0.0000
     21 C9         1.5914    3.0498    3.3449 C.3       1 RES1    0.0000
     22 C10        3.5254    1.5850    3.7864 C.3       1 RES1    0.0000
     23 C11        0.8723   -2.3215    8.2090 C.3       1 RES1    0.0000
     24 C12        1.8931   -2.6965    9.2611 C.3       1 RES1    0.0000
     25 C13        0.0914   -3.5283    7.7336 C.3       1 RES1    0.0000
     26 H1         2.1371   -2.2582    6.6849 H         1 RES1    0.0000
     27 H2        -3.4185    1.1785    7.7004 H         1 RES1    0.0000
     28 H3        -2.6842   -0.2029    7.3674 H         1 RES1    0.0000
     29 H4        -2.0026    0.8443    8.3656 H         1 RES1    0.0000
     30 H5        -3.4406    2.6832    6.2732 H         1 RES1    0.0000
     31 H6        -2.0329    3.3761    5.9609 H         1 RES1    0.0000
     32 H7        -2.7139    2.4233    4.8708 H         1 RES1    0.0000
     33 H8         2.3436    3.5486    2.9233 H         1 RES1    0.0000
     34 H9         0.9206    2.8781    2.6317 H         1 RES1    0.0000
     35 H10        1.1864    3.6175    4.0258 H         1 RES1    0.0000
     36 H11        3.9245    2.3416    3.2936 H         1 RES1    0.0000
     37 H12        3.9353    1.5239    4.6695 H         1 RES1    0.0000
     38 H13        3.7053    0.7559    3.2844 H         1 RES1    0.0000
     39 H14        0.2370   -1.6691    8.6207 H         1 RES1    0.0000
     40 H15        1.4478   -3.0904   10.0422 H         1 RES1    0.0000
     41 H16        2.5204   -3.3494    8.8833 H         1 RES1    0.0000
     42 H17        2.3939   -1.8987    9.5460 H         1 RES1    0.0000
     43 H18       -0.3732   -3.9629    8.5014 H         1 RES1    0.0000
     44 H19       -0.5587   -3.2923    7.0609 H         1 RES1    0.0000
     45 H20        0.7241   -4.2012    7.3608 H         1 RES1    0.0000
     46 O7         3.0648    9.5049    2.1479 O.2       2 RES2    0.0000
     47 O8         4.6035    8.6546    0.8474 O.2       2 RES2    0.0000
     48 O9         7.4369    6.5906    1.8423 O.2       2 RES2    0.0000
     49 O10        7.9794    6.3474    3.9264 O.2       2 RES2    0.0000
     50 O11        1.7990    5.8244    5.4117 O.2       2 RES2    0.0000
     51 O12        3.3541    4.4044    5.9335 O.2       2 RES2    0.0000
     52 N7         3.8667    8.5733    1.8555 N.pl3     2 RES2    0.0000
     53 N8         4.7131    5.7132    1.1448 N.3       2 RES2    0.0000
     54 N9         7.1389    6.2956    3.0235 N.pl3     2 RES2    0.0000
     55 N10        5.9808    5.3037    5.6328 N.3       2 RES2    0.0000
     56 N11        3.0094    5.4933    5.4274 N.pl3     2 RES2    0.0000
     57 N12        2.6877    8.3785    4.5038 N.3       2 RES2    0.0000
     58 C14        3.9332    7.4519    2.6723 C.ar      2 RES2    0.0000
     59 C15        4.8175    6.3518    2.2888 C.ar      2 RES2    0.0000
     60 C16        5.8032    5.9702    3.3126 C.ar      2 RES2    0.0000
     61 C17        5.2945    5.8442    4.6247 C.ar      2 RES2    0.0000
     62 C18        3.9497    6.3172    4.8235 C.ar      2 RES2    0.0000
     63 C19        3.4799    7.4384    4.0084 C.ar      2 RES2    0.0000
     64 C20        3.6972    6.0293    0.1416 C.3       2 RES2    0.0000
     65 C21        5.5934    4.5971    0.7894 C.3       2 RES2    0.0000
     66 C22        7.0221    4.3042    5.4274 C.3       2 RES2    0.0000
     67 C23        5.6775    5.5813    7.0220 C.3       2 RES2    0.0000
     68 C24        2.3648    8.6611    5.9062 C.3       2 RES2    0.0000
     69 C25        0.8644    8.7650    6.0835 C.3       2 RES2    0.0000
     70 C26        3.0678    9.9332    6.3187 C.3       2 RES2    0.0000
     71 H21        2.4180    8.9842    4.0258 H         2 RES2    0.0000
     72 H22        3.7936    5.4281   -0.6486 H         2 RES2    0.0000
     73 H23        2.7918    5.9138    0.4995 H         2 RES2    0.0000
     74 H24        3.7935    6.9585   -0.1806 H         2 RES2    0.0000
     75 H25        5.3647    4.2491   -0.1060 H         2 RES2    0.0000
     76 H26        6.5411    4.8934    0.7654 H         2 RES2    0.0000
     77 H27        5.5177    3.8623    1.4389 H         2 RES2    0.0000
     78 H28        7.4311    4.0213    6.2906 H         2 RES2    0.0000
     79 H29        6.6756    3.4948    4.9818 H         2 RES2    0.0000
     80 H30        7.7648    4.6615    4.8616 H         2 RES2    0.0000
     81 H31        6.2894    5.0928    7.6300 H         2 RES2    0.0000
     82 H32        5.7519    6.5465    7.2299 H         2 RES2    0.0000
     83 H33        4.7485    5.2999    7.2498 H         2 RES2    0.0000
     84 H34        2.6676    7.9032    6.4861 H         2 RES2    0.0000
     85 H35        0.4258    7.9375    5.7886 H         2 RES2    0.0000
     86 H36        0.6452    8.9330    7.0220 H         2 RES2    0.0000
     87 H37        0.5330    9.5145    5.5359 H         2 RES2    0.0000
     88 H38        2.7398   10.6953    5.7604 H         2 RES2    0.0000
     89 H39        2.8805   10.1591    7.2622 H         2 RES2    0.0000
     90 H40        4.0371    9.8656    6.1953 H         2 RES2    0.0000
@<TRIPOS>BOND
     1    1    7 2
     2    2    7 2
     3    3    9 2
     4    4    9 2
     5    5   11 2
     6    6   11 2
     7    7   13 1
     8    8   14 1
     9    9   15 1
    10   10   16 1
    11   11   17 1
    12   12   18 1
    13   13   14 ar
    14   14   15 ar
    15   15   16 ar
    16   16   17 ar
    17   17   18 ar
    18   18   13 ar
    19   19    8 1
    20   20    8 1
    21   21   10 1
    22   22   10 1
    23   23   12 1
    24   24   23 1
    25   25   23 1
    26   26   12 1
    27   27   19 1
    28   28   19 1
    29   29   19 1
    30   30   20 1
    31   31   20 1
    32   32   20 1
    33   33   21 1
    34   34   21 1
    35   35   21 1
    36   36   22 1
    37   37   22 1
    38   38   22 1
    39   39   23 1
    40   40   24 1
    41   41   24 1
    42   42   24 1
    43   43   25 1
    44   44   25 1
    45   45   25 1
    46   46   52 2
    47   47   52 2
    48   48   54 2
    49   49   54 2
    50   50   56 2
    51   51   56 2
    52   52   58 1
    53   53   59 1
    54   54   60 1
    55   55   61 1
    56   56   62 1
    57   57   63 1
    58   58   59 ar
    59   59   60 ar
    60   60   61 ar
    61   61   62 ar
    62   62   63 ar
    63   63   58 ar
    64   64   53 1
    65   65   53 1
    66   66   55 1
    67   67   55 1
    68   68   57 1
    69   69   68 1
    70   70   68 1
    71   71   57 1
    72   72   64 1
    73   73   64 1
    74   74   64 1
    75   75   65 1
    76   76   65 1
    77   77   65 1
    78   78   66 1
    79   79   66 1
    80   80   66 1
    81   81   67 1
    82   82   67 1
    83   83   67 1
    84   84   68 1
    85   85   69 1
    86   86   69 1
    87   87   69 1
    88   88   70 1
    89   89   70 1
    90   90   70 1
@<TRIPOS>SUBSTRUCTURE
     1 RES1 1
     2 RES2 46

@<TRIPOS>CRYSIN
  12.6230   16.8210    8.8880 100.9800 110.3500  74.6800   2 1

