# MOL2 file generated by ConQuest
# Please check atom types

@<TRIPOS>MOLECULE
TEWHUY
    48    48     1
SMALL
NO_CHARGES
****
Generated from CSD

@<TRIPOS>ATOM
      1 O1         5.8930    5.0676    0.6656 O.2       1 RES1    0.0000
      2 O2         7.5962    4.2741    1.7388 O.2       1 RES1    0.0000
      3 O3         7.7015    1.7670    4.6865 O.2       1 RES1    0.0000
      4 O4         5.9972    1.0845    5.8143 O.2       1 RES1    0.0000
      5 O5         2.2395    0.2011    2.3234 O.2       1 RES1    0.0000
      6 O6         2.2213    1.5450    0.6689 O.2       1 RES1    0.0000
      7 N1         6.4116    4.1925    1.3635 N.pl3     1 RES1    0.0000
      8 N2         7.2942    1.3238    1.7678 N.3       1 RES1    0.0000
      9 N3         6.4945    1.4750    4.7568 N.pl3     1 RES1    0.0000
     10 N4         3.5968    1.2105    4.7221 N.3       1 RES1    0.0000
     11 N5         2.6459    1.2504    1.8141 N.pl3     1 RES1    0.0000
     12 N6         3.5083    4.0839    1.2312 N.3       1 RES1    0.0000
     13 C1         5.6430    3.1019    1.7306 C.ar      1 RES1    0.0000
     14 C2         6.2956    1.9824    2.3515 C.ar      1 RES1    0.0000
     15 C3         5.6886    1.5804    3.6034 C.ar      1 RES1    0.0000
     16 C4         4.2640    1.5838    3.6604 C.ar      1 RES1    0.0000
     17 C5         3.6050    2.0436    2.4615 C.ar      1 RES1    0.0000
     18 C6         4.2178    3.1385    1.7603 C.ar      1 RES1    0.0000
     19 C7         7.8835    0.1173    2.2978 C.3       1 RES1    0.0000
     20 C8         7.8606    1.6670    0.4696 C.3       1 RES1    0.0000
     21 C9         2.1656    1.4494    5.0553 C.3       1 RES1    0.0000
     22 C10        1.8348    0.6894    6.2674 C.3       1 RES1    0.0000
     23 C11        1.8817    2.9136    5.2876 C.3       1 RES1    0.0000
     24 C12        2.0710    4.3766    1.3949 C.3       1 RES1    0.0000
     25 C13        1.9167    5.6787    2.2449 C.3       1 RES1    0.0000
     26 C14        1.4376    4.4440    0.0091 C.3       1 RES1    0.0000
     27 H1         4.0728    0.8850    5.3827 H         1 RES1    0.0000
     28 H2         3.9199    4.6102    0.7772 H         1 RES1    0.0000
     29 H3         7.2162   -0.5747    2.3738 H         1 RES1    0.0000
     30 H4         8.6212   -0.2074    1.7049 H         1 RES1    0.0000
     31 H5         8.2707    0.3544    3.2098 H         1 RES1    0.0000
     32 H6         8.2057    2.5961    0.5341 H         1 RES1    0.0000
     33 H7         8.5863    1.0565    0.1918 H         1 RES1    0.0000
     34 H8         7.1533    1.6147   -0.2398 H         1 RES1    0.0000
     35 H9         1.6168    1.1158    4.2830 H         1 RES1    0.0000
     36 H10        2.0034   -0.2559    6.1021 H         1 RES1    0.0000
     37 H11        2.3886    1.0427    7.0430 H         1 RES1    0.0000
     38 H12        0.8822    0.8401    6.5097 H         1 RES1    0.0000
     39 H13        2.1292    3.4495    4.5385 H         1 RES1    0.0000
     40 H14        0.9306    3.0869    5.5299 H         1 RES1    0.0000
     41 H15        2.4186    3.2892    6.1136 H         1 RES1    0.0000
     42 H16        1.6099    3.6797    1.8852 H         1 RES1    0.0000
     43 H17        0.9456    5.9203    2.3590 H         1 RES1    0.0000
     44 H18        2.3277    5.6469    3.1197 H         1 RES1    0.0000
     45 H19        2.3280    6.4398    1.7554 H         1 RES1    0.0000
     46 H20        1.8528    5.1601   -0.4820 H         1 RES1    0.0000
     47 H21        1.5661    3.5798   -0.5151 H         1 RES1    0.0000
     48 H22        0.4677    4.6143    0.0934 H         1 RES1    0.0000
@<TRIPOS>BOND
     1    1    7 2
     2    2    7 2
     3    3    9 2
     4    4    9 2
     5    5   11 2
     6    6   11 2
     7    7   13 1
     8    8   14 1
     9    9   15 1
    10   10   16 1
    11   11   17 1
    12   12   18 1
    13   13   14 ar
    14   14   15 ar
    15   15   16 ar
    16   16   17 ar
    17   17   18 ar
    18   18   13 ar
    19   19    8 1
    20   20    8 1
    21   21   10 1
    22   22   21 1
    23   23   21 1
    24   24   12 1
    25   25   24 1
    26   26   24 1
    27   27   10 1
    28   28   12 1
    29   29   19 1
    30   30   19 1
    31   31   19 1
    32   32   20 1
    33   33   20 1
    34   34   20 1
    35   35   21 1
    36   36   22 1
    37   37   22 1
    38   38   22 1
    39   39   23 1
    40   40   23 1
    41   41   23 1
    42   42   24 1
    43   43   25 1
    44   44   25 1
    45   45   25 1
    46   46   26 1
    47   47   26 1
    48   48   26 1
@<TRIPOS>SUBSTRUCTURE
     1 RES1 1

@<TRIPOS>CRYSIN
   9.1370   11.9420    8.7570 100.3300 106.7200  86.1500   2 1

