# MOL2 file generated by ConQuest
# Please check atom types

@<TRIPOS>MOLECULE
TEWJAG
    50    52     1
SMALL
NO_CHARGES
****
Generated from CSD

@<TRIPOS>ATOM
      1 O1         3.6698    3.2428   11.0067 O.2       1 RES1    0.0000
      2 O2         3.8682    2.3266    9.0464 O.2       1 RES1    0.0000
      3 O3        -1.3749    3.2868   12.7162 O.2       1 RES1    0.0000
      4 O4         0.7302    3.5902   13.1392 O.2       1 RES1    0.0000
      5 O5        -0.2985   -0.4268    7.7384 O.2       1 RES1    0.0000
      6 O6        -1.4687   -1.0082    9.4431 O.2       1 RES1    0.0000
      7 N1         3.2698    2.4490   10.1427 N.pl3     1 RES1    0.0000
      8 N2         2.3872    1.2264   12.7493 N.3       1 RES1    0.0000
      9 N3        -0.1921    2.9158   12.6178 N.pl3     1 RES1    0.0000
     10 N4        -2.0234    1.2950   10.9508 N.3       1 RES1    0.0000
     11 N5        -0.6372   -0.2653    8.9211 N.pl3     1 RES1    0.0000
     12 N6         1.7870    1.0747    8.0895 N.3       1 RES1    0.0000
     13 C1         2.0974    1.7051   10.3856 C.ar      1 RES1    0.0000
     14 C2         1.6163    1.5671   11.7437 C.ar      1 RES1    0.0000
     15 C3         0.1638    1.7746   11.8874 C.ar      1 RES1    0.0000
     16 C4        -0.6779    1.2470   10.8633 C.ar      1 RES1    0.0000
     17 C5        -0.0223    0.7635    9.6834 C.ar      1 RES1    0.0000
     18 C6         1.3050    1.1853    9.3299 C.ar      1 RES1    0.0000
     19 C7         3.8305    0.9338   12.5847 C.3       1 RES1    0.0000
     20 C8         4.2582   -0.2604   13.4178 C.3       1 RES1    0.0000
     21 C9         3.8717   -0.1282   14.8777 C.3       1 RES1    0.0000
     22 C10        2.3785    0.0626   14.9655 C.3       1 RES1    0.0000
     23 C11        1.9081    1.2480   14.1519 C.3       1 RES1    0.0000
     24 C12       -2.7312    0.9289   12.1966 C.3       1 RES1    0.0000
     25 C13       -3.9738    1.7609   12.4461 C.3       1 RES1    0.0000
     26 C14       -4.8695    1.8255   11.2264 C.3       1 RES1    0.0000
     27 C15       -4.0676    2.2845   10.0268 C.3       1 RES1    0.0000
     28 C16       -2.8967    1.3488    9.7650 C.3       1 RES1    0.0000
     29 H1         2.6771    1.3214    7.9771 H         1 RES1    0.0000
     30 H2         1.2403    0.7243    7.4997 H         1 RES1    0.0000
     31 H3         4.3206    1.7423   12.8126 H         1 RES1    0.0000
     32 H4         3.9709    0.7439   11.6576 H         1 RES1    0.0000
     33 H5         5.1796   -0.3524   13.2746 H         1 RES1    0.0000
     34 H6         3.8462   -1.0277   13.0744 H         1 RES1    0.0000
     35 H7         4.3085    0.6264   15.2150 H         1 RES1    0.0000
     36 H8         4.1226   -0.9201   15.3689 H         1 RES1    0.0000
     37 H9         2.0658    0.2153   15.8617 H         1 RES1    0.0000
     38 H10        1.9102   -0.7439   14.6298 H         1 RES1    0.0000
     39 H11        0.9376    1.2529   14.1524 H         1 RES1    0.0000
     40 H12        2.2115    2.0751   14.5528 H         1 RES1    0.0000
     41 H13       -2.9698   -0.0392   12.0580 H         1 RES1    0.0000
     42 H14       -2.0513    0.9592   12.9204 H         1 RES1    0.0000
     43 H15       -3.6951    2.6232   12.6894 H         1 RES1    0.0000
     44 H16       -4.4772    1.3703   13.2130 H         1 RES1    0.0000
     45 H17       -5.6392    2.3785   11.3650 H         1 RES1    0.0000
     46 H18       -5.2152    0.9690   11.0108 H         1 RES1    0.0000
     47 H19       -3.7041    3.1517   10.1792 H         1 RES1    0.0000
     48 H20       -4.5951    2.2415    9.2398 H         1 RES1    0.0000
     49 H21       -2.3157    1.6542    9.0243 H         1 RES1    0.0000
     50 H22       -3.2105    0.4502    9.5632 H         1 RES1    0.0000
@<TRIPOS>BOND
     1    1    7 2
     2    2    7 2
     3    3    9 2
     4    4    9 2
     5    5   11 2
     6    6   11 2
     7    7   13 1
     8    8   14 1
     9    9   15 1
    10   10   16 1
    11   11   17 1
    12   12   18 1
    13   13   14 ar
    14   14   15 ar
    15   15   16 ar
    16   16   17 ar
    17   17   18 ar
    18   18   13 ar
    19   19    8 1
    20   20   19 1
    21   21   20 1
    22   22   21 1
    23   23    8 1
    24   24   10 1
    25   25   24 1
    26   26   25 1
    27   27   26 1
    28   28   10 1
    29   29   12 1
    30   30   12 1
    31   31   19 1
    32   32   19 1
    33   33   20 1
    34   34   20 1
    35   35   21 1
    36   36   21 1
    37   37   22 1
    38   38   22 1
    39   39   23 1
    40   40   23 1
    41   41   24 1
    42   42   24 1
    43   43   25 1
    44   44   25 1
    45   45   26 1
    46   46   26 1
    47   47   27 1
    48   48   27 1
    49   49   28 1
    50   50   28 1
    51   22   23 1
    52   27   28 1
@<TRIPOS>SUBSTRUCTURE
     1 RES1 1

@<TRIPOS>CRYSIN
  11.9050    9.7880   16.3510  90.0000 109.6400  90.0000  14 1

