# MOL2 file generated by ConQuest
# Please check atom types

@<TRIPOS>MOLECULE
TEWJIO
    84    84     2
SMALL
NO_CHARGES
****
Generated from CSD

@<TRIPOS>ATOM
      1 O1         4.9666   -1.4247    4.5823 O.2       1 RES1    0.0000
      2 O2         5.9409    0.3032    5.4174 O.2       1 RES1    0.0000
      3 O3         2.9815    4.3436    6.1705 O.2       1 RES1    0.0000
      4 O4         1.0084    3.9721    5.4075 O.2       1 RES1    0.0000
      5 O5         0.7467   -2.1730    6.4725 O.2       1 RES1    0.0000
      6 O6        -0.8330   -0.6992    6.6097 O.2       1 RES1    0.0000
      7 N1         4.8815   -0.2989    5.1317 N.pl3     1 RES1    0.0000
      8 N2         4.6216    2.3637    6.1062 N.3       1 RES1    0.0000
      9 N3         2.0609    3.5636    5.8898 N.pl3     1 RES1    0.0000
     10 N4        -0.0011    1.7599    6.8869 N.3       1 RES1    0.0000
     11 N5         0.3359   -1.0166    6.3077 N.pl3     1 RES1    0.0000
     12 N6         2.4261   -1.5125    4.3348 N.3       1 RES1    0.0000
     13 C1         3.6343    0.2582    5.4280 C.ar      1 RES1    0.0000
     14 C2         3.5416    1.6094    5.8933 C.ar      1 RES1    0.0000
     15 C3         2.2368    2.1620    6.0546 C.ar      1 RES1    0.0000
     16 C4         1.0850    1.3274    6.2540 C.ar      1 RES1    0.0000
     17 C5         1.2180   -0.0240    5.8127 C.ar      1 RES1    0.0000
     18 C6         2.4105   -0.4825    5.1522 C.ar      1 RES1    0.0000
     19 C7        -0.1310    2.8765    7.8535 C.3       1 RES1    0.0000
     20 C8        -1.2533    3.8048    7.4342 C.3       1 RES1    0.0000
     21 C9        -0.3503    2.2825    9.2310 C.3       1 RES1    0.0000
     22 C10        1.3467   -2.3158    3.7224 C.3       1 RES1    0.0000
     23 C11        2.0074   -3.1299    2.6207 C.3       1 RES1    0.0000
     24 C12        0.2268   -1.4648    3.1560 C.3       1 RES1    0.0000
     25 H1         5.4226    1.9140    5.9471 H         1 RES1    0.0000
     26 H2         4.5154    3.1833    6.3572 H         1 RES1    0.0000
     27 H3        -0.6898    1.1944    6.9088 H         1 RES1    0.0000
     28 H4         3.3001   -1.6827    4.1085 H         1 RES1    0.0000
     29 H5         0.6915    3.3573    7.8846 H         1 RES1    0.0000
     30 H6        -1.2819    4.4607    7.9978 H         1 RES1    0.0000
     31 H7        -2.1690    3.3413    7.5664 H         1 RES1    0.0000
     32 H8        -1.1713    4.1177    6.5340 H         1 RES1    0.0000
     33 H9        -0.4353    2.9286    9.8364 H         1 RES1    0.0000
     34 H10        0.4007    1.7707    9.5394 H         1 RES1    0.0000
     35 H11       -1.1062    1.6991    9.1575 H         1 RES1    0.0000
     36 H12        1.0008   -2.9207    4.4126 H         1 RES1    0.0000
     37 H13        2.7670   -3.6760    2.9983 H         1 RES1    0.0000
     38 H14        1.3666   -3.7438    2.1851 H         1 RES1    0.0000
     39 H15        2.3803   -2.5624    1.9305 H         1 RES1    0.0000
     40 H16       -0.4289   -2.0825    2.7154 H         1 RES1    0.0000
     41 H17        0.6367   -0.9009    2.4467 H         1 RES1    0.0000
     42 H18       -0.2669   -0.9693    3.8610 H         1 RES1    0.0000
     43 O7        -0.0636   11.0629    5.7901 O.2       2 RES2    0.0000
     44 O8         0.9694    9.2093    6.0680 O.2       2 RES2    0.0000
     45 O9        -0.8603    5.1148    3.5675 O.2       2 RES2    0.0000
     46 O10       -2.8902    5.5224    2.9757 O.2       2 RES2    0.0000
     47 O11       -2.0585   11.4133    1.4185 O.2       2 RES2    0.0000
     48 O12       -3.6664   10.1038    0.8967 O.2       2 RES2    0.0000
     49 N7         0.0817    9.8582    5.4874 N.pl3     2 RES2    0.0000
     50 N8         0.2975    7.0881    4.8149 N.3       2 RES2    0.0000
     51 N9        -1.7444    5.8982    3.2373 N.pl3     2 RES2    0.0000
     52 N10       -2.7686    7.6249    1.1866 N.3       2 RES2    0.0000
     53 N11       -2.7017   10.3954    1.5989 N.pl3     2 RES2    0.0000
     54 N12       -2.0973   11.2371    4.2683 N.3       2 RES2    0.0000
     55 C13       -0.7140    9.2642    4.4798 C.ar      2 RES2    0.0000
     56 C14       -0.5715    7.8612    4.1679 C.ar      2 RES2    0.0000
     57 C15       -1.4611    7.3098    3.2062 C.ar      2 RES2    0.0000
     58 C16       -2.2268    8.1130    2.3152 C.ar      2 RES2    0.0000
     59 C17       -2.3126    9.4898    2.6355 C.ar      2 RES2    0.0000
     60 C18       -1.7238   10.0524    3.8080 C.ar      2 RES2    0.0000
     61 C19       -2.2967    6.5071    0.3571 C.3       2 RES2    0.0000
     62 C20       -1.6306    7.0794   -0.8924 C.3       2 RES2    0.0000
     63 C21       -3.4418    5.5836   -0.0007 C.3       2 RES2    0.0000
     64 C22       -3.3300   12.0069    3.9954 C.3       2 RES2    0.0000
     65 C23       -4.5188   11.2823    4.4550 C.3       2 RES2    0.0000
     66 C24       -3.1580   13.3417    4.6247 C.3       2 RES2    0.0000
     67 H19        0.3274    6.2499    4.5540 H         2 RES2    0.0000
     68 H20        0.7638    7.4956    5.5299 H         2 RES2    0.0000
     69 H21       -3.3151    8.0609    0.7708 H         2 RES2    0.0000
     70 H22       -1.5443   11.5258    4.8651 H         2 RES2    0.0000
     71 H23       -1.6311    6.0196    0.8839 H         2 RES2    0.0000
     72 H24       -2.2116    7.6866   -1.4001 H         2 RES2    0.0000
     73 H25       -0.9018    7.6987   -0.6435 H         2 RES2    0.0000
     74 H26       -1.2992    6.3578   -1.4284 H         2 RES2    0.0000
     75 H27       -3.1411    4.8904   -0.5728 H         2 RES2    0.0000
     76 H28       -3.8495    5.2905    0.7849 H         2 RES2    0.0000
     77 H29       -4.2096    5.9943   -0.5162 H         2 RES2    0.0000
     78 H30       -3.3664   12.2335    3.1114 H         2 RES2    0.0000
     79 H31       -4.5850   10.3878    3.9855 H         2 RES2    0.0000
     80 H32       -4.4726   11.0867    5.4245 H         2 RES2    0.0000
     81 H33       -5.3462   11.7706    4.2655 H         2 RES2    0.0000
     82 H34       -2.3279   13.7975    4.2952 H         2 RES2    0.0000
     83 H35       -3.9157   13.9383    4.4663 H         2 RES2    0.0000
     84 H36       -3.0429   13.2563    5.6253 H         2 RES2    0.0000
@<TRIPOS>BOND
     1    1    7 2
     2    2    7 2
     3    3    9 2
     4    4    9 2
     5    5   11 2
     6    6   11 2
     7    7   13 1
     8    8   14 1
     9    9   15 1
    10   10   16 1
    11   11   17 1
    12   12   18 1
    13   13   14 ar
    14   14   15 ar
    15   15   16 ar
    16   16   17 ar
    17   17   18 ar
    18   18   13 ar
    19   19   10 1
    20   20   19 1
    21   21   19 1
    22   22   12 1
    23   23   22 1
    24   24   22 1
    25   25    8 1
    26   26    8 1
    27   27   10 1
    28   28   12 1
    29   29   19 1
    30   30   20 1
    31   31   20 1
    32   32   20 1
    33   33   21 1
    34   34   21 1
    35   35   21 1
    36   36   22 1
    37   37   23 1
    38   38   23 1
    39   39   23 1
    40   40   24 1
    41   41   24 1
    42   42   24 1
    43   43   49 2
    44   44   49 2
    45   45   51 2
    46   46   51 2
    47   47   53 2
    48   48   53 2
    49   49   55 1
    50   50   56 1
    51   51   57 1
    52   52   58 1
    53   53   59 1
    54   54   60 1
    55   55   56 ar
    56   56   57 ar
    57   57   58 ar
    58   58   59 ar
    59   59   60 ar
    60   60   55 ar
    61   61   52 1
    62   62   61 1
    63   63   61 1
    64   64   54 1
    65   65   64 1
    66   66   64 1
    67   67   50 1
    68   68   50 1
    69   69   52 1
    70   70   54 1
    71   71   61 1
    72   72   62 1
    73   73   62 1
    74   74   62 1
    75   75   63 1
    76   76   63 1
    77   77   63 1
    78   78   64 1
    79   79   65 1
    80   80   65 1
    81   81   65 1
    82   82   66 1
    83   83   66 1
    84   84   66 1
@<TRIPOS>SUBSTRUCTURE
     1 RES1 1
     2 RES2 43

@<TRIPOS>CRYSIN
  12.0190   19.0140    7.3340  93.1400 105.3700  79.8800   2 1

