# MOL2 file generated by ConQuest
# Please check atom types

@<TRIPOS>MOLECULE
TEWNAN
    75    79     1
SMALL
NO_CHARGES
****
Generated from CSD

@<TRIPOS>ATOM
      1 O1         7.2029    1.5815   13.3545 O.3       1 RES1    0.0000
      2 O2         4.4873    0.5854   14.3630 O.3       1 RES1    0.0000
      3 O3         4.9969    2.5910   11.4579 O.2       1 RES1    0.0000
      4 O4         4.4029    0.4456   11.8441 O.3       1 RES1    0.0000
      5 N1         8.2226    2.5391   13.0411 N.2       1 RES1    0.0000
      6 N2         5.2682    0.5144   15.5453 N.2       1 RES1    0.0000
      7 C1         6.2019    2.1996   14.2285 C.3       1 RES1    0.0000
      8 C2         4.7905    1.8488   13.7086 C.3       1 RES1    0.0000
      9 C3         6.1880    1.3998   15.5198 C.2       1 RES1    0.0000
     10 C4         6.6252    3.6592   14.3227 C.3       1 RES1    0.0000
     11 H1         5.9627    4.2545   13.8903 H         1 RES1    0.0000
     12 H2         6.7482    3.9380   15.2644 H         1 RES1    0.0000
     13 C5         7.9207    3.6581   13.5819 C.2       1 RES1    0.0000
     14 C6         8.7755    4.8684   13.4654 C.ar      1 RES1    0.0000
     15 C7         8.4729    5.8385   12.5059 C.ar      1 RES1    0.0000
     16 C8         9.2236    7.0139   12.4858 C.ar      1 RES1    0.0000
     17 H3         9.0328    7.6720   11.8280 H         1 RES1    0.0000
     18 C9        10.2447    7.2474   13.4041 C.ar      1 RES1    0.0000
     19 C10       10.5236    6.2615   14.3329 C.ar      1 RES1    0.0000
     20 H4        11.2219    6.4057   14.9606 H         1 RES1    0.0000
     21 C11        9.8158    5.0670   14.3778 C.ar      1 RES1    0.0000
     22 C12        7.3048    5.6784   11.5490 C.3       1 RES1    0.0000
     23 H5         7.1913    4.7301   11.3287 H         1 RES1    0.0000
     24 H6         7.4829    6.1850   10.7293 H         1 RES1    0.0000
     25 H7         6.4880    6.0161   11.9713 H         1 RES1    0.0000
     26 C13       10.9734    8.5784   13.4230 C.3       1 RES1    0.0000
     27 H8        11.0877    8.9017   12.5050 H         1 RES1    0.0000
     28 H9        11.8529    8.4636   13.8406 H         1 RES1    0.0000
     29 H10       10.4511    9.2298   13.9361 H         1 RES1    0.0000
     30 C14       10.1425    4.0371   15.4345 C.3       1 RES1    0.0000
     31 H11        9.3630    3.9046   16.0140 H         1 RES1    0.0000
     32 H12       10.8998    4.3489   15.9721 H         1 RES1    0.0000
     33 H13       10.3758    3.1883   15.0029 H         1 RES1    0.0000
     34 C15        4.7587    1.6740   12.1993 C.2       1 RES1    0.0000
     35 C16        4.1400    0.2008   10.4273 C.3       1 RES1    0.0000
     36 H14        4.4426   -0.7109   10.1861 H         1 RES1    0.0000
     37 H15        4.6479    0.8491    9.8779 H         1 RES1    0.0000
     38 C17        2.6949    0.3350   10.1468 C.3       1 RES1    0.0000
     39 H16        2.5297    0.1632    9.1961 H         1 RES1    0.0000
     40 H17        2.4024    1.2434   10.3700 H         1 RES1    0.0000
     41 H18        2.1957   -0.3115   10.6875 H         1 RES1    0.0000
     42 C18        3.7107    2.8787   14.1190 C.3       1 RES1    0.0000
     43 H19        3.6430    2.8925   15.1066 H         1 RES1    0.0000
     44 H20        4.0006    3.7783   13.8252 H         1 RES1    0.0000
     45 C19        2.3395    2.5955   13.5408 C.ar      1 RES1    0.0000
     46 C20        1.8114    3.4483   12.5997 C.ar      1 RES1    0.0000
     47 H21        2.3319    4.1846   12.3003 H         1 RES1    0.0000
     48 C21        0.5403    3.2622   12.0735 C.ar      1 RES1    0.0000
     49 H22        0.1941    3.8721   11.4332 H         1 RES1    0.0000
     50 C22       -0.2110    2.1962   12.4851 C.ar      1 RES1    0.0000
     51 H23       -1.0858    2.0615   12.1413 H         1 RES1    0.0000
     52 C23        0.3186    1.3220   13.4060 C.ar      1 RES1    0.0000
     53 H24       -0.1909    0.5681   13.6773 H         1 RES1    0.0000
     54 C24        1.5800    1.5194   13.9429 C.ar      1 RES1    0.0000
     55 H25        1.9213    0.9123   14.5896 H         1 RES1    0.0000
     56 C25        7.1129    1.5420   16.6847 C.ar      1 RES1    0.0000
     57 C26        8.3689    0.9250   16.7178 C.ar      1 RES1    0.0000
     58 C27        9.1477    1.0930   17.8685 C.ar      1 RES1    0.0000
     59 H26       10.0011    0.6768   17.9003 H         1 RES1    0.0000
     60 C28        8.7380    1.8341   18.9590 C.ar      1 RES1    0.0000
     61 C29        7.4992    2.4410   18.8877 C.ar      1 RES1    0.0000
     62 H27        7.2003    2.9592   19.6256 H         1 RES1    0.0000
     63 C30        6.6792    2.3214   17.7788 C.ar      1 RES1    0.0000
     64 C31        8.8954    0.0981   15.5790 C.3       1 RES1    0.0000
     65 H28        8.1521   -0.3698   15.1439 H         1 RES1    0.0000
     66 H29        9.5380   -0.5578   15.9218 H         1 RES1    0.0000
     67 H30        9.3393    0.6817   14.9292 H         1 RES1    0.0000
     68 C32        9.6214    1.9605   20.1939 C.3       1 RES1    0.0000
     69 H31       10.1819    1.1610   20.2774 H         1 RES1    0.0000
     70 H32        9.0586    2.0508   20.9899 H         1 RES1    0.0000
     71 H33       10.1932    2.7521   20.1056 H         1 RES1    0.0000
     72 C33        5.3305    2.9960   17.7788 C.3       1 RES1    0.0000
     73 H34        5.2936    3.6522   17.0521 H         1 RES1    0.0000
     74 H35        5.1926    3.4499   18.6363 H         1 RES1    0.0000
     75 H36        4.6293    2.3240   17.6484 H         1 RES1    0.0000
@<TRIPOS>BOND
     1    1    5 1
     2    2    6 1
     3    3   34 2
     4    4   34 1
     5    5   13 2
     6    6    9 2
     7    7    1 1
     8    8    2 1
     9    9    7 1
    10   10    7 1
    11   11   10 1
    12   12   10 1
    13   13   10 1
    14   14   13 1
    15   15   14 ar
    16   16   15 ar
    17   17   16 1
    18   18   16 ar
    19   19   18 ar
    20   20   19 1
    21   21   14 ar
    22   22   15 1
    23   23   22 1
    24   24   22 1
    25   25   22 1
    26   26   18 1
    27   27   26 1
    28   28   26 1
    29   29   26 1
    30   30   21 1
    31   31   30 1
    32   32   30 1
    33   33   30 1
    34   34    8 1
    35   35    4 1
    36   36   35 1
    37   37   35 1
    38   38   35 1
    39   39   38 1
    40   40   38 1
    41   41   38 1
    42   42    8 1
    43   43   42 1
    44   44   42 1
    45   45   42 1
    46   46   45 ar
    47   47   46 1
    48   48   46 ar
    49   49   48 1
    50   50   48 ar
    51   51   50 1
    52   52   50 ar
    53   53   52 1
    54   54   45 ar
    55   55   54 1
    56   56    9 1
    57   57   56 ar
    58   58   57 ar
    59   59   58 1
    60   60   58 ar
    61   61   60 ar
    62   62   61 1
    63   63   56 ar
    64   64   57 1
    65   65   64 1
    66   66   64 1
    67   67   64 1
    68   68   60 1
    69   69   68 1
    70   70   68 1
    71   71   68 1
    72   72   63 1
    73   73   72 1
    74   74   72 1
    75   75   72 1
    76    7    8 1
    77   19   21 ar
    78   52   54 ar
    79   61   63 ar
@<TRIPOS>SUBSTRUCTURE
     1 RES1 1

@<TRIPOS>CRYSIN
  11.9880   11.2800   21.2200  90.0000  90.6160  90.0000  14 1

