# MOL2 file generated by ConQuest
# Please check atom types

@<TRIPOS>MOLECULE
TEWXIE
    59    60     1
SMALL
USER_CHARGES
****
Generated from CSD

@<TRIPOS>ATOM
      1 N1        -1.6414    2.3208   22.2359 N.3       1 RES1    0.0000
      2 C1        -2.7338    3.1963   22.5490 C.3       1 RES1    0.0000
      3 H1        -3.2143    3.4547   21.7466 H         1 RES1    0.0000
      4 H2        -2.4217    3.9935   23.0012 H         1 RES1    0.0000
      5 C2        -3.6039    2.3608   23.4580 C.3       1 RES1    0.0000
      6 H3        -3.4989    2.6393   24.3809 H         1 RES1    0.0000
      7 H4        -4.5385    2.4518   23.2099 H         1 RES1    0.0000
      8 C3        -3.1660    0.9884   23.2864 C.3       1 RES1    0.0000
      9 H5        -3.8963    0.4478   22.9525 H         1 RES1    0.0000
     10 H6        -2.8825    0.6243   24.1397 H         1 RES1    0.0000
     11 C4        -2.0489    0.9520   22.3403 C.3       1 RES1    0.0000
     12 H7        -1.3276    0.3986   22.6765 H         1 RES1    0.0000
     13 H8        -2.3363    0.6079   21.4800 H         1 RES1    0.0000
     14 N2        -0.8662    2.6903   21.1553 N.pl3     1 RES1    1.0000
     15 O1        -0.6798    3.8934   20.9675 O.2       1 RES1   -1.0000
     16 N3        -0.3694    1.7128   20.5199 N.2       1 RES1    0.0000
     17 O2         0.5367    2.2716   19.5738 O.3       1 RES1    0.0000
     18 C5         0.8903    1.2359   18.7019 C.3       1 RES1    0.0000
     19 H9         0.0960    0.7299   18.4306 H         1 RES1    0.0000
     20 O3         1.8154    0.3895   19.3535 O.3       1 RES1    0.0000
     21 C6         2.0922   -0.7772   18.5767 C.3       1 RES1    0.0000
     22 H10        1.2552   -1.2432   18.3657 H         1 RES1    0.0000
     23 C7         2.9651   -1.6582   19.3930 C.3       1 RES1    0.0000
     24 H11        3.2682   -2.4172   18.8712 H         1 RES1    0.0000
     25 H12        3.7408   -1.1704   19.7107 H         1 RES1    0.0000
     26 O4         2.1550   -2.1060   20.5130 O.3       1 RES1    0.0000
     27 O5         3.8997   -3.0634   21.4266 O.2       1 RES1    0.0000
     28 C8         2.7506   -2.7940   21.4661 C.2       1 RES1    0.0000
     29 C9         2.7804   -0.3386   17.2828 C.3       1 RES1    0.0000
     30 H13        3.6920   -0.0364   17.4799 H         1 RES1    0.0000
     31 O6         2.8247   -1.4543   16.3645 O.3       1 RES1    0.0000
     32 C10        4.0417   -1.9549   16.0306 C.2       1 RES1    0.0000
     33 O7         5.0443   -1.5545   16.5361 O.2       1 RES1    0.0000
     34 C11        3.8789   -3.0416   15.0172 C.3       1 RES1    0.0000
     35 H14        4.7445   -3.3947   14.7876 H         1 RES1    0.0000
     36 H15        3.4624   -2.6866   14.2288 H         1 RES1    0.0000
     37 H16        3.3355   -3.7423   15.3813 H         1 RES1    0.0000
     38 C12        2.0225    0.7645   16.5569 C.3       1 RES1    0.0000
     39 H17        1.2552    0.3841   16.0816 H         1 RES1    0.0000
     40 O8         2.9404    1.3560   15.6155 O.3       1 RES1    0.0000
     41 C13        2.5991    1.4707   14.3099 C.2       1 RES1    0.0000
     42 O9         1.4921    1.1813   13.9551 O.2       1 RES1    0.0000
     43 C14        3.7049    2.0459   13.5122 C.3       1 RES1    0.0000
     44 H18        3.4355    2.1187   12.5939 H         1 RES1    0.0000
     45 H19        4.4751    1.4744   13.5725 H         1 RES1    0.0000
     46 H20        3.9272    2.9160   13.8508 H         1 RES1    0.0000
     47 C15        1.5533    1.8657   17.5007 C.3       1 RES1    0.0000
     48 H21        2.3094    2.4227   17.7790 H         1 RES1    0.0000
     49 O10        0.5625    2.6630   16.8213 O.3       1 RES1    0.0000
     50 C16        0.8420    3.9571   16.6381 C.2       1 RES1    0.0000
     51 O11        1.8917    4.4540   16.9001 O.2       1 RES1    0.0000
     52 C17       -0.3565    4.6852   16.0723 C.3       1 RES1    0.0000
     53 H22       -0.1353    5.6099   15.9378 H         1 RES1    0.0000
     54 H23       -1.0913    4.6178   16.6845 H         1 RES1    0.0000
     55 H24       -0.6023    4.2902   15.2305 H         1 RES1    0.0000
     56 C18        1.7851   -3.1599   22.5443 C.3       1 RES1    0.0000
     57 H25        2.2443   -3.6477   23.2331 H         1 RES1    0.0000
     58 H26        1.0868   -3.7059   22.1780 H         1 RES1    0.0000
     59 H27        1.4056   -2.3608   22.9177 H         1 RES1    0.0000
@<TRIPOS>BOND
     1    1    2 1
     2    2    3 1
     3    4    2 1
     4    5    2 1
     5    6    5 1
     6    7    5 1
     7    8    5 1
     8    9    8 1
     9   10    8 1
    10   11    1 1
    11   12   11 1
    12   13   11 1
    13   14    1 1
    14   15   14 1
    15   16   14 2
    16   17   16 1
    17   18   17 1
    18   19   18 1
    19   20   18 1
    20   21   20 1
    21   22   21 1
    22   23   21 1
    23   24   23 1
    24   25   23 1
    25   26   23 1
    26   27   28 2
    27   28   26 1
    28   29   21 1
    29   30   29 1
    30   31   29 1
    31   32   31 1
    32   33   32 2
    33   34   32 1
    34   35   34 1
    35   36   34 1
    36   37   34 1
    37   38   29 1
    38   39   38 1
    39   40   38 1
    40   41   40 1
    41   42   41 2
    42   43   41 1
    43   44   43 1
    44   45   43 1
    45   46   43 1
    46   47   18 1
    47   48   47 1
    48   49   47 1
    49   50   49 1
    50   51   50 2
    51   52   50 1
    52   53   52 1
    53   54   52 1
    54   55   52 1
    55   56   28 1
    56   57   56 1
    57   58   56 1
    58   59   56 1
    59    8   11 1
    60   38   47 1
@<TRIPOS>SUBSTRUCTURE
     1 RES1 1

@<TRIPOS>CRYSIN
   5.6135   18.2020   23.1890  90.0000  90.0000  90.0000  19 1

