# MOL2 file generated by ConQuest
# Please check atom types

@<TRIPOS>MOLECULE
TEXFIN
    89    97     2
SMALL
NO_CHARGES
****
Generated from CSD

@<TRIPOS>ATOM
      1 O1        13.6757    2.1381    1.9039 O.3       1 RES1    0.0000
      2 C1        15.2460    2.0461    3.6558 C.ar      1 RES1    0.0000
      3 C2        12.1982    2.2130    0.2224 C.2       1 RES1    0.0000
      4 N1        12.8062    1.4046    1.0133 N.2       1 RES1    0.0000
      5 C3         9.9083    1.7763   -0.6853 C.ar      1 RES1    0.0000
      6 C4         9.5939    0.2515   -2.5811 C.ar      1 RES1    0.0000
      7 C5         7.6337    1.3261   -1.5658 C.ar      1 RES1    0.0000
      8 C6         7.9435    2.7846    0.3462 C.ar      1 RES1    0.0000
      9 H1         7.5813    3.3305    1.0053 H         1 RES1    0.0000
     10 C7        14.4927    1.3187    2.6274 C.2       1 RES1    0.0000
     11 C8         9.0519    1.1089   -1.6060 C.ar      1 RES1    0.0000
     12 C9        11.8005    0.6784   -1.6795 C.ar      1 RES1    0.0000
     13 H2        12.7174    0.5238   -1.7107 H         1 RES1    0.0000
     14 C10       16.6911    3.2961    5.6029 C.ar      1 RES1    0.0000
     15 H3        17.2024    3.7304    6.2449 H         1 RES1    0.0000
     16 O2        14.5612    0.1460    2.4432 O.2       1 RES1    0.0000
     17 C11        7.0708    2.1725   -0.5917 C.ar      1 RES1    0.0000
     18 C12        9.2649    2.6018    0.3150 C.ar      1 RES1    0.0000
     19 H4         9.7912    3.0201    0.9570 H         1 RES1    0.0000
     20 C13       12.3978    3.6985    0.2033 C.3       1 RES1    0.0000
     21 H5        13.0218    3.9475    0.8895 H         1 RES1    0.0000
     22 H6        11.5587    4.1352    0.3623 H         1 RES1    0.0000
     23 H7        12.7398    3.9647   -0.6531 H         1 RES1    0.0000
     24 C14       10.9631    0.0442   -2.5791 C.ar      1 RES1    0.0000
     25 H8        11.3309   -0.5410   -3.2020 H         1 RES1    0.0000
     26 C15        6.8038    0.6575   -2.4815 C.ar      1 RES1    0.0000
     27 C16       11.2788    1.5456   -0.7295 C.ar      1 RES1    0.0000
     28 C17       15.3010    3.4200    3.6759 C.ar      1 RES1    0.0000
     29 H9        14.8496    3.9205    3.0339 H         1 RES1    0.0000
     30 C18        7.3866   -0.1963   -3.4435 C.ar      1 RES1    0.0000
     31 H10        6.8338   -0.6219   -4.0593 H         1 RES1    0.0000
     32 C19        8.7281   -0.4171   -3.4968 C.ar      1 RES1    0.0000
     33 H11        9.0787   -1.0022   -4.1287 H         1 RES1    0.0000
     34 C20       16.6192    1.9271    5.6341 C.ar      1 RES1    0.0000
     35 C21       16.0369    4.0481    4.6671 C.ar      1 RES1    0.0000
     36 H12       16.0851    4.9755    4.6963 H         1 RES1    0.0000
     37 C22        5.6968    2.3712   -0.5746 C.ar      1 RES1    0.0000
     38 H13        5.3158    2.9318    0.0614 H         1 RES1    0.0000
     39 C23       15.9214    1.3310    4.6208 C.ar      1 RES1    0.0000
     40 H14       15.8982    0.4011    4.5816 H         1 RES1    0.0000
     41 C24        4.9062    1.7407   -1.4943 C.ar      1 RES1    0.0000
     42 H15        3.9902    1.8916   -1.4722 H         1 RES1    0.0000
     43 C25        5.4028    0.9114   -2.4322 C.ar      1 RES1    0.0000
     44 H16        4.8349    0.5054   -3.0460 H         1 RES1    0.0000
     45 O3         0.5580   -1.0954    2.1665 O.3       2 RES2    0.0000
     46 N2         1.8140   -1.6806    1.7318 N.2       2 RES2    0.0000
     47 O4         0.1070   -3.0471    3.2050 O.2       2 RES2    0.0000
     48 C26        6.1726   -1.3629    0.6309 C.ar      2 RES2    0.0000
     49 C27        4.9229   -0.8979    1.1059 C.ar      2 RES2    0.0000
     50 C28        7.3770   -0.9519    1.2629 C.ar      2 RES2    0.0000
     51 C29        8.6195   -1.4500    0.8010 C.ar      2 RES2    0.0000
     52 C30        5.0321   -2.6534   -1.0526 C.ar      2 RES2    0.0000
     53 H17        5.0558   -3.2373   -1.7761 H         2 RES2    0.0000
     54 C31        4.9320    0.0074    2.2088 C.ar      2 RES2    0.0000
     55 H18        4.1221    0.3312    2.5338 H         2 RES2    0.0000
     56 C32        6.0810    0.4060    2.7934 C.ar      2 RES2    0.0000
     57 H19        6.0464    1.0034    3.5048 H         2 RES2    0.0000
     58 C33        7.4934   -2.7110   -0.9087 C.ar      2 RES2    0.0000
     59 H20        7.5382   -3.2937   -1.6322 H         2 RES2    0.0000
     60 C34        6.2289   -2.2436   -0.4669 C.ar      2 RES2    0.0000
     61 C35        3.7470   -1.3469    0.4890 C.ar      2 RES2    0.0000
     62 C36       -1.2370   -1.1347    3.6538 C.ar      2 RES2    0.0000
     63 C37        2.4084   -0.8710    0.9851 C.2       2 RES2    0.0000
     64 C38       -1.9818   -1.7763    4.6178 C.ar      2 RES2    0.0000
     65 H21       -1.8255   -2.6742    4.8019 H         2 RES2    0.0000
     66 C39        7.3366   -0.0626    2.3506 C.ar      2 RES2    0.0000
     67 C40       -1.4827    0.2012    3.4012 C.ar      2 RES2    0.0000
     68 H22       -0.9784    0.6465    2.7612 H         2 RES2    0.0000
     69 C41       -3.1850    0.2380    5.0454 C.ar      2 RES2    0.0000
     70 H23       -3.8331    0.6992    5.5285 H         2 RES2    0.0000
     71 C42        8.6257   -2.3295   -0.3059 C.ar      2 RES2    0.0000
     72 H24        9.4379   -2.6521   -0.6229 H         2 RES2    0.0000
     73 C43       -2.9585   -1.0893    5.3111 C.ar      2 RES2    0.0000
     74 H25       -3.4664   -1.5260    5.9571 H         2 RES2    0.0000
     75 C44        9.8108   -1.0022    1.4138 C.ar      2 RES2    0.0000
     76 H26       10.6379   -1.2917    1.0968 H         2 RES2    0.0000
     77 C45       -2.4736    0.8881    4.0855 C.ar      2 RES2    0.0000
     78 H27       -2.6469    1.7799    3.8912 H         2 RES2    0.0000
     79 C46       -0.1446   -1.8916    3.0047 C.2       2 RES2    0.0000
     80 C47        9.7457   -0.1398    2.4774 C.ar      2 RES2    0.0000
     81 H28       10.5330    0.1239    2.8950 H         2 RES2    0.0000
     82 C48        3.8193   -2.2142   -0.5877 C.ar      2 RES2    0.0000
     83 H29        3.0345   -2.5012   -1.0002 H         2 RES2    0.0000
     84 C49        8.5444    0.3459    2.9474 C.ar      2 RES2    0.0000
     85 H30        8.5339    0.9458    3.6578 H         2 RES2    0.0000
     86 C50        1.9356    0.4944    0.5997 C.3       2 RES2    0.0000
     87 H31        1.0690    0.6551    0.9851 H         2 RES2    0.0000
     88 H32        1.8736    0.5545   -0.3562 H         2 RES2    0.0000
     89 H33        2.5552    1.1519    0.9228 H         2 RES2    0.0000
@<TRIPOS>BOND
     1    1    4 1
     2    2   10 1
     3    3    4 2
     4    5   11 ar
     5    6   11 ar
     6    7   11 ar
     7    8    9 1
     8   10    1 1
     9   12   13 1
    10   14   15 1
    11   16   10 2
    12   17    7 ar
    13   18    5 ar
    14   19   18 1
    15   20    3 1
    16   21   20 1
    17   22   20 1
    18   23   20 1
    19   24    6 ar
    20   25   24 1
    21   26    7 ar
    22   27    3 1
    23   28    2 ar
    24   29   28 1
    25   30   26 ar
    26   31   30 1
    27   32    6 ar
    28   33   32 1
    29   34   14 ar
    30   35   14 ar
    31   36   35 1
    32   37   17 ar
    33   38   37 1
    34   39    2 ar
    35   40   39 1
    36   41   37 ar
    37   42   41 1
    38   43   26 ar
    39   44   43 1
    40   45   46 1
    41   46   63 2
    42   47   79 2
    43   48   49 ar
    44   49   54 ar
    45   50   48 ar
    46   51   50 ar
    47   52   53 1
    48   54   55 1
    49   56   54 ar
    50   57   56 1
    51   58   59 1
    52   60   48 ar
    53   61   49 ar
    54   62   64 ar
    55   63   61 1
    56   64   65 1
    57   66   50 ar
    58   67   62 ar
    59   68   67 1
    60   69   70 1
    61   71   51 ar
    62   72   71 1
    63   73   64 ar
    64   74   73 1
    65   75   51 ar
    66   76   75 1
    67   77   67 ar
    68   78   77 1
    69   79   45 1
    70   80   75 ar
    71   81   80 1
    72   82   52 ar
    73   83   82 1
    74   84   66 ar
    75   85   84 1
    76   86   63 1
    77   87   86 1
    78   88   86 1
    79   89   86 1
    80    5   27 ar
    81    8   17 ar
    82    8   18 ar
    83   12   24 ar
    84   12   27 ar
    85   28   35 ar
    86   30   32 ar
    87   34   39 ar
    88   41   43 ar
    89   52   60 ar
    90   56   66 ar
    91   58   60 ar
    92   58   71 ar
    93   61   82 ar
    94   62   79 1
    95   69   73 ar
    96   69   77 ar
    97   80   84 ar
@<TRIPOS>SUBSTRUCTURE
     1 RES1 1
     2 RES2 45

@<TRIPOS>CRYSIN
  29.9640   12.2670   10.1080  90.0000  95.4260  90.0000  14 1

