# MOL2 file generated by ConQuest
# Please check atom types

@<TRIPOS>MOLECULE
TEXRET
    56    60     1
SMALL
NO_CHARGES
****
Generated from CSD

@<TRIPOS>ATOM
      1 N1         1.7759    2.7849   -1.6140 N.2       1 RES1    0.0000
      2 O1         2.5218    1.5815   -1.4373 O.3       1 RES1    0.0000
      3 C1         1.5896    0.4751   -1.3895 C.3       1 RES1    0.0000
      4 H1         1.8442   -0.1563   -0.6995 H         1 RES1    0.0000
      5 H2         1.5660    0.0109   -2.2419 H         1 RES1    0.0000
      6 C2         0.2473    1.0859   -1.0815 C.3       1 RES1    0.0000
      7 H3         0.0008    0.9574   -0.1409 H         1 RES1    0.0000
      8 C3        -0.9477    0.9017   -2.0007 C.3       1 RES1    0.0000
      9 H4        -0.6475    0.7805   -2.9247 H         1 RES1    0.0000
     10 C4        -1.7116    2.2117   -1.8622 C.3       1 RES1    0.0000
     11 H5        -2.2892    2.1669   -1.0720 H         1 RES1    0.0000
     12 C5        -0.6459    3.3303   -1.6569 C.3       1 RES1    0.0000
     13 H6        -0.8753    3.8999   -0.8929 H         1 RES1    0.0000
     14 C6         0.5629    2.5208   -1.3752 C.2       1 RES1    0.0000
     15 O2        -0.5320    4.1035   -2.8640 O.3       1 RES1    0.0000
     16 C7        -0.1123    5.3760   -2.7122 C.2       1 RES1    0.0000
     17 O3         0.2733    5.8171   -1.6674 O.2       1 RES1    0.0000
     18 C8        -0.2318    6.1540   -3.9656 C.ar      1 RES1    0.0000
     19 C9         0.3238    7.4229   -3.9991 C.ar      1 RES1    0.0000
     20 H7         0.7785    7.7513   -3.2565 H         1 RES1    0.0000
     21 C10        0.2026    8.1924   -5.1236 C.ar      1 RES1    0.0000
     22 H8         0.5898    9.0371   -5.1475 H         1 RES1    0.0000
     23 C11       -0.4767    7.7331   -6.2003 C.ar      1 RES1    0.0000
     24 H9        -0.5613    8.2700   -6.9548 H         1 RES1    0.0000
     25 C12       -1.0453    6.4728   -6.1884 C.ar      1 RES1    0.0000
     26 H10       -1.5099    6.1601   -6.9309 H         1 RES1    0.0000
     27 C13       -0.9152    5.6862   -5.0615 C.ar      1 RES1    0.0000
     28 H11       -1.2918    4.8355   -5.0448 H         1 RES1    0.0000
     29 O4        -2.5235    2.3874   -3.0300 O.3       1 RES1    0.0000
     30 C14       -3.3492    3.4600   -2.9915 C.2       1 RES1    0.0000
     31 O5        -3.4533    4.1532   -2.0186 O.2       1 RES1    0.0000
     32 C15       -4.0301    3.6939   -4.2856 C.ar      1 RES1    0.0000
     33 C16       -4.8420    4.7906   -4.4145 C.ar      1 RES1    0.0000
     34 H12       -5.0071    5.3275   -3.6720 H         1 RES1    0.0000
     35 C17       -5.4122    5.1045   -5.6130 C.ar      1 RES1    0.0000
     36 H13       -5.9630    5.8498   -5.6918 H         1 RES1    0.0000
     37 C18       -5.1674    4.3180   -6.6898 C.ar      1 RES1    0.0000
     38 H14       -5.5513    4.5301   -7.5111 H         1 RES1    0.0000
     39 C19       -4.3669    3.2212   -6.5847 C.ar      1 RES1    0.0000
     40 H15       -4.2034    2.6965   -7.3344 H         1 RES1    0.0000
     41 C20       -3.7958    2.8831   -5.3767 C.ar      1 RES1    0.0000
     42 H16       -3.2646    2.1245   -5.2979 H         1 RES1    0.0000
     43 O6        -1.8767   -0.1454   -1.6350 O.3       1 RES1    0.0000
     44 C21       -1.4757   -1.4119   -1.8599 C.2       1 RES1    0.0000
     45 O7        -0.3620   -1.6858   -2.2041 O.2       1 RES1    0.0000
     46 C22       -2.5869   -2.3790   -1.6832 C.ar      1 RES1    0.0000
     47 C23       -3.8885   -1.9802   -1.4635 C.ar      1 RES1    0.0000
     48 H17       -4.0830   -1.0774   -1.3585 H         1 RES1    0.0000
     49 C24       -4.8916   -2.9001   -1.3967 C.ar      1 RES1    0.0000
     50 H18       -5.7685   -2.6226   -1.2582 H         1 RES1    0.0000
     51 C25       -4.6077   -4.2574   -1.5352 C.ar      1 RES1    0.0000
     52 H19       -5.2894   -4.8876   -1.4874 H         1 RES1    0.0000
     53 C26       -3.3288   -4.6488   -1.7405 C.ar      1 RES1    0.0000
     54 H20       -3.1360   -5.5541   -1.8336 H         1 RES1    0.0000
     55 C27       -2.3112   -3.7302   -1.8121 C.ar      1 RES1    0.0000
     56 H21       -1.4366   -4.0150   -1.9482 H         1 RES1    0.0000
@<TRIPOS>BOND
     1    1    2 1
     2    2    3 1
     3    3    4 1
     4    5    3 1
     5    6    3 1
     6    7    6 1
     7    8    6 1
     8    9    8 1
     9   10    8 1
    10   11   10 1
    11   12   10 1
    12   13   12 1
    13   14    1 2
    14   15   12 1
    15   16   15 1
    16   17   16 2
    17   18   16 1
    18   19   18 ar
    19   20   19 1
    20   21   19 ar
    21   22   21 1
    22   23   21 ar
    23   24   23 1
    24   25   23 ar
    25   26   25 1
    26   27   18 ar
    27   28   27 1
    28   29   10 1
    29   30   29 1
    30   31   30 2
    31   32   30 1
    32   33   32 ar
    33   34   33 1
    34   35   33 ar
    35   36   35 1
    36   37   35 ar
    37   38   37 1
    38   39   37 ar
    39   40   39 1
    40   41   32 ar
    41   42   41 1
    42   43    8 1
    43   44   43 1
    44   45   44 2
    45   46   44 1
    46   47   46 ar
    47   48   47 1
    48   49   47 ar
    49   50   49 1
    50   51   49 ar
    51   52   51 1
    52   53   51 ar
    53   54   53 1
    54   55   46 ar
    55   56   55 1
    56    6   14 1
    57   12   14 1
    58   25   27 ar
    59   39   41 ar
    60   53   55 ar
@<TRIPOS>SUBSTRUCTURE
     1 RES1 1

@<TRIPOS>CRYSIN
   8.1350   12.1190   23.8750  90.0000  90.0000  90.0000  19 1

