# MOL2 file generated by ConQuest
# Please check atom types

@<TRIPOS>MOLECULE
TEYHOV
    20    21     1
SMALL
NO_CHARGES
****
Generated from CSD

@<TRIPOS>ATOM
      1 O1         1.3735    6.9919    2.4795 O.3       1 RES1    0.0000
      2 H1         0.8999    7.1836    3.1470 H         1 RES1    0.0000
      3 N1         2.0478    5.7824    2.7142 N.2       1 RES1    0.0000
      4 C1         2.8719    5.5442    1.7618 C.2       1 RES1    0.0000
      5 C2         3.1155    6.3861    0.5498 C.3       1 RES1    0.0000
      6 H2         3.3859    7.3029    0.8088 H         1 RES1    0.0000
      7 H3         2.2993    6.4389   -0.0089 H         1 RES1    0.0000
      8 C3         4.2548    5.6785   -0.2158 C.3       1 RES1    0.0000
      9 H4         3.9664    5.4400   -1.1328 H         1 RES1    0.0000
     10 H5         5.0553    6.2589   -0.2720 H         1 RES1    0.0000
     11 C4         4.5480    4.4395    0.5924 C.ar      1 RES1    0.0000
     12 C5         5.4918    3.4494    0.3447 C.ar      1 RES1    0.0000
     13 H6         6.0407    3.4894   -0.4298 H         1 RES1    0.0000
     14 C6         5.6191    2.4084    1.2409 C.ar      1 RES1    0.0000
     15 H7         6.2657    1.7301    1.0831 H         1 RES1    0.0000
     16 C7         4.8128    2.3366    2.3713 C.ar      1 RES1    0.0000
     17 H8         4.9158    1.6109    2.9762 H         1 RES1    0.0000
     18 C8         3.8692    3.3041    2.6220 C.ar      1 RES1    0.0000
     19 H9         3.3140    3.2532    3.3918 H         1 RES1    0.0000
     20 C9         3.7434    4.3601    1.7257 C.ar      1 RES1    0.0000
@<TRIPOS>BOND
     1    1    2 1
     2    3    1 1
     3    4    3 2
     4    5    4 1
     5    6    5 1
     6    7    5 1
     7    8    5 1
     8    9    8 1
     9   10    8 1
    10   11    8 1
    11   12   11 ar
    12   13   12 1
    13   14   12 ar
    14   15   14 1
    15   16   14 ar
    16   17   16 1
    17   18   16 ar
    18   19   18 1
    19   20    4 1
    20   11   20 ar
    21   18   20 ar
@<TRIPOS>SUBSTRUCTURE
     1 RES1 1

@<TRIPOS>CRYSIN
  22.4980   22.4980    5.9121  90.0000  90.0000  90.0000  88 1

