# MOL2 file generated by ConQuest
# Please check atom types

@<TRIPOS>MOLECULE
TEYLIS
    22    23     1
SMALL
NO_CHARGES
****
Generated from CSD

@<TRIPOS>ATOM
      1 N1        -6.9925   -0.9073   21.0211 N.3       1 RES1    0.0000
      2 N2        -5.9191    0.0129   20.7874 N.3       1 RES1    0.0000
      3 N3        -4.2130   -3.1144   21.5994 N.pl3     1 RES1    0.0000
      4 O1        -2.7422   -0.1362   21.8756 O.2       1 RES1    0.0000
      5 O2        -3.2017    0.6567   19.8573 O.3       1 RES1    0.0000
      6 O3        -3.4357   -3.4392   22.3902 O.2       1 RES1    0.0000
      7 O4        -4.3904   -3.7236   20.6245 O.2       1 RES1    0.0000
      8 C1        -4.7389   -0.8396   20.7709 C.3       1 RES1    0.0000
      9 C2        -4.9915   -1.8630   21.8591 C.3       1 RES1    0.0000
     10 C3        -6.5009   -2.0790   21.7883 C.3       1 RES1    0.0000
     11 C4        -7.8018   -1.1491   19.8691 C.ar      1 RES1    0.0000
     12 C5        -8.8519   -2.0548   19.9635 C.ar      1 RES1    0.0000
     13 C6        -9.6850   -2.2522   18.8470 C.ar      1 RES1    0.0000
     14 C7        -9.4820   -1.5592   17.7044 C.ar      1 RES1    0.0000
     15 C8        -8.4707   -0.6672   17.6218 C.ar      1 RES1    0.0000
     16 C9        -7.6304   -0.4432   18.6935 C.ar      1 RES1    0.0000
     17 C10       -5.9134    1.0556   21.8284 C.3       1 RES1    0.0000
     18 C11       -7.1340    1.9162   21.7104 C.3       1 RES1    0.0000
     19 C12       -3.4444   -0.0733   20.9149 C.2       1 RES1    0.0000
     20 C13       -1.9774    1.4472   19.8620 C.3       1 RES1    0.0000
     21 C14       -1.8582    2.1015   18.5495 C.3       1 RES1    0.0000
     22 C15       -7.1779   -2.2047   23.1433 C.3       1 RES1    0.0000
@<TRIPOS>BOND
     1    1    2 1
     2    2    8 1
     3    3    6 2
     4    4   19 2
     5    5   19 1
     6    7    3 2
     7    8    9 1
     8    9    3 1
     9   10    1 1
    10   11    1 1
    11   12   11 ar
    12   13   12 ar
    13   14   13 ar
    14   15   14 ar
    15   16   11 ar
    16   17    2 1
    17   18   17 1
    18   19    8 1
    19   20    5 1
    20   21   20 1
    21   22   10 1
    22    9   10 1
    23   15   16 ar
@<TRIPOS>SUBSTRUCTURE
     1 RES1 1

@<TRIPOS>CRYSIN
   8.7330    8.0580   23.9850  90.0000 100.2000  90.0000  14 1

