# MOL2 file generated by ConQuest
# Please check atom types

@<TRIPOS>MOLECULE
TEYMAN
    60    64     1
SMALL
NO_CHARGES
****
Generated from CSD

@<TRIPOS>ATOM
      1 O1         3.9888    3.6009    1.7027 O.2       1 RES1    0.0000
      2 O2         2.2135    2.7755    2.3748 O.2       1 RES1    0.0000
      3 O3         1.8211    9.3016    5.6115 O.2       1 RES1    0.0000
      4 N1         3.0862    3.5517    2.4805 N.pl3     1 RES1    0.0000
      5 N2         1.7007    6.2987    9.2096 N.pl3     1 RES1    0.0000
      6 H1         1.2148    5.8753    9.7790 H         1 RES1    0.0000
      7 C1         3.1440    4.4755    3.6284 C.ar      1 RES1    0.0000
      8 C2         4.0627    5.4893    3.6492 C.ar      1 RES1    0.0000
      9 H2         4.6778    5.5834    2.9586 H         1 RES1    0.0000
     10 C3         4.0606    6.3722    4.7162 C.ar      1 RES1    0.0000
     11 H3         4.6694    7.0752    4.7287 H         1 RES1    0.0000
     12 C4         3.1672    6.2250    5.7636 C.ar      1 RES1    0.0000
     13 C5         3.1784    7.1874    6.9480 C.3       1 RES1    0.0000
     14 H4         3.7291    7.9614    6.7072 H         1 RES1    0.0000
     15 C6         3.8294    6.4917    8.1470 C.2       1 RES1    0.0000
     16 C7         3.0822    6.0517    9.1695 C.2       1 RES1    0.0000
     17 C8         3.5582    5.2979   10.3598 C.ar      1 RES1    0.0000
     18 C9         4.5240    5.7864   11.2038 C.ar      1 RES1    0.0000
     19 H5         4.9466    6.5919   11.0073 H         1 RES1    0.0000
     20 C10        4.8755    5.0833   12.3525 C.ar      1 RES1    0.0000
     21 H6         5.5212    5.4286   12.9255 H         1 RES1    0.0000
     22 C11        4.2821    3.8959   12.6449 C.ar      1 RES1    0.0000
     23 H7         4.5245    3.4293   13.4120 H         1 RES1    0.0000
     24 C12        2.2602    4.2820    4.6632 C.ar      1 RES1    0.0000
     25 H8         1.6592    3.5716    4.6505 H         1 RES1    0.0000
     26 C13        2.2856    5.1660    5.7204 C.ar      1 RES1    0.0000
     27 H9         1.6898    5.0446    6.4254 H         1 RES1    0.0000
     28 C14        5.2940    6.2539    8.0355 C.ar      1 RES1    0.0000
     29 C15        6.1647    7.3180    7.8631 C.ar      1 RES1    0.0000
     30 H10        5.8287    8.1852    7.8536 H         1 RES1    0.0000
     31 C16        7.5202    7.1150    7.7054 C.ar      1 RES1    0.0000
     32 H11        8.0881    7.8431    7.5995 H         1 RES1    0.0000
     33 C17        8.0297    5.8450    7.7059 C.ar      1 RES1    0.0000
     34 H12        8.9423    5.7069    7.5922 H         1 RES1    0.0000
     35 C18        7.1859    4.7800    7.8747 C.ar      1 RES1    0.0000
     36 H13        7.5308    3.9158    7.8788 H         1 RES1    0.0000
     37 C19        5.8257    4.9745    8.0383 C.ar      1 RES1    0.0000
     38 H14        5.2649    4.2422    8.1510 H         1 RES1    0.0000
     39 C20        3.3391    3.3959   11.8189 C.ar      1 RES1    0.0000
     40 H15        2.9460    2.5757   12.0079 H         1 RES1    0.0000
     41 C21        2.9564    4.1020   10.6906 C.ar      1 RES1    0.0000
     42 H16        2.2820    3.7631   10.1475 H         1 RES1    0.0000
     43 C22        1.1117    7.1914    8.3692 C.2       1 RES1    0.0000
     44 C23        1.7867    7.6881    7.3024 C.2       1 RES1    0.0000
     45 C24        1.2021    8.7376    6.5162 C.2       1 RES1    0.0000
     46 C25       -0.1988    9.1979    6.8448 C.3       1 RES1    0.0000
     47 H17       -0.6391    9.4469    6.0172 H         1 RES1    0.0000
     48 H18       -0.1375    9.9962    7.3924 H         1 RES1    0.0000
     49 C26       -1.0769    8.1852    7.5714 C.3       1 RES1    0.0000
     50 C27       -2.3347    8.8747    8.1136 C.3       1 RES1    0.0000
     51 H19       -2.8485    8.2459    8.6266 H         1 RES1    0.0000
     52 H20       -2.8638    9.1969    7.3803 H         1 RES1    0.0000
     53 H21       -2.0805    9.6122    8.6724 H         1 RES1    0.0000
     54 C28       -0.2682    7.6339    8.7440 C.3       1 RES1    0.0000
     55 H22       -0.2018    8.3181    9.4286 H         1 RES1    0.0000
     56 H23       -0.7457    6.8807    9.1264 H         1 RES1    0.0000
     57 C29       -1.4805    7.0491    6.6265 C.3       1 RES1    0.0000
     58 H24       -0.6912    6.6359    6.2677 H         1 RES1    0.0000
     59 H25       -2.0095    7.4027    5.9076 H         1 RES1    0.0000
     60 H26       -1.9909    6.3963    7.1106 H         1 RES1    0.0000
@<TRIPOS>BOND
     1    1    4 2
     2    2    4 2
     3    3   45 2
     4    4    7 1
     5    5    6 1
     6    7    8 ar
     7    8    9 1
     8   10    8 ar
     9   11   10 1
    10   12   10 ar
    11   13   12 1
    12   14   13 1
    13   15   13 1
    14   16    5 1
    15   17   16 1
    16   18   17 ar
    17   19   18 1
    18   20   18 ar
    19   21   20 1
    20   22   20 ar
    21   23   22 1
    22   24    7 ar
    23   25   24 1
    24   26   12 ar
    25   27   26 1
    26   28   15 1
    27   29   28 ar
    28   30   29 1
    29   31   29 ar
    30   32   31 1
    31   33   31 ar
    32   34   33 1
    33   35   33 ar
    34   36   35 1
    35   37   28 ar
    36   38   37 1
    37   39   22 ar
    38   40   39 1
    39   41   17 ar
    40   42   41 1
    41   43    5 1
    42   44   13 1
    43   45   44 1
    44   46   45 1
    45   47   46 1
    46   48   46 1
    47   49   46 1
    48   50   49 1
    49   51   50 1
    50   52   50 1
    51   53   50 1
    52   54   43 1
    53   55   54 1
    54   56   54 1
    55   57   49 1
    56   58   57 1
    57   59   57 1
    58   60   57 1
    59   15   16 2
    60   24   26 ar
    61   35   37 ar
    62   39   41 ar
    63   43   44 2
    64   49   54 1
@<TRIPOS>SUBSTRUCTURE
     1 RES1 1

@<TRIPOS>CRYSIN
  19.1534   10.4617   12.4228  90.0000 104.2300  90.0000  14 1

