# MOL2 file generated by ConQuest
# Please check atom types

@<TRIPOS>MOLECULE
TEYPOD
    41    43     1
SMALL
NO_CHARGES
****
Generated from CSD

@<TRIPOS>ATOM
      1 C1         6.8559    0.3028    5.6475 C.3       1 RES1    0.0000
      2 C2         7.7293    0.8101    4.4997 C.3       1 RES1    0.0000
      3 H1         8.3866    0.1408    4.2135 H         1 RES1    0.0000
      4 C3         8.3852    2.0506    5.0571 C.3       1 RES1    0.0000
      5 H2         8.5080    2.7120    4.3601 H         1 RES1    0.0000
      6 H3         9.2522    1.8354    5.4366 H         1 RES1    0.0000
      7 C4         7.4371    2.5832    6.1466 C.3       1 RES1    0.0000
      8 H4         7.1297    3.4743    5.9206 H         1 RES1    0.0000
      9 H5         7.8928    2.6203    7.0021 H         1 RES1    0.0000
     10 C5         6.2430    1.6030    6.2149 C.3       1 RES1    0.0000
     11 H6         5.5546    1.9151    5.5923 H         1 RES1    0.0000
     12 C6         5.6012    1.4104    7.5745 C.3       1 RES1    0.0000
     13 H7         4.7787    0.9097    7.4641 H         1 RES1    0.0000
     14 H8         5.3716    2.2790    7.9390 H         1 RES1    0.0000
     15 C7         6.4928    0.6787    8.5707 C.3       1 RES1    0.0000
     16 H9         7.2547    1.2365    8.7946 H         1 RES1    0.0000
     17 H10        5.9953    0.5087    9.3861 H         1 RES1    0.0000
     18 C8         6.9793   -0.6335    7.9913 C.3       1 RES1    0.0000
     19 H11        7.5654   -1.0691    8.6289 H         1 RES1    0.0000
     20 H12        6.2201   -1.2165    7.8346 H         1 RES1    0.0000
     21 C9         7.7213   -0.4170    6.6959 C.3       1 RES1    0.0000
     22 H13        8.0014   -1.2763    6.3414 H         1 RES1    0.0000
     23 H14        8.5175    0.1089    6.8676 H         1 RES1    0.0000
     24 C10        5.8026   -0.6162    5.1745 C.1       1 RES1    0.0000
     25 C11        7.2794    1.1236    2.1751 C.2       1 RES1    0.0000
     26 C12        6.2263    1.5297    1.2000 C.ar      1 RES1    0.0000
     27 C13        4.9230    1.7836    1.5746 C.ar      1 RES1    0.0000
     28 H15        4.6822    1.7531    2.4723 H         1 RES1    0.0000
     29 C14        3.9797    2.0838    0.6216 C.ar      1 RES1    0.0000
     30 H16        3.0998    2.2618    0.8656 H         1 RES1    0.0000
     31 C15        4.3578    2.1183   -0.6929 C.ar      1 RES1    0.0000
     32 C16        5.6439    1.8965   -1.0946 C.ar      1 RES1    0.0000
     33 H17        5.8800    1.9443   -1.9923 H         1 RES1    0.0000
     34 C17        6.5794    1.5964   -0.1275 C.ar      1 RES1    0.0000
     35 H18        7.4624    1.4383   -0.3766 H         1 RES1    0.0000
     36 N1         4.9865   -1.3254    4.8401 N.1       1 RES1    0.0000
     37 N2         3.3275    2.4092   -1.7081 N.pl3     1 RES1    0.0000
     38 O1         6.8190    1.1755    3.4293 O.3       1 RES1    0.0000
     39 O2         8.3923    0.7811    1.8899 O.2       1 RES1    0.0000
     40 O3         2.1903    2.6044   -1.3195 O.2       1 RES1    0.0000
     41 O4         3.6618    2.4159   -2.8780 O.2       1 RES1    0.0000
@<TRIPOS>BOND
     1    1    2 1
     2    2    3 1
     3    4    2 1
     4    5    4 1
     5    6    4 1
     6    7    4 1
     7    8    7 1
     8    9    7 1
     9   10    1 1
    10   11   10 1
    11   12   10 1
    12   13   12 1
    13   14   12 1
    14   15   12 1
    15   16   15 1
    16   17   15 1
    17   18   15 1
    18   19   18 1
    19   20   18 1
    20   21    1 1
    21   22   21 1
    22   23   21 1
    23   24    1 1
    24   25   26 1
    25   26   27 ar
    26   27   28 1
    27   29   27 ar
    28   30   29 1
    29   31   29 ar
    30   32   31 ar
    31   33   32 1
    32   34   26 ar
    33   35   34 1
    34   36   24 3
    35   37   31 1
    36   38    2 1
    37   39   25 2
    38   40   37 2
    39   41   37 2
    40    7   10 1
    41   18   21 1
    42   25   38 1
    43   32   34 ar
@<TRIPOS>SUBSTRUCTURE
     1 RES1 1

@<TRIPOS>CRYSIN
  11.6040   13.2810   10.7820  90.0000 111.3540  90.0000  14 1

