# MOL2 file generated by ConQuest
# Please check atom types

@<TRIPOS>MOLECULE
TEZRIA
    63    67     1
SMALL
NO_CHARGES
****
Generated from CSD

@<TRIPOS>ATOM
      1 C1        -2.8093   22.4601    9.0703 C.3       1 RES1    0.0000
      2 C2        -1.6362   21.5524    9.4152 C.ar      1 RES1    0.0000
      3 C3        -0.9661   20.7695    8.4658 C.ar      1 RES1    0.0000
      4 C4         0.0944   19.9426    8.8302 C.ar      1 RES1    0.0000
      5 H1         0.5260   19.4317    8.1840 H         1 RES1    0.0000
      6 C5         0.5069   19.8805   10.1344 C.ar      1 RES1    0.0000
      7 H2         1.2257   19.3367   10.3620 H         1 RES1    0.0000
      8 C6        -0.1384   20.6235   11.1327 C.ar      1 RES1    0.0000
      9 C7        -1.1904   21.4506   10.7291 C.ar      1 RES1    0.0000
     10 H3        -1.6182   21.9622   11.3772 H         1 RES1    0.0000
     11 C8         0.2548   20.5392   12.5586 C.ar      1 RES1    0.0000
     12 C9         1.5570   20.2314   12.9480 C.ar      1 RES1    0.0000
     13 H4         2.1993   20.0493   12.2999 H         1 RES1    0.0000
     14 C10        1.9048   20.1946   14.2841 C.ar      1 RES1    0.0000
     15 H5         2.7770   19.9818   14.5259 H         1 RES1    0.0000
     16 C11        0.9824   20.4654   15.2576 C.ar      1 RES1    0.0000
     17 H6         1.2301   20.4519   16.1537 H         1 RES1    0.0000
     18 C12       -0.3100   20.7565   14.9020 C.ar      1 RES1    0.0000
     19 H7        -0.9425   20.9345   15.5607 H         1 RES1    0.0000
     20 C13       -0.6764   20.7857   13.5721 C.ar      1 RES1    0.0000
     21 H8        -1.5594   20.9720   13.3463 H         1 RES1    0.0000
     22 C14       -3.0879   22.4764    7.5652 C.ar      1 RES1    0.0000
     23 C15       -2.3907   21.6474    6.6709 C.ar      1 RES1    0.0000
     24 C16       -2.6843   21.6642    5.3081 C.ar      1 RES1    0.0000
     25 H9        -2.2294   21.0971    4.7285 H         1 RES1    0.0000
     26 C17       -3.6469   22.5204    4.8147 C.ar      1 RES1    0.0000
     27 H10       -3.8252   22.5374    3.9026 H         1 RES1    0.0000
     28 C18       -4.3575   23.3620    5.6726 C.ar      1 RES1    0.0000
     29 C19       -4.0591   23.3083    7.0309 C.ar      1 RES1    0.0000
     30 H11       -4.5358   23.8577    7.6097 H         1 RES1    0.0000
     31 C20       -5.3666   24.3015    5.1392 C.ar      1 RES1    0.0000
     32 C21       -6.1894   23.9372    4.0795 C.ar      1 RES1    0.0000
     33 H12       -6.1344   23.0775    3.7293 H         1 RES1    0.0000
     34 C22       -7.0821   24.8329    3.5453 C.ar      1 RES1    0.0000
     35 H13       -7.6177   24.5753    2.8305 H         1 RES1    0.0000
     36 C23       -7.1962   26.0991    4.0440 C.ar      1 RES1    0.0000
     37 H14       -7.7928   26.7033    3.6644 H         1 RES1    0.0000
     38 C24       -6.4248   26.4667    5.1090 C.ar      1 RES1    0.0000
     39 H15       -6.5170   27.3159    5.4779 H         1 RES1    0.0000
     40 C25       -5.5042   25.5780    5.6424 C.ar      1 RES1    0.0000
     41 H16       -4.9683   25.8481    6.3527 H         1 RES1    0.0000
     42 C26       -2.5146   23.9014    9.5468 C.3       1 RES1    0.0000
     43 H17       -3.2829   24.4553    9.3387 H         1 RES1    0.0000
     44 H18       -2.4156   23.8902   10.5113 H         1 RES1    0.0000
     45 C27       -1.2875   24.5446    8.9494 C.3       1 RES1    0.0000
     46 H19       -1.3458   24.4928    7.9822 H         1 RES1    0.0000
     47 H20       -0.5053   24.0427    9.2258 H         1 RES1    0.0000
     48 C28       -1.1060   25.9949    9.3503 C.3       1 RES1    0.0000
     49 H21       -1.0909   26.0631   10.3077 H         1 RES1    0.0000
     50 H22       -1.8329   26.5157    9.0036 H         1 RES1    0.0000
     51 H23       -0.2782   26.3232    8.9938 H         1 RES1    0.0000
     52 C29       -4.0732   21.9637    9.8090 C.3       1 RES1    0.0000
     53 H24       -3.9090   22.0173   10.7638 H         1 RES1    0.0000
     54 H25       -4.8024   22.5699    9.6063 H         1 RES1    0.0000
     55 C30       -4.5266   20.5532    9.4845 C.3       1 RES1    0.0000
     56 H26       -3.8132   19.9343    9.7014 H         1 RES1    0.0000
     57 H27       -4.6994   20.4869    8.5324 H         1 RES1    0.0000
     58 C31       -5.7788   20.1516   10.2446 C.3       1 RES1    0.0000
     59 H28       -6.4806   20.7795   10.0597 H         1 RES1    0.0000
     60 H29       -5.5924   20.1469   11.1860 H         1 RES1    0.0000
     61 H30       -6.0531   19.2742    9.9673 H         1 RES1    0.0000
     62 N1        -1.3853   20.7835    7.1216 N.pl3     1 RES1    0.0000
     63 O1        -0.8136   19.9973    6.2824 O.2       1 RES1    0.0000
@<TRIPOS>BOND
     1    1    2 1
     2    2    3 ar
     3    3    4 ar
     4    4    5 1
     5    6    4 ar
     6    7    6 1
     7    8    6 ar
     8    9    2 ar
     9   10    9 1
    10   11    8 1
    11   12   11 ar
    12   13   12 1
    13   14   12 ar
    14   15   14 1
    15   16   14 ar
    16   17   16 1
    17   18   16 ar
    18   19   18 1
    19   20   11 ar
    20   21   20 1
    21   22    1 1
    22   23   22 ar
    23   24   23 ar
    24   25   24 1
    25   26   24 ar
    26   27   26 1
    27   28   26 ar
    28   29   22 ar
    29   30   29 1
    30   31   28 1
    31   32   31 ar
    32   33   32 1
    33   34   32 ar
    34   35   34 1
    35   36   34 ar
    36   37   36 1
    37   38   36 ar
    38   39   38 1
    39   40   31 ar
    40   41   40 1
    41   42    1 1
    42   43   42 1
    43   44   42 1
    44   45   42 1
    45   46   45 1
    46   47   45 1
    47   48   45 1
    48   49   48 1
    49   50   48 1
    50   51   48 1
    51   52    1 1
    52   53   52 1
    53   54   52 1
    54   55   52 1
    55   56   55 1
    56   57   55 1
    57   58   55 1
    58   59   58 1
    59   60   58 1
    60   61   58 1
    61   62    3 1
    62   63   62 1
    63    8    9 ar
    64   18   20 ar
    65   23   62 1
    66   28   29 ar
    67   38   40 ar
@<TRIPOS>SUBSTRUCTURE
     1 RES1 1

@<TRIPOS>CRYSIN
  11.0586   25.0054    9.3633  90.0000 108.2990  90.0000   9 1

