# MOL2 file generated by ConQuest
# Please check atom types

@<TRIPOS>MOLECULE
TEZXOM
    48    51     1
SMALL
NO_CHARGES
****
Generated from CSD

@<TRIPOS>ATOM
      1 O1         7.0698    2.5159    6.9991 O.3       1 RES1    0.0000
      2 N1         9.0434    5.2345    2.5291 N.pl3     1 RES1    0.0000
      3 O2         8.5188    6.3008    2.1899 O.2       1 RES1    0.0000
      4 O3         9.9865    4.7237    1.9200 O.2       1 RES1    0.0000
      5 C1         6.2040    3.1475    7.9168 C.ar      1 RES1    0.0000
      6 C2         4.9621    2.5636    8.1144 C.ar      1 RES1    0.0000
      7 H1         4.6904    1.8086    7.6058 H         1 RES1    0.0000
      8 C3         4.1196    3.1207    9.0862 C.ar      1 RES1    0.0000
      9 H2         3.2624    2.7342    9.2228 H         1 RES1    0.0000
     10 C4         4.4878    4.2137    9.8557 C.ar      1 RES1    0.0000
     11 C5         5.7747    4.7547    9.6403 C.ar      1 RES1    0.0000
     12 H3         6.0678    5.4910   10.1646 H         1 RES1    0.0000
     13 C6         6.6197    4.2219    8.6689 C.ar      1 RES1    0.0000
     14 H4         7.4792    4.5989    8.5269 H         1 RES1    0.0000
     15 C7         7.5293    3.2601    5.9256 C.ar      1 RES1    0.0000
     16 C8         6.8711    4.3866    5.4393 C.ar      1 RES1    0.0000
     17 H5         6.0874    4.7074    5.8696 H         1 RES1    0.0000
     18 C9         7.3723    5.0358    4.3181 C.ar      1 RES1    0.0000
     19 H6         6.9403    5.8074    3.9704 H         1 RES1    0.0000
     20 C10        8.5244    4.5304    3.7128 C.ar      1 RES1    0.0000
     21 C11        9.1809    3.4066    4.1900 C.ar      1 RES1    0.0000
     22 H7         9.9619    3.0849    3.7557 H         1 RES1    0.0000
     23 C12        8.6837    2.7613    5.3050 C.ar      1 RES1    0.0000
     24 H8         9.1183    1.9894    5.6476 H         1 RES1    0.0000
     25 O1B        0.9922    6.5228   13.7451 O.3       1 RES1    0.0000
     26 N1B       -0.9814    3.8042   18.2150 N.pl3     1 RES1    0.0000
     27 O2B       -0.4568    2.7379   18.5543 O.2       1 RES1    0.0000
     28 O3B       -1.9245    4.3150   18.8242 O.2       1 RES1    0.0000
     29 C1B        1.8580    5.8912   12.8273 C.ar      1 RES1    0.0000
     30 C2B        3.0999    6.4751   12.6298 C.ar      1 RES1    0.0000
     31 H1B        3.3716    7.2301   13.1383 H         1 RES1    0.0000
     32 C3B        3.9424    5.9180   11.6579 C.ar      1 RES1    0.0000
     33 H2B        4.7996    6.3045   11.5213 H         1 RES1    0.0000
     34 C4B        3.5742    4.8250   10.8884 C.ar      1 RES1    0.0000
     35 C5B        2.2873    4.2840   11.1038 C.ar      1 RES1    0.0000
     36 H3B        1.9942    3.5477   10.5795 H         1 RES1    0.0000
     37 C6B        1.4423    4.8168   12.0753 C.ar      1 RES1    0.0000
     38 H4B        0.5828    4.4398   12.2173 H         1 RES1    0.0000
     39 C7B        0.5327    5.7786   14.8186 C.ar      1 RES1    0.0000
     40 C8B        1.1909    4.6521   15.3048 C.ar      1 RES1    0.0000
     41 H5B        1.9746    4.3313   14.8746 H         1 RES1    0.0000
     42 C9B        0.6897    4.0029   16.4260 C.ar      1 RES1    0.0000
     43 H6B        1.1217    3.2313   16.7737 H         1 RES1    0.0000
     44 C10B      -0.4624    4.5083   17.0313 C.ar      1 RES1    0.0000
     45 C11B      -1.1189    5.6321   16.5541 C.ar      1 RES1    0.0000
     46 H7B       -1.8999    5.9538   16.9884 H         1 RES1    0.0000
     47 C12B      -0.6217    6.2774   15.4391 C.ar      1 RES1    0.0000
     48 H8B       -1.0563    7.0493   15.0965 H         1 RES1    0.0000
@<TRIPOS>BOND
     1    1    5 1
     2    2    3 2
     3    4    2 2
     4    5    6 ar
     5    6    7 1
     6    8    6 ar
     7    9    8 1
     8   10    8 ar
     9   11   10 ar
    10   12   11 1
    11   13    5 ar
    12   14   13 1
    13   15    1 1
    14   16   15 ar
    15   17   16 1
    16   18   16 ar
    17   19   18 1
    18   20    2 1
    19   21   20 ar
    20   22   21 1
    21   23   15 ar
    22   24   23 1
    23   25   29 1
    24   26   27 2
    25   28   26 2
    26   29   30 ar
    27   30   31 1
    28   32   30 ar
    29   33   32 1
    30   34   10 1
    31   35   34 ar
    32   36   35 1
    33   37   29 ar
    34   38   37 1
    35   39   25 1
    36   40   39 ar
    37   41   40 1
    38   42   40 ar
    39   43   42 1
    40   44   26 1
    41   45   44 ar
    42   46   45 1
    43   47   39 ar
    44   48   47 1
    45   11   13 ar
    46   18   20 ar
    47   21   23 ar
    48   32   34 ar
    49   35   37 ar
    50   42   44 ar
    51   45   47 ar
@<TRIPOS>SUBSTRUCTURE
     1 RES1 1

@<TRIPOS>CRYSIN
  10.6245    9.0387   10.4509  90.0000  97.0420  90.0000  14 1

