# MOL2 file generated by ConQuest
# Please check atom types

@<TRIPOS>MOLECULE
TIBGET
    33    36     1
SMALL
NO_CHARGES
****
Generated from CSD

@<TRIPOS>ATOM
      1 C1         4.1694    1.6175    7.3926 C.2       1 RES1    0.0000
      2 C2         1.9464    1.9039    6.9729 C.ar      1 RES1    0.0000
      3 C3         0.7057    1.8096    6.3832 C.ar      1 RES1    0.0000
      4 H1         0.5705    1.2913    5.6230 H         1 RES1    0.0000
      5 C4        -0.3330    2.5150    6.9659 C.ar      1 RES1    0.0000
      6 H2        -1.1828    2.4857    6.5886 H         1 RES1    0.0000
      7 C5        -0.1104    3.2595    8.1048 C.ar      1 RES1    0.0000
      8 C6         1.1519    3.4027    8.6756 C.ar      1 RES1    0.0000
      9 H3         1.2881    3.9267    9.4319 H         1 RES1    0.0000
     10 C7         2.1859    2.7339    8.0702 C.ar      1 RES1    0.0000
     11 C8         3.6631    2.7469    8.3609 C.3       1 RES1    0.0000
     12 C9         5.6341    4.0813    7.9745 C.3       1 RES1    0.0000
     13 H4         5.8997    5.0088    7.8790 H         1 RES1    0.0000
     14 H5         6.0208    3.5841    7.2369 H         1 RES1    0.0000
     15 C10        6.1769    3.5483    9.2594 C.ar      1 RES1    0.0000
     16 C11        7.5029    3.7493    9.6215 C.ar      1 RES1    0.0000
     17 H6         8.0682    4.2115    9.0461 H         1 RES1    0.0000
     18 C12        7.9946    3.2774   10.8174 C.ar      1 RES1    0.0000
     19 H7         8.8872    3.4100   11.0432 H         1 RES1    0.0000
     20 C13        7.1506    2.6045   11.6790 C.ar      1 RES1    0.0000
     21 H8         7.4702    2.3075   12.5003 H         1 RES1    0.0000
     22 C14        5.8366    2.3702   11.3291 C.ar      1 RES1    0.0000
     23 H9         5.2758    1.9129   11.9130 H         1 RES1    0.0000
     24 C15        5.3486    2.8144   10.1058 C.ar      1 RES1    0.0000
     25 O1        -1.0992    4.3481    9.8757 O.2       1 RES1    0.0000
     26 O2        -2.2904    4.0194    8.1073 O.2       1 RES1    0.0000
     27 O3         5.2923    1.1504    7.3595 O.2       1 RES1    0.0000
     28 O4         4.1926    3.9930    7.8984 O.3       1 RES1    0.0000
     29 N1        -1.2459    3.9218    8.7364 N.pl3     1 RES1    0.0000
     30 N2         3.1288    1.2631    6.5945 N.am      1 RES1    0.0000
     31 H10        3.1907    0.7119    5.9378 H         1 RES1    0.0000
     32 N3         4.0104    2.5735    9.7357 N.pl3     1 RES1    0.0000
     33 H11        3.4248    2.3311   10.3166 H         1 RES1    0.0000
@<TRIPOS>BOND
     1    1   11 1
     2    2    3 ar
     3    3    4 1
     4    5    3 ar
     5    6    5 1
     6    7    5 ar
     7    8    7 ar
     8    9    8 1
     9   10    2 ar
    10   11   10 1
    11   12   13 1
    12   14   12 1
    13   15   12 1
    14   16   15 ar
    15   17   16 1
    16   18   16 ar
    17   19   18 1
    18   20   18 ar
    19   21   20 1
    20   22   20 ar
    21   23   22 1
    22   24   15 ar
    23   25   29 2
    24   26   29 2
    25   27    1 2
    26   28   11 1
    27   29    7 1
    28   30    1 1
    29   31   30 1
    30   32   11 1
    31   33   32 1
    32    2   30 1
    33    8   10 ar
    34   12   28 1
    35   22   24 ar
    36   24   32 1
@<TRIPOS>SUBSTRUCTURE
     1 RES1 1

@<TRIPOS>CRYSIN
  12.8698    8.1365   13.0309  90.0000 107.2750  90.0000  14 1

