# MOL2 file generated by ConQuest
# Please check atom types

@<TRIPOS>MOLECULE
TIBHES
    27    27     1
SMALL
NO_CHARGES
****
Generated from CSD

@<TRIPOS>ATOM
      1 C1        -0.1336    3.3768    2.0678 C.2       1 RES1    0.0000
      2 C2         0.3697    4.6216    1.8697 C.2       1 RES1    0.0000
      3 C3         1.3120    3.5740    3.5786 C.2       1 RES1    0.0000
      4 C4         2.1703    5.8740    3.0292 C.2       1 RES1    0.0000
      5 C5         2.3530    6.7878    2.0744 C.2       1 RES1    0.0000
      6 C6         3.3424    7.8779    2.2497 C.2       1 RES1    0.0000
      7 C7         4.0858    9.9525    1.4540 C.3       1 RES1    0.0000
      8 C8         2.8828    5.9226    4.3632 C.2       1 RES1    0.0000
      9 C9         3.2702    7.2227    6.2698 C.3       1 RES1    0.0000
     10 N1        -1.1800    2.7818    1.2839 N.pl3     1 RES1    0.0000
     11 N2         0.4423    2.7162    3.1158 N.2       1 RES1    0.0000
     12 N3         1.3178    4.7562    2.8492 N.pl3     1 RES1    0.0000
     13 O1        -1.7101    3.4942    0.4192 O.2       1 RES1    0.0000
     14 O2        -1.4956    1.6228    1.5017 O.2       1 RES1    0.0000
     15 O3         3.1145    8.8731    1.3891 O.3       1 RES1    0.0000
     16 O4         4.2561    7.8508    3.0387 O.2       1 RES1    0.0000
     17 O5         2.4986    6.9739    5.0580 O.3       1 RES1    0.0000
     18 O6         3.6738    5.0829    4.7090 O.2       1 RES1    0.0000
     19 H1         0.1507    5.2787    1.2396 H         1 RES1    0.0000
     20 H2         1.8969    3.4211    4.3052 H         1 RES1    0.0000
     21 H3         1.8642    6.7776    1.2170 H         1 RES1    0.0000
     22 H4         3.9542   10.4283    2.2822 H         1 RES1    0.0000
     23 H5         4.9644    9.5818    1.3622 H         1 RES1    0.0000
     24 H6         3.8749   10.5056    0.7123 H         1 RES1    0.0000
     25 H7         3.1116    6.5623    6.9156 H         1 RES1    0.0000
     26 H8         3.0002    8.0803    6.5476 H         1 RES1    0.0000
     27 H9         4.2173    7.2192    6.0591 H         1 RES1    0.0000
@<TRIPOS>BOND
     1    1    2 2
     2    2   12 1
     3    3   11 2
     4    4    5 2
     5    5    6 1
     6    6   15 1
     7    7   15 1
     8    8    4 1
     9    9   17 1
    10   10    1 1
    11   11    1 1
    12   12    3 1
    13   13   10 2
    14   14   10 2
    15   16    6 2
    16   17    8 1
    17   18    8 2
    18   19    2 1
    19   20    3 1
    20   21    5 1
    21   22    7 1
    22   23    7 1
    23   24    7 1
    24   25    9 1
    25   26    9 1
    26   27    9 1
    27    4   12 1
@<TRIPOS>SUBSTRUCTURE
     1 RES1 1

@<TRIPOS>CRYSIN
   4.7704   10.5020   11.2873 104.9310  96.3300 100.0340   2 1

