# MOL2 file generated by ConQuest
# Please check atom types

@<TRIPOS>MOLECULE
TIBKOE
    39    41     1
SMALL
NO_CHARGES
****
Generated from CSD

@<TRIPOS>ATOM
      1 N1        -1.1339    8.1600    1.5672 N.pl3     1 RES1    0.0000
      2 N2         1.3995    5.2418    7.5630 N.3       1 RES1    0.0000
      3 O1         0.1339    7.1555    6.8814 O.3       1 RES1    0.0000
      4 O2        -1.6989    7.3086    0.9336 O.2       1 RES1    0.0000
      5 O3        -0.9207    9.2825    1.1292 O.2       1 RES1    0.0000
      6 O4        -1.2567    3.5898    8.6589 O.2       1 RES1    0.0000
      7 O5        -1.9727    2.8534    6.6758 O.3       1 RES1    0.0000
      8 C1        -1.1065    6.6504    3.4772 C.ar      1 RES1    0.0000
      9 H1        -1.5904    6.0148    2.9448 H         1 RES1    0.0000
     10 C2        -0.7149    7.8399    2.9318 C.ar      1 RES1    0.0000
     11 C3        -0.0130    8.8010    3.6681 C.ar      1 RES1    0.0000
     12 H2         0.2533    9.6303    3.2644 H         1 RES1    0.0000
     13 C4         0.3080    8.5325    4.9729 C.ar      1 RES1    0.0000
     14 H3         0.7994    9.1752    5.4896 H         1 RES1    0.0000
     15 C5        -0.0906    7.3347    5.5516 C.ar      1 RES1    0.0000
     16 C6         0.0904    5.8036    7.4661 C.3       1 RES1    0.0000
     17 H4        -0.2485    5.8935    8.3599 H         1 RES1    0.0000
     18 C7        -0.8669    4.9082    6.7203 C.2       1 RES1    0.0000
     19 C8        -1.2525    5.1861    5.4776 C.2       1 RES1    0.0000
     20 H5        -1.8460    4.5872    5.0186 H         1 RES1    0.0000
     21 C9        -0.8038    6.3652    4.8100 C.ar      1 RES1    0.0000
     22 C10        2.0816    5.0059    6.3070 C.3       1 RES1    0.0000
     23 H6         2.2829    5.8445    5.8853 H         1 RES1    0.0000
     24 H7         1.5072    4.5086    5.7202 H         1 RES1    0.0000
     25 C11        3.3671    4.2677    6.5258 C.3       1 RES1    0.0000
     26 H8         3.8088    4.1243    5.6856 H         1 RES1    0.0000
     27 H9         3.1671    3.4108    6.9095 H         1 RES1    0.0000
     28 O6         4.2222    4.9940    7.4145 O.3       1 RES1    0.0000
     29 C12        3.5605    5.2050    8.6450 C.3       1 RES1    0.0000
     30 H10        4.1389    5.6746    9.2505 H         1 RES1    0.0000
     31 H11        3.3542    4.3516    9.0333 H         1 RES1    0.0000
     32 C13        2.2894    5.9761    8.4786 C.3       1 RES1    0.0000
     33 H12        1.8529    6.0957    9.3253 H         1 RES1    0.0000
     34 H13        2.4922    6.8431    8.1197 H         1 RES1    0.0000
     35 C14       -1.3820    3.7420    7.4657 C.2       1 RES1    0.0000
     36 C15       -2.5218    1.6944    7.3102 C.3       1 RES1    0.0000
     37 H14       -2.9147    1.1402    6.6319 H         1 RES1    0.0000
     38 H15       -1.8298    1.2055    7.7616 H         1 RES1    0.0000
     39 H16       -3.1962    1.9525    7.9429 H         1 RES1    0.0000
@<TRIPOS>BOND
     1    1    4 2
     2    2   16 1
     3    3   15 1
     4    5    1 2
     5    6   35 2
     6    7   35 1
     7    8    9 1
     8   10    1 1
     9   11   10 ar
    10   12   11 1
    11   13   11 ar
    12   14   13 1
    13   15   13 ar
    14   16    3 1
    15   17   16 1
    16   18   16 1
    17   19   18 2
    18   20   19 1
    19   21    8 ar
    20   22    2 1
    21   23   22 1
    22   24   22 1
    23   25   22 1
    24   26   25 1
    25   27   25 1
    26   28   25 1
    27   29   28 1
    28   30   29 1
    29   31   29 1
    30   32    2 1
    31   33   32 1
    32   34   32 1
    33   35   18 1
    34   36    7 1
    35   37   36 1
    36   38   36 1
    37   39   36 1
    38    8   10 ar
    39   15   21 ar
    40   19   21 1
    41   29   32 1
@<TRIPOS>SUBSTRUCTURE
     1 RES1 1

@<TRIPOS>CRYSIN
   8.4220   16.8250   11.0870  90.0000 106.3100  90.0000 231 1

