# MOL2 file generated by ConQuest
# Please check atom types

@<TRIPOS>MOLECULE
TIBLIZ
    40    42     1
SMALL
USER_CHARGES
****
Generated from CSD

@<TRIPOS>ATOM
      1 N1        -1.8167    2.9520    5.3839 N.pl3     1 RES1    1.0000
      2 C1        -1.8586    3.7660    4.3833 C.2       1 RES1    0.0000
      3 C2        -1.5306    5.1489    4.7994 C.3       1 RES1    0.0000
      4 H1        -2.3286    5.6986    4.8390 H         1 RES1    0.0000
      5 H2        -0.8973    5.5549    4.1869 H         1 RES1    0.0000
      6 C3        -0.9091    4.9753    6.2017 C.3       1 RES1    0.0000
      7 C4        -1.4636    3.6049    6.6946 C.3       1 RES1    0.0000
      8 H3        -0.7201    3.1044    7.0905 H         1 RES1    0.0000
      9 C5        -2.2264    3.3291    3.0180 C.3       1 RES1    0.0000
     10 H4        -2.0160    4.0254    2.3915 H         1 RES1    0.0000
     11 H5        -3.1671    3.1420    2.9846 H         1 RES1    0.0000
     12 H6        -1.7336    2.5364    2.7923 H         1 RES1    0.0000
     13 C6        -1.1003    6.1587    7.1383 C.ar      1 RES1    0.0000
     14 C7        -1.3791    7.4201    6.6464 C.ar      1 RES1    0.0000
     15 H7        -1.4967    7.5358    5.7312 H         1 RES1    0.0000
     16 C8        -1.4879    8.5137    7.4870 C.ar      1 RES1    0.0000
     17 H8        -1.6733    9.3547    7.1355 H         1 RES1    0.0000
     18 C9        -1.3210    8.3565    8.8400 C.ar      1 RES1    0.0000
     19 H9        -1.4188    9.0827    9.4123 H         1 RES1    0.0000
     20 C10       -1.0076    7.1153    9.3431 C.ar      1 RES1    0.0000
     21 H10       -0.8716    7.0122   10.2573 H         1 RES1    0.0000
     22 C11       -0.8922    6.0217    8.5111 C.ar      1 RES1    0.0000
     23 H11       -0.6752    5.1904    8.8660 H         1 RES1    0.0000
     24 C12       -2.7456    2.3907    8.3959 C.3       1 RES1    0.0000
     25 H12       -1.8939    2.0272    8.6867 H         1 RES1    0.0000
     26 H13       -3.1847    1.7292    7.8388 H         1 RES1    0.0000
     27 C13       -3.5995    2.7042    9.5852 C.3       1 RES1    0.0000
     28 H14       -3.7731    1.8873   10.0799 H         1 RES1    0.0000
     29 H15       -3.1215    3.3108   10.1726 H         1 RES1    0.0000
     30 C14       -4.6234    4.4652    8.4328 C.3       1 RES1    0.0000
     31 H16       -4.1725    5.1287    8.9783 H         1 RES1    0.0000
     32 H17       -5.4802    4.8326    8.1645 H         1 RES1    0.0000
     33 C15       -3.7959    4.1903    7.2037 C.3       1 RES1    0.0000
     34 H18       -4.2608    3.5702    6.6208 H         1 RES1    0.0000
     35 H19       -3.6422    5.0139    6.7146 H         1 RES1    0.0000
     36 N2        -2.5286    3.6204    7.6332 N.3       1 RES1    0.0000
     37 O1        -2.1006    1.6703    5.3724 O.2       1 RES1   -1.0000
     38 O2         0.4913    4.6899    6.0625 O.3       1 RES1    0.0000
     39 H20        0.8966    5.4421    5.6469 H         1 RES1    0.0000
     40 O3        -4.8389    3.2963    9.2054 O.3       1 RES1    0.0000
@<TRIPOS>BOND
     1    1    2 2
     2    2    3 1
     3    3    4 1
     4    5    3 1
     5    6    3 1
     6    7    1 1
     7    8    7 1
     8    9    2 1
     9   10    9 1
    10   11    9 1
    11   12    9 1
    12   13    6 1
    13   14   13 ar
    14   15   14 1
    15   16   14 ar
    16   17   16 1
    17   18   16 ar
    18   19   18 1
    19   20   18 ar
    20   21   20 1
    21   22   13 ar
    22   23   22 1
    23   24   25 1
    24   26   24 1
    25   27   24 1
    26   28   27 1
    27   29   27 1
    28   30   31 1
    29   32   30 1
    30   33   30 1
    31   34   33 1
    32   35   33 1
    33   36    7 1
    34   37    1 1
    35   38    6 1
    36   39   38 1
    37   40   27 1
    38    6    7 1
    39   20   22 ar
    40   24   36 1
    41   30   40 1
    42   33   36 1
@<TRIPOS>SUBSTRUCTURE
     1 RES1 1

@<TRIPOS>CRYSIN
   7.3550    9.6440   20.6090  90.0000  90.0000  90.0000  19 1

