# MOL2 file generated by ConQuest
# Please check atom types

@<TRIPOS>MOLECULE
TIBMUM
    42    42     2
SMALL
NO_CHARGES
****
Generated from CSD

@<TRIPOS>ATOM
      1 N1         5.3569    1.8672    1.2830 N.ar      1 RES1    0.0000
      2 C1         6.1412    2.4845    0.3963 C.ar      1 RES1    0.0000
      3 N2         6.1143    3.8005    0.4387 N.3       1 RES1    0.0000
      4 H1         5.6513    4.2391    0.9578 H         1 RES1    0.0000
      5 H2         6.5557    4.3240   -0.1094 H         1 RES1    0.0000
      6 C2         6.9452    1.7564   -0.5470 C.ar      1 RES1    0.0000
      7 N3         7.8176    2.4363   -1.4213 N.pl3     1 RES1    0.0000
      8 O1         7.8605    3.6781   -1.4213 O.2       1 RES1    0.0000
      9 O2         8.5549    1.8082   -2.1995 O.2       1 RES1    0.0000
     10 C3         6.8403    0.3172   -0.5914 C.ar      1 RES1    0.0000
     11 N4         7.4845   -0.3797   -1.5018 N.3       1 RES1    0.0000
     12 H3         7.3527   -1.2025   -1.5080 H         1 RES1    0.0000
     13 H4         8.0174    0.0232   -2.0943 H         1 RES1    0.0000
     14 C4         6.0036   -0.2993    0.3933 C.ar      1 RES1    0.0000
     15 N5         5.8593   -1.6992    0.4438 N.pl3     1 RES1    0.0000
     16 O3         5.1863   -2.2433    1.3325 O.2       1 RES1    0.0000
     17 O4         6.4144   -2.4130   -0.4118 O.2       1 RES1    0.0000
     18 C5         5.2931    0.5307    1.3397 C.ar      1 RES1    0.0000
     19 N6         4.5113    0.0554    2.2955 N.3       1 RES1    0.0000
     20 H5         4.1134    0.6593    2.7610 H         1 RES1    0.0000
     21 H6         4.4602   -0.8416    2.4111 H         1 RES1    0.0000
     22 N7         2.7964    1.9333    3.9501 N.ar      2 RES2    0.0000
     23 C6         2.0106    1.3052    4.8419 C.ar      2 RES2    0.0000
     24 N8         2.1077   -0.0134    4.8305 N.3       2 RES2    0.0000
     25 H7         2.5990   -0.3547    4.3186 H         2 RES2    0.0000
     26 H8         1.5721   -0.5208    5.3910 H         2 RES2    0.0000
     27 C7         1.1567    2.0280    5.7316 C.ar      2 RES2    0.0000
     28 N9         0.3222    1.3195    6.6316 N.pl3     2 RES2    0.0000
     29 O5         0.3118    0.0786    6.6316 O.2       2 RES2    0.0000
     30 O6        -0.4121    1.9324    7.4243 O.2       2 RES2    0.0000
     31 C8         1.1883    3.4601    5.7398 C.ar      2 RES2    0.0000
     32 N10        0.4904    4.1623    6.6069 N.3       2 RES2    0.0000
     33 H9         0.5938    5.0727    6.5398 H         2 RES2    0.0000
     34 H10       -0.0169    3.7379    7.1972 H         2 RES2    0.0000
     35 C9         2.0303    4.0855    4.7552 C.ar      2 RES2    0.0000
     36 N11        2.1144    5.4890    4.6757 N.pl3     2 RES2    0.0000
     37 O7         2.8401    6.0393    3.8272 O.2       2 RES2    0.0000
     38 O8         1.4573    6.2028    5.4591 O.2       2 RES2    0.0000
     39 C10        2.8091    3.2734    3.8737 C.ar      2 RES2    0.0000
     40 N12        3.6141    3.7531    2.9303 N.3       2 RES2    0.0000
     41 H11        4.0492    3.1590    2.4194 H         2 RES2    0.0000
     42 H12        3.6247    4.6340    2.7652 H         2 RES2    0.0000
@<TRIPOS>BOND
     1    1    2 ar
     2    2    3 1
     3    3    4 1
     4    5    3 1
     5    6    2 ar
     6    7    6 1
     7    8    7 2
     8    9    7 2
     9   10    6 ar
    10   11   10 1
    11   12   11 1
    12   13   11 1
    13   14   10 ar
    14   15   14 1
    15   16   15 2
    16   17   15 2
    17   18    1 ar
    18   19   18 1
    19   20   19 1
    20   21   19 1
    21   22   23 ar
    22   23   24 1
    23   24   25 1
    24   26   24 1
    25   27   23 ar
    26   28   27 1
    27   29   28 2
    28   30   28 2
    29   31   27 ar
    30   32   31 1
    31   33   32 1
    32   34   32 1
    33   35   31 ar
    34   36   35 1
    35   37   36 2
    36   38   36 2
    37   39   22 ar
    38   40   39 1
    39   41   40 1
    40   42   40 1
    41   14   18 ar
    42   35   39 ar
@<TRIPOS>SUBSTRUCTURE
     1 RES1 1
     2 RES2 22

@<TRIPOS>CRYSIN
  16.9579    8.9339   10.3507  90.0000  94.2980  90.0000  14 1

