# MOL2 file generated by ConQuest
# Please check atom types

@<TRIPOS>MOLECULE
TIBMOG
    22    22     1
SMALL
NO_CHARGES
****
Generated from CSD

@<TRIPOS>ATOM
      1 N1         0.5566    2.9051    6.4196 N.pl3     1 RES1    0.0000
      2 O1        -0.1710    2.2008    7.3021 O.2       1 RES1    0.0000
      3 C1         0.5182    4.2669    6.5105 C.ar      1 RES1    0.0000
      4 N2        -0.2552    4.6981    7.4819 N.3       1 RES1    0.0000
      5 H1        -0.4263    5.6108    7.7120 H         1 RES1    0.0000
      6 H2        -0.5692    4.1061    7.8920 H         1 RES1    0.0000
      7 C2         1.2648    5.0233    5.5635 C.ar      1 RES1    0.0000
      8 N3         1.1902    6.4336    5.6372 N.pl3     1 RES1    0.0000
      9 O2         1.8895    7.1343    4.8892 O.2       1 RES1    0.0000
     10 O3         0.4305    6.9681    6.4623 O.2       1 RES1    0.0000
     11 C3         2.0718    4.3738    4.5750 C.ar      1 RES1    0.0000
     12 N4         2.7400    5.0565    3.6696 N.3       1 RES1    0.0000
     13 H3         3.2399    4.6343    3.0976 H         1 RES1    0.0000
     14 H4         2.6937    5.9234    3.7143 H         1 RES1    0.0000
     15 C4         2.1202    2.9410    4.6112 C.ar      1 RES1    0.0000
     16 N5         2.9415    2.2143    3.7285 N.pl3     1 RES1    0.0000
     17 O4         3.6881    2.8135    2.9271 O.2       1 RES1    0.0000
     18 O5         2.9377    0.9738    3.7525 O.2       1 RES1    0.0000
     19 C5         1.3149    2.2125    5.5230 C.ar      1 RES1    0.0000
     20 N6         1.1956    0.9073    5.6285 N.3       1 RES1    0.0000
     21 H5         1.6700    0.3009    5.0969 H         1 RES1    0.0000
     22 H6         0.6605    0.6603    6.2452 H         1 RES1    0.0000
@<TRIPOS>BOND
     1    1    2 1
     2    3    1 ar
     3    4    3 1
     4    5    4 1
     5    6    4 1
     6    7    3 ar
     7    8    7 1
     8    9    8 2
     9   10    8 2
    10   11    7 ar
    11   12   11 1
    12   13   12 1
    13   14   12 1
    14   15   11 ar
    15   16   15 1
    16   17   16 2
    17   18   16 2
    18   19    1 ar
    19   20   19 1
    20   21   20 1
    21   22   20 1
    22   15   19 ar
@<TRIPOS>SUBSTRUCTURE
     1 RES1 1

@<TRIPOS>CRYSIN
   8.5150    8.9830   10.7310  90.0000  96.9600  90.0000  14 1

