# MOL2 file generated by ConQuest
# Please check atom types

@<TRIPOS>MOLECULE
TIBMIA01
    20    20     1
SMALL
USER_CHARGES
****
Generated from CSD

@<TRIPOS>ATOM
      1 O1        14.0426    5.3086    1.7604 O.2       1 RES1   -1.0000
      2 C1        14.0426    1.2520    1.7604 C.ar      1 RES1    0.0000
      3 H1        14.0426    0.3216    1.7604 H         1 RES1    0.0000
      4 N1        14.0426    4.0011    1.7604 N.pl3     1 RES1    1.0000
      5 N2        12.7395    1.1973   -0.2732 N.pl3     1 RES1    0.0000
      6 C2        13.3823    1.9419    0.7725 C.ar      1 RES1    0.0000
      7 O2        12.8429   -0.0124   -0.2838 O.2       1 RES1    0.0000
      8 N3        12.7190    4.1594   -0.0599 N.pl3     1 RES1    0.0000
      9 H2        12.7730    5.0125    0.0352 H         1 RES1    0.0000
     10 H3        12.2569    3.8268   -0.7049 H         1 RES1    0.0000
     11 C3        13.3439    3.3631    0.7816 C.ar      1 RES1    0.0000
     12 O3        12.1082    1.8019   -1.1386 O.2       1 RES1    0.0000
     13 N2A       15.3458    1.1973    3.7940 N.pl3     1 RES1    0.0000
     14 C2A       14.7030    1.9419    2.7484 C.ar      1 RES1    0.0000
     15 O2A       15.2424   -0.0124    3.8046 O.2       1 RES1    0.0000
     16 N3A       15.3663    4.1594    3.5807 N.pl3     1 RES1    0.0000
     17 H2A       15.3123    5.0125    3.4856 H         1 RES1    0.0000
     18 H3A       15.8284    3.8268    4.2257 H         1 RES1    0.0000
     19 C3A       14.7414    3.3631    2.7392 C.ar      1 RES1    0.0000
     20 O3A       15.9771    1.8019    4.6595 O.2       1 RES1    0.0000
@<TRIPOS>BOND
     1    1    4 1
     2    2    3 1
     3    4   11 ar
     4    5    6 1
     5    6    2 ar
     6    7    5 2
     7    8    9 1
     8   10    8 1
     9   11    6 ar
    10   12    5 2
    11   13   14 1
    12   14    2 ar
    13   15   13 2
    14   16   17 1
    15   18   16 1
    16   19    4 ar
    17   20   13 2
    18    8   11 1
    19   14   19 ar
    20   16   19 1
@<TRIPOS>SUBSTRUCTURE
     1 RES1 1

@<TRIPOS>CRYSIN
  14.7400    7.2920    7.5740  90.0000 111.6100  90.0000  15 1

