# MOL2 file generated by ConQuest
# Please check atom types

@<TRIPOS>MOLECULE
TICDAN
    32    35     1
SMALL
NO_CHARGES
****
Generated from CSD

@<TRIPOS>ATOM
      1 O1         5.1449    7.4845    4.6110 O.3       1 RES1    0.0000
      2 C1         4.8862    8.6537    5.2977 C.ar      1 RES1    0.0000
      3 O2         2.9272   12.7696    7.0777 O.3       1 RES1    0.0000
      4 C2         5.0366    9.9154    4.7632 C.ar      1 RES1    0.0000
      5 H1         5.3279   10.0548    3.8702 H         1 RES1    0.0000
      6 C3         4.4020    6.9756    6.7365 C.ar      1 RES1    0.0000
      7 O3         3.3103   11.6133    8.9842 O.3       1 RES1    0.0000
      8 O4         4.5140   12.5260    3.9253 O.2       1 RES1    0.0000
      9 C4         4.8273    6.4689    5.5039 C.ar      1 RES1    0.0000
     10 C5         4.2698   10.8032    6.9285 C.ar      1 RES1    0.0000
     11 O5         5.5774   13.1208    5.7101 O.2       1 RES1    0.0000
     12 C6         4.1055    9.5065    7.4061 C.ar      1 RES1    0.0000
     13 H2         3.7724    9.3603    8.2835 H         1 RES1    0.0000
     14 C7         4.9160    5.1202    5.2171 C.ar      1 RES1    0.0000
     15 H3         5.2078    4.8058    4.3698 H         1 RES1    0.0000
     16 C8         4.7393   10.9602    5.6082 C.ar      1 RES1    0.0000
     17 C9         4.4318    8.4193    6.5895 C.ar      1 RES1    0.0000
     18 C10        4.0560    6.0817    7.7510 C.ar      1 RES1    0.0000
     19 H4         3.7685    6.3948    8.6000 H         1 RES1    0.0000
     20 C11        4.1447    4.7264    7.4843 C.ar      1 RES1    0.0000
     21 H5         3.9196    4.1037    8.1660 H         1 RES1    0.0000
     22 C12        3.8947   12.0003    7.7605 C.3       1 RES1    0.0000
     23 H6         4.7066   12.5573    7.9358 H         1 RES1    0.0000
     24 C13        2.5652   12.7751    9.3925 C.3       1 RES1    0.0000
     25 H7         3.1281   13.3862    9.9303 H         1 RES1    0.0000
     26 H8         1.7702   12.5179    9.9233 H         1 RES1    0.0000
     27 C14        4.5576    4.2531    6.2328 C.ar      1 RES1    0.0000
     28 H9         4.5925    3.3163    6.0784 H         1 RES1    0.0000
     29 N1         4.9516   12.3123    5.0571 N.pl3     1 RES1    0.0000
     30 C15        2.1560   13.4246    8.0829 C.3       1 RES1    0.0000
     31 H10        1.1882   13.2995    7.9179 H         1 RES1    0.0000
     32 H11        2.3537   14.3951    8.0979 H         1 RES1    0.0000
@<TRIPOS>BOND
     1    1    2 1
     2    2    4 ar
     3    3   22 1
     4    4    5 1
     5    6    9 ar
     6    7   22 1
     7    8   29 2
     8    9    1 1
     9   10   12 ar
    10   11   29 2
    11   12   13 1
    12   14    9 ar
    13   15   14 1
    14   16    4 ar
    15   17    2 ar
    16   18    6 ar
    17   19   18 1
    18   20   18 ar
    19   21   20 1
    20   22   10 1
    21   23   22 1
    22   24    7 1
    23   25   24 1
    24   26   24 1
    25   27   14 ar
    26   28   27 1
    27   29   16 1
    28   30    3 1
    29   31   30 1
    30   32   30 1
    31    6   17 1
    32   10   16 ar
    33   12   17 ar
    34   20   27 ar
    35   24   30 1
@<TRIPOS>SUBSTRUCTURE
     1 RES1 1

@<TRIPOS>CRYSIN
   7.2689   14.4662   11.8517  90.0000  90.0000  90.0000  29 1

