# MOL2 file generated by ConQuest
# Please check atom types

@<TRIPOS>MOLECULE
TICGOB
    66    69     1
SMALL
NO_CHARGES
****
Generated from CSD

@<TRIPOS>ATOM
      1 C1         6.2122    0.3270   11.2384 C.3       1 RES1    0.0000
      2 H1         6.4975   -0.1024   12.0940 H         1 RES1    0.0000
      3 O1         7.3144    0.5086   10.3811 O.3       1 RES1    0.0000
      4 C2         8.3195    1.3591   10.9520 C.3       1 RES1    0.0000
      5 H2         8.0018    2.2872   10.9503 H         1 RES1    0.0000
      6 H3         9.1415    1.2947   10.4225 H         1 RES1    0.0000
      7 H4         8.5018    1.0784   11.8715 H         1 RES1    0.0000
      8 C3         5.2198   -0.5615   10.4915 C.3       1 RES1    0.0000
      9 H5         5.6611   -1.1626    9.8239 H         1 RES1    0.0000
     10 O2         4.4302   -1.2782   11.4471 O.3       1 RES1    0.0000
     11 O3         2.9498    0.0545   10.3655 O.3       1 RES1    0.0000
     12 C4         4.2292    0.4228    9.8463 C.3       1 RES1    0.0000
     13 H6         4.2530    0.3699    8.8475 H         1 RES1    0.0000
     14 C5         4.6738    1.7918   10.3500 C.3       1 RES1    0.0000
     15 H7         5.1909    2.2657    9.6358 H         1 RES1    0.0000
     16 O4         5.5239    1.5391   11.4885 O.3       1 RES1    0.0000
     17 O5         2.6252    2.9263    9.7601 O.3       1 RES1    0.0000
     18 C6         3.5546    2.6868   10.8589 C.3       1 RES1    0.0000
     19 H8         3.0793    2.2426   11.6196 H         1 RES1    0.0000
     20 C7         4.0273    4.0823   11.2815 C.3       1 RES1    0.0000
     21 H9         3.6406    4.3498   12.1526 H         1 RES1    0.0000
     22 H10        5.0154    4.1335   11.3315 H         1 RES1    0.0000
     23 N1         2.7377    4.2738    9.3357 N.2       1 RES1    0.0000
     24 C8         3.4881    4.9113   10.1603 C.2       1 RES1    0.0000
     25 C9         3.6900    6.3661    9.9464 C.3       1 RES1    0.0000
     26 H11        3.5213    6.5891    8.9855 H         1 RES1    0.0000
     27 O6         5.0512    6.6684   10.2724 O.3       1 RES1    0.0000
     28 C10        2.7811    7.2298   10.8416 C.3       1 RES1    0.0000
     29 H12        2.9634    7.0564   11.8094 H         1 RES1    0.0000
     30 O7         1.4123    6.9144   10.5087 O.3       1 RES1    0.0000
     31 C11        0.7947    6.0127   11.3281 C.2       1 RES1    0.0000
     32 O8         1.2377    5.6775   12.3890 O.2       1 RES1    0.0000
     33 C12       -0.4549    5.4992   10.7157 C.3       1 RES1    0.0000
     34 H13       -0.2342    4.8138   10.0498 H         1 RES1    0.0000
     35 H14       -0.9327    6.2357   10.2793 H         1 RES1    0.0000
     36 H15       -1.0230    5.1078   11.4109 H         1 RES1    0.0000
     37 C13        3.0256    8.6847   10.4984 C.3       1 RES1    0.0000
     38 H16        2.7999    8.8697    9.5410 H         1 RES1    0.0000
     39 O9         2.2530    9.5253   11.3816 O.3       1 RES1    0.0000
     40 C14        1.5477   10.5557   10.8399 C.2       1 RES1    0.0000
     41 O10        1.3842   10.6746    9.6566 O.2       1 RES1    0.0000
     42 C15        1.0298   11.4591   11.8818 C.3       1 RES1    0.0000
     43 H17        1.6934   11.5466   12.5977 H         1 RES1    0.0000
     44 H18        0.1993   11.0925   12.2492 H         1 RES1    0.0000
     45 H19        0.8527   12.3409   11.4920 H         1 RES1    0.0000
     46 C16        4.4975    8.9638   10.7726 C.3       1 RES1    0.0000
     47 H20        4.6934    8.8432   11.7455 H         1 RES1    0.0000
     48 O11        4.7701   10.3262   10.3742 O.3       1 RES1    0.0000
     49 C17        5.8297   10.9125   11.0141 C.2       1 RES1    0.0000
     50 O12        6.4652   10.3295   11.8646 O.2       1 RES1    0.0000
     51 C18        6.0793   12.2963   10.5294 C.3       1 RES1    0.0000
     52 H21        5.7471   12.9387   11.1901 H         1 RES1    0.0000
     53 H22        5.6134   12.4334    9.6773 H         1 RES1    0.0000
     54 H23        7.0418   12.4284   10.4000 H         1 RES1    0.0000
     55 C19        5.3604    8.0324    9.9515 C.3       1 RES1    0.0000
     56 H24        5.2002    8.1909    8.9872 H         1 RES1    0.0000
     57 H25        6.3161    8.2108   10.1395 H         1 RES1    0.0000
     58 C20        3.0810   -1.2402   10.9607 C.3       1 RES1    0.0000
     59 C21        2.1457   -1.3442   12.1337 C.3       1 RES1    0.0000
     60 H26        2.3740   -2.1369   12.6632 H         1 RES1    0.0000
     61 H27        1.2240   -1.4219   11.8094 H         1 RES1    0.0000
     62 H28        2.2300   -0.5433   12.6908 H         1 RES1    0.0000
     63 C22        2.8586   -2.3103    9.9084 C.3       1 RES1    0.0000
     64 H29        2.9498   -3.1955   10.3190 H         1 RES1    0.0000
     65 H30        3.5239   -2.2112    9.1960 H         1 RES1    0.0000
     66 H31        1.9591   -2.2162    9.5323 H         1 RES1    0.0000
@<TRIPOS>BOND
     1    1    2 1
     2    3    1 1
     3    4    3 1
     4    5    4 1
     5    6    4 1
     6    7    4 1
     7    8    1 1
     8    9    8 1
     9   10    8 1
    10   11   12 1
    11   12    8 1
    12   13   12 1
    13   14   12 1
    14   15   14 1
    15   16    1 1
    16   17   18 1
    17   18   14 1
    18   19   18 1
    19   20   18 1
    20   21   20 1
    21   22   20 1
    22   23   17 1
    23   24   20 1
    24   25   24 1
    25   26   25 1
    26   27   25 1
    27   28   25 1
    28   29   28 1
    29   30   28 1
    30   31   30 1
    31   32   31 2
    32   33   31 1
    33   34   33 1
    34   35   33 1
    35   36   33 1
    36   37   28 1
    37   38   37 1
    38   39   37 1
    39   40   39 1
    40   41   40 2
    41   42   40 1
    42   43   42 1
    43   44   42 1
    44   45   42 1
    45   46   37 1
    46   47   46 1
    47   48   46 1
    48   49   48 1
    49   50   49 2
    50   51   49 1
    51   52   51 1
    52   53   51 1
    53   54   51 1
    54   55   27 1
    55   56   55 1
    56   57   55 1
    57   58   10 1
    58   59   58 1
    59   60   59 1
    60   61   59 1
    61   62   59 1
    62   63   58 1
    63   64   63 1
    64   65   63 1
    65   66   63 1
    66   11   58 1
    67   14   16 1
    68   23   24 2
    69   46   55 1
@<TRIPOS>SUBSTRUCTURE
     1 RES1 1

@<TRIPOS>CRYSIN
   8.5180   16.5140   17.2500  90.0000  90.0000  90.0000  19 1

