# MOL2 file generated by ConQuest
# Please check atom types

@<TRIPOS>MOLECULE
TICJUN
    25    26     1
SMALL
NO_CHARGES
****
Generated from CSD

@<TRIPOS>ATOM
      1 O1         2.8764    3.6819    9.7705 O.2       1 RES1    0.0000
      2 O2         1.5817    1.9409   10.0814 O.2       1 RES1    0.0000
      3 O3         1.1797    5.7793    8.5363 O.2       1 RES1    0.0000
      4 O4         2.2657    4.7484    6.9469 O.2       1 RES1    0.0000
      5 O5        -1.3237    3.6941    8.2508 O.2       1 RES1    0.0000
      6 O6        -0.3970    3.9681   10.2065 O.2       1 RES1    0.0000
      7 O7        -0.4406    1.8371    3.6089 O.2       1 RES1    0.0000
      8 O8         1.0234    0.2273    3.5811 O.2       1 RES1    0.0000
      9 N1         0.9890    2.4593    7.3925 N.3       1 RES1    0.0000
     10 N2         2.1410    1.7091    7.2974 N.2       1 RES1    0.0000
     11 N3         1.9184    2.9694    9.5427 N.pl3     1 RES1    0.0000
     12 N4         1.5271    4.8064    7.9045 N.pl3     1 RES1    0.0000
     13 N5        -0.3939    3.7161    9.0196 N.pl3     1 RES1    0.0000
     14 N6         0.4425    1.1597    4.1274 N.pl3     1 RES1    0.0000
     15 N7         3.0434    0.2489    5.7047 N.pl3     1 RES1    0.0000
     16 N8         4.3405    0.6560    5.6598 N.2       1 RES1    0.0000
     17 N9         5.0171   -0.3738    5.2864 N.2       1 RES1    0.0000
     18 N10        4.2111   -1.4651    5.0975 N.2       1 RES1    0.0000
     19 C1         2.0249    1.1128    6.1342 C.2       1 RES1    0.0000
     20 C2         0.8383    1.4917    5.4646 C.2       1 RES1    0.0000
     21 C3         0.1952    2.3748    6.2772 C.2       1 RES1    0.0000
     22 C4         0.9846    3.4352    8.4093 C.3       1 RES1    0.0000
     23 C5         2.9931   -1.0548    5.3603 C.2       1 RES1    0.0000
     24 H1        -0.5681    2.8690    6.1647 H         1 RES1    0.0000
     25 H2         2.2202   -1.5346    5.3343 H         1 RES1    0.0000
@<TRIPOS>BOND
     1    1   11 2
     2    2   11 2
     3    3   12 2
     4    4   12 2
     5    5   13 2
     6    6   13 2
     7    7   14 2
     8    8   14 2
     9    9   10 1
    10   10   19 2
    11   11   22 1
    12   12   22 1
    13   13   22 1
    14   14   20 1
    15   15   16 1
    16   16   17 2
    17   17   18 1
    18   18   23 2
    19   19   15 1
    20   20   19 1
    21   21    9 1
    22   22    9 1
    23   23   15 1
    24   24   21 1
    25   25   23 1
    26   20   21 2
@<TRIPOS>SUBSTRUCTURE
     1 RES1 1

@<TRIPOS>CRYSIN
   6.8649    9.5315    9.0263  90.0000  90.5590  90.0000   4 1

