# MOL2 file generated by ConQuest
# Please check atom types

@<TRIPOS>MOLECULE
TICSED
    42    43     1
SMALL
NO_CHARGES
****
Generated from CSD

@<TRIPOS>ATOM
      1 C1         3.7727    7.8733    1.6822 C.3       1 RES1    0.0000
      2 H1         3.2988    8.0383    0.8411 H         1 RES1    0.0000
      3 C2         5.2067    8.3673    1.5620 C.3       1 RES1    0.0000
      4 H2         5.6256    8.4029    2.4465 H         1 RES1    0.0000
      5 O1         5.2222    9.6439    0.9679 O.3       1 RES1    0.0000
      6 C3         6.3487   10.4359    1.2617 C.3       1 RES1    0.0000
      7 H3         6.3368   11.2185    0.6887 H         1 RES1    0.0000
      8 H4         7.1491    9.9288    1.0492 H         1 RES1    0.0000
      9 C4         6.4269   10.8774    2.6579 C.3       1 RES1    0.0000
     10 H5         6.1783   11.8147    2.6568 H         1 RES1    0.0000
     11 H6         5.7191   10.4078    3.1263 H         1 RES1    0.0000
     12 C5         7.4864   10.7883    3.4212 C.3       1 RES1    0.0000
     13 H7         7.2859   11.1407    4.2912 H         1 RES1    0.0000
     14 H8         8.2069   11.2879    3.0306 H         1 RES1    0.0000
     15 H9         7.7458    9.8660    3.5024 H         1 RES1    0.0000
     16 C6         5.8411    7.2435    0.7221 C.3       1 RES1    0.0000
     17 H10        6.7903    7.1357    0.9423 H         1 RES1    0.0000
     18 N1         5.6620    7.5593   -0.7432 N.pl3     1 RES1    0.0000
     19 O2         4.5584    7.4665   -1.2172 O.2       1 RES1    0.0000
     20 O3         6.6597    7.9446   -1.3529 O.2       1 RES1    0.0000
     21 C7         5.0353    5.9978    1.1404 C.3       1 RES1    0.0000
     22 H11        4.7283    5.5188    0.3427 H         1 RES1    0.0000
     23 O4         3.8959    6.4777    1.8903 O.3       1 RES1    0.0000
     24 C8         5.8309    5.0689    2.0138 C.3       1 RES1    0.0000
     25 H12        5.2493    4.3734    2.3586 H         1 RES1    0.0000
     26 H13        6.5245    4.6443    1.4842 H         1 RES1    0.0000
     27 O5         6.4303    5.7672    3.1030 O.3       1 RES1    0.0000
     28 H14        6.9327    6.3474    2.8137 H         1 RES1    0.0000
     29 N2         3.0134    8.4423    2.7881 N.am      1 RES1    0.0000
     30 C9         1.8517    9.1059    2.5055 C.2       1 RES1    0.0000
     31 O6         1.3987    9.2652    1.3551 O.2       1 RES1    0.0000
     32 N3         1.1922    9.6233    3.5992 N.am      1 RES1    0.0000
     33 H15        0.4642   10.0525    3.4445 H         1 RES1    0.0000
     34 C10        1.5860    9.5211    4.9209 C.2       1 RES1    0.0000
     35 O7         0.8896   10.0441    5.7820 O.2       1 RES1    0.0000
     36 C11        2.7716    8.7478    5.1579 C.2       1 RES1    0.0000
     37 C12        3.2281    8.5285    6.5864 C.3       1 RES1    0.0000
     38 H16        2.6194    8.9643    7.1872 H         1 RES1    0.0000
     39 H17        4.1084    8.8959    6.6999 H         1 RES1    0.0000
     40 H18        3.2461    7.5884    6.7755 H         1 RES1    0.0000
     41 C13        3.4309    8.2520    4.0920 C.2       1 RES1    0.0000
     42 H19        4.2053    7.7580    4.2422 H         1 RES1    0.0000
@<TRIPOS>BOND
     1    1    2 1
     2    3    1 1
     3    4    3 1
     4    5    3 1
     5    6    5 1
     6    7    6 1
     7    8    6 1
     8    9    6 1
     9   10    9 1
    10   11    9 1
    11   12    9 1
    12   13   12 1
    13   14   12 1
    14   15   12 1
    15   16    3 1
    16   17   16 1
    17   18   16 1
    18   19   18 2
    19   20   18 2
    20   21   16 1
    21   22   21 1
    22   23    1 1
    23   24   21 1
    24   25   24 1
    25   26   24 1
    26   27   24 1
    27   28   27 1
    28   29    1 1
    29   30   29 1
    30   31   30 2
    31   32   30 1
    32   33   32 1
    33   34   32 1
    34   35   34 2
    35   36   34 1
    36   37   36 1
    37   38   37 1
    38   39   37 1
    39   40   37 1
    40   41   29 1
    41   42   41 1
    42   21   23 1
    43   36   41 2
@<TRIPOS>SUBSTRUCTURE
     1 RES1 1

@<TRIPOS>CRYSIN
  15.7460    9.3730   11.3040  90.0000 100.1900  90.0000   5 1

