# MOL2 file generated by ConQuest
# Please check atom types

@<TRIPOS>MOLECULE
TICSAZ
    64    66     2
SMALL
NO_CHARGES
****
Generated from CSD

@<TRIPOS>ATOM
      1 C1        -3.1080    3.8999   17.3343 C.3       1 RES1    0.0000
      2 H1        -3.1360    2.9287   17.2000 H         1 RES1    0.0000
      3 C2        -1.8515    4.2597   18.1402 C.3       1 RES1    0.0000
      4 H2        -1.2027    3.5389   18.1145 H         1 RES1    0.0000
      5 H3        -1.4392    5.0691   17.7998 H         1 RES1    0.0000
      6 C3        -2.3839    4.4659   19.5496 C.3       1 RES1    0.0000
      7 H4        -1.8704    5.1576   20.0170 H         1 RES1    0.0000
      8 N1        -2.3681    3.1872   20.3187 N.pl3     1 RES1    0.0000
      9 O1        -2.9777    2.2195   19.9397 O.2       1 RES1    0.0000
     10 O2        -1.7580    3.1244   21.2461 O.2       1 RES1    0.0000
     11 C4        -3.8090    4.9270   19.3068 C.3       1 RES1    0.0000
     12 H5        -4.3811    4.6219   20.0428 H         1 RES1    0.0000
     13 O3        -4.2185    4.2889   18.0850 O.3       1 RES1    0.0000
     14 C5        -3.8829    6.4222   19.2019 C.3       1 RES1    0.0000
     15 H6        -3.6302    6.8147   20.0520 H         1 RES1    0.0000
     16 H7        -3.2491    6.7262   18.5321 H         1 RES1    0.0000
     17 O4        -5.1574    6.8601   18.8560 O.3       1 RES1    0.0000
     18 H8        -5.6914    6.6295   19.4356 H         1 RES1    0.0000
     19 N2        -3.1529    4.5730   16.0095 N.am      1 RES1    0.0000
     20 C6        -2.2088    4.1573   15.1061 C.2       1 RES1    0.0000
     21 O5        -1.3485    3.3200   15.3987 O.2       1 RES1    0.0000
     22 N3        -2.2900    4.7209   13.8568 N.am      1 RES1    0.0000
     23 H9        -1.7129    4.4565   13.2772 H         1 RES1    0.0000
     24 C7        -3.2089    5.6746   13.4336 C.2       1 RES1    0.0000
     25 O6        -3.1315    6.1055   12.2983 O.2       1 RES1    0.0000
     26 C8        -4.1761    6.0554   14.4309 C.2       1 RES1    0.0000
     27 C9        -5.1961    7.0685   14.0573 C.3       1 RES1    0.0000
     28 H10       -5.0723    7.3247   13.1410 H         1 RES1    0.0000
     29 H11       -5.1021    7.8406   14.6204 H         1 RES1    0.0000
     30 H12       -6.0738    6.6959   14.1696 H         1 RES1    0.0000
     31 C10       -4.1003    5.4988   15.6655 C.2       1 RES1    0.0000
     32 H13       -4.7203    5.7585   16.3076 H         1 RES1    0.0000
     33 C11        1.5879    2.8810   10.2118 C.3       2 RES2    0.0000
     34 H14        0.7392    3.3410   10.0425 H         2 RES2    0.0000
     35 C12        2.7342    3.7776    9.7813 C.3       2 RES2    0.0000
     36 H15        2.4960    4.7151    9.8622 H         2 RES2    0.0000
     37 H16        3.5310    3.6065   10.3075 H         2 RES2    0.0000
     38 C13        2.9382    3.3829    8.3277 C.3       2 RES2    0.0000
     39 H17        3.8768    3.4900    8.0683 H         2 RES2    0.0000
     40 N4         2.0386    4.1817    7.4224 N.pl3     2 RES2    0.0000
     41 O7         0.8672    4.3098    7.7352 O.2       2 RES2    0.0000
     42 O8         2.4440    4.5229    6.3589 O.2       2 RES2    0.0000
     43 C14        2.5174    1.9168    8.2522 C.3       2 RES2    0.0000
     44 H18        2.0044    1.7700    7.4316 H         2 RES2    0.0000
     45 O9         1.6583    1.7095    9.3912 O.3       2 RES2    0.0000
     46 C15        3.6755    0.9444    8.2964 C.3       2 RES2    0.0000
     47 H19        3.3356    0.0373    8.3442 H         2 RES2    0.0000
     48 H20        4.2001    1.0283    7.4850 H         2 RES2    0.0000
     49 O10        4.5015    1.2018    9.4243 O.3       2 RES2    0.0000
     50 H21        5.1209    0.6638    9.4390 H         2 RES2    0.0000
     51 N5         1.6365    2.4618   11.6139 N.am      2 RES2    0.0000
     52 C16        0.6441    2.9066   12.4731 C.2       2 RES2    0.0000
     53 O11       -0.2292    3.6961   12.1309 O.2       2 RES2    0.0000
     54 N6         0.7305    2.4082   13.7335 N.am      2 RES2    0.0000
     55 H22        0.1478    2.6970   14.2965 H         2 RES2    0.0000
     56 C17        1.6484    1.4871   14.2193 C.2       2 RES2    0.0000
     57 O12        1.5687    1.0935   15.3876 O.2       2 RES2    0.0000
     58 C18        2.6583    1.0737   13.2662 C.2       2 RES2    0.0000
     59 C19        3.6852    0.0559   13.6801 C.3       2 RES2    0.0000
     60 H23        3.5539   -0.1747   14.6020 H         2 RES2    0.0000
     61 H24        4.5645    0.4239   13.5642 H         2 RES2    0.0000
     62 H25        3.5935   -0.7301   13.1374 H         2 RES2    0.0000
     63 C20        2.6072    1.5779   12.0389 C.2       2 RES2    0.0000
     64 H26        3.2628    1.3205   11.4317 H         2 RES2    0.0000
@<TRIPOS>BOND
     1    1    2 1
     2    3    1 1
     3    4    3 1
     4    5    3 1
     5    6    3 1
     6    7    6 1
     7    8    6 1
     8    9    8 2
     9   10    8 2
    10   11    6 1
    11   12   11 1
    12   13    1 1
    13   14   11 1
    14   15   14 1
    15   16   14 1
    16   17   14 1
    17   18   17 1
    18   19    1 1
    19   20   19 1
    20   21   20 2
    21   22   20 1
    22   23   22 1
    23   24   22 1
    24   25   24 2
    25   26   24 1
    26   27   26 1
    27   28   27 1
    28   29   27 1
    29   30   27 1
    30   31   19 1
    31   32   31 1
    32   33   34 1
    33   35   33 1
    34   36   35 1
    35   37   35 1
    36   38   35 1
    37   39   38 1
    38   40   38 1
    39   41   40 2
    40   42   40 2
    41   43   38 1
    42   44   43 1
    43   45   33 1
    44   46   43 1
    45   47   46 1
    46   48   46 1
    47   49   46 1
    48   50   49 1
    49   51   33 1
    50   52   51 1
    51   53   52 2
    52   54   52 1
    53   55   54 1
    54   56   54 1
    55   57   56 2
    56   58   56 1
    57   59   58 1
    58   60   59 1
    59   61   59 1
    60   62   59 1
    61   63   51 1
    62   64   63 1
    63   11   13 1
    64   26   31 2
    65   43   45 1
    66   58   63 2
@<TRIPOS>SUBSTRUCTURE
     1 RES1 1
     2 RES2 33

@<TRIPOS>CRYSIN
   5.5880   11.6450   18.5610  90.0000  97.5600  90.0000   4 1

