# MOL2 file generated by ConQuest
# Please check atom types

@<TRIPOS>MOLECULE
TICSIH
    41    43     1
SMALL
NO_CHARGES
****
Generated from CSD

@<TRIPOS>ATOM
      1 N1         3.2013    7.0574    2.9378 N.3       1 RES1    0.0000
      2 C1         3.4634    8.0116    4.0505 C.3       1 RES1    0.0000
      3 C2         2.1572    8.3546    4.7490 C.3       1 RES1    0.0000
      4 C3         1.1691    8.9080    3.7732 C.2       1 RES1    0.0000
      5 C4         0.1450    8.8468    1.4351 C.3       1 RES1    0.0000
      6 C5        -0.0695    7.9482    0.2219 C.3       1 RES1    0.0000
      7 C6         1.2445    7.4883   -0.3536 C.3       1 RES1    0.0000
      8 C7         2.1253    6.8213    0.6950 C.3       1 RES1    0.0000
      9 C8         2.3539    7.7210    1.9065 C.3       1 RES1    0.0000
     10 C9         1.0008    8.1375    2.4889 C.3       1 RES1    0.0000
     11 C10        4.4794    6.6097    2.3537 C.3       1 RES1    0.0000
     12 N2         0.4416    9.9402    3.9552 N.2       1 RES1    0.0000
     13 O1         0.6313   10.5059    5.2326 O.3       1 RES1    0.0000
     14 C11        4.4614    7.4816    5.0679 C.ar      1 RES1    0.0000
     15 C12        5.5876    8.2221    5.3609 C.ar      1 RES1    0.0000
     16 C13        6.4857    7.7956    6.3176 C.ar      1 RES1    0.0000
     17 C14        6.2803    6.5919    6.9797 C.ar      1 RES1    0.0000
     18 C15        5.1507    5.8537    6.6885 C.ar      1 RES1    0.0000
     19 C16        4.2387    6.2890    5.7543 C.ar      1 RES1    0.0000
     20 H1         3.8419    8.9303    3.6918 H         1 RES1    0.0000
     21 H2         1.7770    7.4159    5.1650 H         1 RES1    0.0000
     22 H3         2.3053    9.0305    5.4770 H         1 RES1    0.0000
     23 H4        -0.7625    9.1418    1.8372 H         1 RES1    0.0000
     24 H5         0.6336    9.6875    1.1093 H         1 RES1    0.0000
     25 H6        -0.5506    8.4960   -0.5026 H         1 RES1    0.0000
     26 H7        -0.6301    7.1153    0.5200 H         1 RES1    0.0000
     27 H8         1.7820    8.3178   -0.6586 H         1 RES1    0.0000
     28 H9         1.0626    6.8814   -1.1266 H         1 RES1    0.0000
     29 H10        1.6860    5.9461    1.0053 H         1 RES1    0.0000
     30 H11        2.9969    6.6142    0.2427 H         1 RES1    0.0000
     31 H12        2.8385    8.6185    1.6119 H         1 RES1    0.0000
     32 H13        0.5182    7.2489    2.7558 H         1 RES1    0.0000
     33 H14        4.3009    5.8681    1.6466 H         1 RES1    0.0000
     34 H15        5.0562    6.2022    3.1371 H         1 RES1    0.0000
     35 H16        4.9399    7.4159    1.9065 H         1 RES1    0.0000
     36 H17        0.1964   11.2686    5.6676 H         1 RES1    0.0000
     37 H18        5.7656    9.0973    4.8877 H         1 RES1    0.0000
     38 H19        7.3736    8.2956    6.5343 H         1 RES1    0.0000
     39 H20        6.9733    6.2245    7.6955 H         1 RES1    0.0000
     40 H21        4.9105    4.9773    7.1755 H         1 RES1    0.0000
     41 H22        3.4031    5.7457    5.5637 H         1 RES1    0.0000
@<TRIPOS>BOND
     1    1    2 1
     2    2    3 1
     3    3    4 1
     4    4   10 1
     5    5    6 1
     6    6    7 1
     7    7    8 1
     8    8    9 1
     9    9    1 1
    10   10    5 1
    11   11    1 1
    12   12    4 2
    13   13   12 1
    14   14    2 1
    15   15   14 ar
    16   16   15 ar
    17   17   16 ar
    18   18   17 ar
    19   19   14 ar
    20   20    2 1
    21   21    3 1
    22   22    3 1
    23   23    5 1
    24   24    5 1
    25   25    6 1
    26   26    6 1
    27   27    7 1
    28   28    7 1
    29   29    8 1
    30   30    8 1
    31   31    9 1
    32   32   10 1
    33   33   11 1
    34   34   11 1
    35   35   11 1
    36   36   13 1
    37   37   15 1
    38   38   16 1
    39   39   17 1
    40   40   18 1
    41   41   19 1
    42    9   10 1
    43   18   19 ar
@<TRIPOS>SUBSTRUCTURE
     1 RES1 1

@<TRIPOS>CRYSIN
   7.6940   11.1350   17.6949  90.0000 101.6200  90.0000 231 1

