# MOL2 file generated by ConQuest
# Please check atom types

@<TRIPOS>MOLECULE
TICVEG
    58    61     1
SMALL
NO_CHARGES
****
Generated from CSD

@<TRIPOS>ATOM
      1 N1         3.9780   -0.0943   15.2386 N.3       1 RES1    0.0000
      2 O1         4.4598    1.2310   14.9636 O.3       1 RES1    0.0000
      3 H1         5.0928    1.1896   14.4268 H         1 RES1    0.0000
      4 O2         0.5829    0.0960   15.8190 O.3       1 RES1    0.0000
      5 O3         1.5679   -0.6396   12.5869 O.3       1 RES1    0.0000
      6 O4         3.1435   -1.8385   11.5247 O.3       1 RES1    0.0000
      7 O5         5.8489    0.3092   12.7349 O.3       1 RES1    0.0000
      8 O6         7.2214   -0.7965   11.3294 O.3       1 RES1    0.0000
      9 C1        -0.2599    1.1207   16.1623 C.2       1 RES1    0.0000
     10 H2        -1.0509    1.0212   16.6593 H         1 RES1    0.0000
     11 C2         0.1884    2.2482   15.7014 C.2       1 RES1    0.0000
     12 H3        -0.1967    3.0982   15.8133 H         1 RES1    0.0000
     13 C3         1.3713    1.9390   14.9977 C.2       1 RES1    0.0000
     14 H4         1.9085    2.5517   14.5292 H         1 RES1    0.0000
     15 C4         1.5944    0.6586   15.1096 C.2       1 RES1    0.0000
     16 C5         2.6602   -0.2362   14.6202 C.3       1 RES1    0.0000
     17 H5         2.3603   -1.1592   14.8118 H         1 RES1    0.0000
     18 C6         2.7990   -0.1374   13.1009 C.3       1 RES1    0.0000
     19 H6         2.9535    0.7971   12.8145 H         1 RES1    0.0000
     20 C7         3.8542   -1.0896   12.4997 C.3       1 RES1    0.0000
     21 H7         4.2123   -1.6908   13.2015 H         1 RES1    0.0000
     22 C8         4.9912   -0.3621   11.7998 C.3       1 RES1    0.0000
     23 H8         4.6243    0.2896   11.1511 H         1 RES1    0.0000
     24 C9         5.9353   -1.3046   11.0980 C.3       1 RES1    0.0000
     25 H9         5.8514   -2.2120   11.4621 H         1 RES1    0.0000
     26 H10        5.7429   -1.3350   10.1363 H         1 RES1    0.0000
     27 C10        3.8804   -0.2132   16.6934 C.3       1 RES1    0.0000
     28 H11        3.2670   -0.9442   16.9172 H         1 RES1    0.0000
     29 H12        3.5089    0.6155   17.0614 H         1 RES1    0.0000
     30 C11        7.1916   -0.2132   12.6002 C.3       1 RES1    0.0000
     31 C12        8.1472    0.9276   12.6305 C.3       1 RES1    0.0000
     32 H13        8.1326    1.3373   13.5106 H         1 RES1    0.0000
     33 H14        7.8888    1.5827   11.9648 H         1 RES1    0.0000
     34 H15        9.0417    0.6052   12.4390 H         1 RES1    0.0000
     35 C13        7.4422   -1.1850   13.6832 C.3       1 RES1    0.0000
     36 H16        7.4114   -0.7304   14.5387 H         1 RES1    0.0000
     37 H17        8.3168   -1.5856   13.5619 H         1 RES1    0.0000
     38 H18        6.7633   -1.8770   13.6586 H         1 RES1    0.0000
     39 C14        1.8279   -1.3454   11.4109 C.3       1 RES1    0.0000
     40 C15        0.9144   -2.4994   11.3180 C.3       1 RES1    0.0000
     41 H19        1.0945   -2.9896   10.5005 H         1 RES1    0.0000
     42 H20       -0.0037   -2.1856   11.3104 H         1 RES1    0.0000
     43 H21        1.0511   -3.0821   12.0805 H         1 RES1    0.0000
     44 C16        1.6841   -0.4713   10.2444 C.3       1 RES1    0.0000
     45 H22        1.8680   -0.9770    9.4364 H         1 RES1    0.0000
     46 H23        2.3106    0.2661   10.3127 H         1 RES1    0.0000
     47 H24        0.7784   -0.1247   10.2084 H         1 RES1    0.0000
     48 C17        5.2204   -0.4799   17.3231 C.ar      1 RES1    0.0000
     49 C18        5.8655   -1.6724   17.0728 C.ar      1 RES1    0.0000
     50 H25        5.4880   -2.2890   16.4715 H         1 RES1    0.0000
     51 C19        7.0624   -1.9683   17.6968 C.ar      1 RES1    0.0000
     52 H26        7.5004   -2.7815   17.5204 H         1 RES1    0.0000
     53 C20        7.6044   -1.0672   18.5731 C.ar      1 RES1    0.0000
     54 H27        8.4230   -1.2603   18.9923 H         1 RES1    0.0000
     55 C21        6.9776    0.0897   18.8368 C.ar      1 RES1    0.0000
     56 H28        7.3539    0.6925   19.4532 H         1 RES1    0.0000
     57 C22        5.7885    0.4017   18.2146 C.ar      1 RES1    0.0000
     58 H29        5.3629    1.2195   18.4005 H         1 RES1    0.0000
@<TRIPOS>BOND
     1    1    2 1
     2    2    3 1
     3    4    9 1
     4    5   18 1
     5    6   20 1
     6    7   22 1
     7    8   24 1
     8    9   10 1
     9   11    9 2
    10   12   11 1
    11   13   11 1
    12   14   13 1
    13   15    4 1
    14   16    1 1
    15   17   16 1
    16   18   16 1
    17   19   18 1
    18   20   18 1
    19   21   20 1
    20   22   20 1
    21   23   22 1
    22   24   22 1
    23   25   24 1
    24   26   24 1
    25   27    1 1
    26   28   27 1
    27   29   27 1
    28   30    7 1
    29   31   30 1
    30   32   31 1
    31   33   31 1
    32   34   31 1
    33   35   30 1
    34   36   35 1
    35   37   35 1
    36   38   35 1
    37   39    5 1
    38   40   39 1
    39   41   40 1
    40   42   40 1
    41   43   40 1
    42   44   39 1
    43   45   44 1
    44   46   44 1
    45   47   44 1
    46   48   27 1
    47   49   48 ar
    48   50   49 1
    49   51   49 ar
    50   52   51 1
    51   53   51 ar
    52   54   53 1
    53   55   53 ar
    54   56   55 1
    55   57   48 ar
    56   58   57 1
    57    6   39 1
    58    8   30 1
    59   13   15 2
    60   15   16 1
    61   55   57 ar
@<TRIPOS>SUBSTRUCTURE
     1 RES1 1

@<TRIPOS>CRYSIN
   9.7470    5.7470   18.9710  90.0000  91.0800  90.0000   4 1

