# MOL2 file generated by ConQuest
# Please check atom types

@<TRIPOS>MOLECULE
TICVUW
    36    36     2
SMALL
NO_CHARGES
****
Generated from CSD

@<TRIPOS>ATOM
      1 O1        -0.6682    1.2372   13.4998 O.3       1 RES1    0.0000
      2 O2         0.0768    5.0958   14.0449 O.3       1 RES1    0.0000
      3 O3        -1.4707    4.5937   18.4879 O.2       1 RES1    0.0000
      4 N1        -0.3717    2.5640   13.6417 N.2       1 RES1    0.0000
      5 C1        -0.7465    3.0199   14.7959 C.2       1 RES1    0.0000
      6 C2        -0.4531    4.4327   15.0823 C.2       1 RES1    0.0000
      7 C3        -0.7038    4.9413   16.3005 C.2       1 RES1    0.0000
      8 C4        -1.2865    4.1359   17.3462 C.2       1 RES1    0.0000
      9 C5        -1.6567    2.7591   17.0236 C.2       1 RES1    0.0000
     10 C6        -1.4004    2.2420   15.8249 C.2       1 RES1    0.0000
     11 C7         0.4081    6.4883   14.2396 C.3       1 RES1    0.0000
     12 O4         2.9864    2.8471    6.3494 O.3       2 RES2    0.0000
     13 O5         2.2323    4.4581    9.9228 O.3       2 RES2    0.0000
     14 O6         0.2336    0.3509   11.1511 O.2       2 RES2    0.0000
     15 N2         2.7295    3.4556    7.5537 N.2       2 RES2    0.0000
     16 C8         2.1932    2.6407    8.4075 C.2       2 RES2    0.0000
     17 C9         1.8594    3.1763    9.7313 C.2       2 RES2    0.0000
     18 C10        1.2313    2.4112   10.6463 C.2       2 RES2    0.0000
     19 C11        0.8714    1.0485   10.3488 C.2       2 RES2    0.0000
     20 C12        1.2677    0.4919    9.0569 C.2       2 RES2    0.0000
     21 C13        1.8811    1.2433    8.1461 C.2       2 RES2    0.0000
     22 C14        1.9163    5.0273   11.2123 C.3       2 RES2    0.0000
     23 H1        -0.2570    1.0500   12.6571 H         1 RES1    0.0000
     24 H2         3.4035    3.5762    5.7988 H         2 RES2    0.0000
     25 H3        -0.4737    5.6750   16.5636 H         1 RES1    0.0000
     26 H4        -2.2610    2.3357   17.6691 H         1 RES1    0.0000
     27 H5        -1.6215    1.4310   15.5366 H         1 RES1    0.0000
     28 H6         0.7835    6.7756   13.4417 H         1 RES1    0.0000
     29 H7         1.0450    6.4080   14.9953 H         1 RES1    0.0000
     30 H8        -0.3036    7.0511   14.4908 H         1 RES1    0.0000
     31 H9         1.0407    2.7324   11.4344 H         2 RES2    0.0000
     32 H10        1.0832   -0.4839    8.9511 H         2 RES2    0.0000
     33 H11        2.1980    0.9288    7.3472 H         2 RES2    0.0000
     34 H12        2.3023    5.8550   11.1470 H         2 RES2    0.0000
     35 H13        0.8762    4.8992   11.2973 H         2 RES2    0.0000
     36 H14        2.4506    4.4255   11.8302 H         2 RES2    0.0000
@<TRIPOS>BOND
     1    1    4 1
     2    2    6 1
     3    3    8 2
     4    4    5 2
     5    5    6 1
     6    6    7 2
     7    7    8 1
     8    8    9 1
     9    9   10 2
    10   10    5 1
    11   11    2 1
    12   12   15 1
    13   13   17 1
    14   14   19 2
    15   15   16 2
    16   16   17 1
    17   17   18 2
    18   18   19 1
    19   19   20 1
    20   20   21 2
    21   21   16 1
    22   22   13 1
    23   23    1 1
    24   24   12 1
    25   25    7 1
    26   26    9 1
    27   27   10 1
    28   28   11 1
    29   29   11 1
    30   30   11 1
    31   31   18 1
    32   32   20 1
    33   33   21 1
    34   34   22 1
    35   35   22 1
    36   36   22 1
@<TRIPOS>SUBSTRUCTURE
     1 RES1 1
     2 RES2 12

@<TRIPOS>CRYSIN
   3.8460   25.6730   13.9920  90.0000  96.3600  90.0000  14 1

