# MOL2 file generated by ConQuest
# Please check atom types

@<TRIPOS>MOLECULE
TICVOR
    64    66     1
SMALL
USER_CHARGES
****
Generated from CSD

@<TRIPOS>ATOM
      1 O1         1.7017    0.3906    6.5704 O.3       1 RES1    0.0000
      2 O2         1.5372    3.2532    8.0667 O.2       1 RES1   -1.0000
      3 O3        -1.5539    2.1939    4.8143 O.2       1 RES1    0.0000
      4 N1         0.8639    3.3122    6.9808 N.pl3     1 RES1    1.0000
      5 N2        -0.6187    2.8104    5.4443 N.3       1 RES1    0.0000
      6 C1         0.3031   -1.0380    7.9730 C.ar      1 RES1    0.0000
      7 C2         0.5670    0.1503    7.2923 C.ar      1 RES1    0.0000
      8 C3        -0.3753    1.1771    7.3177 C.ar      1 RES1    0.0000
      9 C4         2.5945   -0.7089    6.3444 C.3       1 RES1    0.0000
     10 C5        -0.0600    2.4223    6.6034 C.2       1 RES1    0.0000
     11 C6         1.0881    4.3905    5.9693 C.3       1 RES1    0.0000
     12 C7        -0.0485    4.1063    4.9394 C.3       1 RES1    0.0000
     13 C8         2.4882    4.1051    5.4318 C.3       1 RES1    0.0000
     14 C9         1.0215    5.7281    6.6462 C.3       1 RES1    0.0000
     15 C10        0.4218    3.8878    3.5029 C.3       1 RES1    0.0000
     16 C11       -1.1755    5.1279    4.9448 C.3       1 RES1    0.0000
     17 H1         0.9752   -1.7591    7.9627 H         1 RES1    0.0000
     18 H2         2.1028   -1.5214    6.3238 H         1 RES1    0.0000
     19 H3         3.2300   -0.7424    7.0499 H         1 RES1    0.0000
     20 H4         3.0446   -0.5901    5.5164 H         1 RES1    0.0000
     21 H5         2.6433    3.1687    5.4781 H         1 RES1    0.0000
     22 H6         3.1402    4.5611    5.9504 H         1 RES1    0.0000
     23 H7         2.5471    4.3905    4.5271 H         1 RES1    0.0000
     24 H8         1.2949    5.6499    7.5526 H         1 RES1    0.0000
     25 H9         1.5841    6.3497    6.1994 H         1 RES1    0.0000
     26 H10        0.1229    6.0328    6.6111 H         1 RES1    0.0000
     27 H11        1.3290    3.6065    3.5090 H         1 RES1    0.0000
     28 H12        0.3453    4.7003    3.0159 H         1 RES1    0.0000
     29 H13       -0.1146    3.2205    3.0909 H         1 RES1    0.0000
     30 H14       -0.8123    5.9942    5.0888 H         1 RES1    0.0000
     31 H15       -1.6321    5.1106    4.1122 H         1 RES1    0.0000
     32 H16       -1.7847    4.9197    5.6441 H         1 RES1    0.0000
     33 O1B       -2.9895   -0.3906    9.3868 O.3       1 RES1    0.0000
     34 O2B       -2.8250   -3.2532    7.8905 O.2       1 RES1   -1.0000
     35 O3B        0.2661   -2.1939   11.1429 O.2       1 RES1    0.0000
     36 N1B       -2.1517   -3.3122    8.9764 N.pl3     1 RES1    1.0000
     37 N2B       -0.6691   -2.8104   10.5129 N.3       1 RES1    0.0000
     38 C1B       -1.5909    1.0380    7.9842 C.ar      1 RES1    0.0000
     39 C2B       -1.8548   -0.1503    8.6649 C.ar      1 RES1    0.0000
     40 C3B       -0.9125   -1.1771    8.6396 C.ar      1 RES1    0.0000
     41 C4B       -3.8823    0.7089    9.6128 C.3       1 RES1    0.0000
     42 C5B       -1.2278   -2.4223    9.3538 C.2       1 RES1    0.0000
     43 C6B       -2.3759   -4.3905    9.9879 C.3       1 RES1    0.0000
     44 C7B       -1.2393   -4.1063   11.0178 C.3       1 RES1    0.0000
     45 C8B       -3.7760   -4.1051   10.5254 C.3       1 RES1    0.0000
     46 C9B       -2.3093   -5.7281    9.3110 C.3       1 RES1    0.0000
     47 C10B      -1.7096   -3.8878   12.4543 C.3       1 RES1    0.0000
     48 C11B      -0.1123   -5.1279   11.0124 C.3       1 RES1    0.0000
     49 H1B       -2.2630    1.7591    7.9946 H         1 RES1    0.0000
     50 H2B       -3.3906    1.5214    9.6334 H         1 RES1    0.0000
     51 H3B       -4.5178    0.7424    8.9073 H         1 RES1    0.0000
     52 H4B       -4.3324    0.5901   10.4408 H         1 RES1    0.0000
     53 H5B       -3.9311   -3.1687   10.4791 H         1 RES1    0.0000
     54 H6B       -4.4280   -4.5611   10.0068 H         1 RES1    0.0000
     55 H7B       -3.8349   -4.3905   11.4302 H         1 RES1    0.0000
     56 H8B       -2.5827   -5.6499    8.4047 H         1 RES1    0.0000
     57 H9B       -2.8719   -6.3497    9.7578 H         1 RES1    0.0000
     58 H10B      -1.4107   -6.0328    9.3461 H         1 RES1    0.0000
     59 H11B      -2.6168   -3.6065   12.4482 H         1 RES1    0.0000
     60 H12B      -1.6331   -4.7003   12.9413 H         1 RES1    0.0000
     61 H13B      -1.1732   -3.2205   12.8663 H         1 RES1    0.0000
     62 H14B      -0.4755   -5.9942   10.8685 H         1 RES1    0.0000
     63 H15B       0.3443   -5.1106   11.8450 H         1 RES1    0.0000
     64 H16B       0.4968   -4.9197   10.3132 H         1 RES1    0.0000
@<TRIPOS>BOND
     1    1    7 1
     2    2    4 1
     3    3    5 1
     4    4   10 2
     5    5   10 1
     6    6    7 ar
     7    7    8 ar
     8    8   10 1
     9    9    1 1
    10   11    4 1
    11   12    5 1
    12   13   11 1
    13   14   11 1
    14   15   12 1
    15   16   12 1
    16   17    6 1
    17   18    9 1
    18   19    9 1
    19   20    9 1
    20   21   13 1
    21   22   13 1
    22   23   13 1
    23   24   14 1
    24   25   14 1
    25   26   14 1
    26   27   15 1
    27   28   15 1
    28   29   15 1
    29   30   16 1
    30   31   16 1
    31   32   16 1
    32   33   39 1
    33   34   36 1
    34   35   37 1
    35   36   42 2
    36   37   42 1
    37   38    8 ar
    38   39   38 ar
    39   40    6 ar
    40   41   33 1
    41   42   40 1
    42   43   36 1
    43   44   37 1
    44   45   43 1
    45   46   43 1
    46   47   44 1
    47   48   44 1
    48   49   38 1
    49   50   41 1
    50   51   41 1
    51   52   41 1
    52   53   45 1
    53   54   45 1
    54   55   45 1
    55   56   46 1
    56   57   46 1
    57   58   46 1
    58   59   47 1
    59   60   47 1
    60   61   47 1
    61   62   48 1
    62   63   48 1
    63   64   48 1
    64   11   12 1
    65   39   40 ar
    66   43   44 1
@<TRIPOS>SUBSTRUCTURE
     1 RES1 1

@<TRIPOS>CRYSIN
   7.0587   10.1562   16.0091  90.0000  94.6140  90.0000  14 1

