# MOL2 file generated by ConQuest
# Please check atom types

@<TRIPOS>MOLECULE
TICVUX
    92    96     1
SMALL
USER_CHARGES
****
Generated from CSD

@<TRIPOS>ATOM
      1 O1         7.1770   13.9803    5.0455 O.3       1 RES1    0.0000
      2 O2         6.4498   11.2088    8.7488 O.2       1 RES1   -1.0000
      3 O3         1.9917   11.0263    7.4466 O.2       1 RES1    0.0000
      4 O4         2.4910    9.5616    3.6767 O.2       1 RES1   -1.0000
      5 O5         4.1184   13.2398    1.3488 O.2       1 RES1    0.0000
      6 O6        10.8492   19.6876    2.4258 O.2       1 RES1   -1.0000
      7 O7        13.3464   17.4681    5.5902 O.2       1 RES1    0.0000
      8 N1         5.1410   11.0860    8.7849 N.pl3     1 RES1    1.0000
      9 N2         3.0589   10.9738    8.1519 N.3       1 RES1    0.0000
     10 N3         2.7351   10.3987    2.7480 N.pl3     1 RES1    1.0000
     11 N4         3.4944   12.1493    1.6587 N.3       1 RES1    0.0000
     12 N5        11.7858   19.3915    3.2309 N.pl3     1 RES1    1.0000
     13 N6        13.0016   18.3205    4.7119 N.3       1 RES1    0.0000
     14 C1         6.1087   13.1143    5.0550 C.ar      1 RES1    0.0000
     15 C2         5.7959   12.5984    6.2755 C.ar      1 RES1    0.0000
     16 C3         4.7061   11.7654    6.4000 C.ar      1 RES1    0.0000
     17 C4         3.9264   11.4196    5.2822 C.ar      1 RES1    0.0000
     18 C5         4.2852   11.9297    4.0474 C.ar      1 RES1    0.0000
     19 C6         5.3624   12.7767    3.9077 C.ar      1 RES1    0.0000
     20 C7         4.2979   11.2602    7.7317 C.2       1 RES1    0.0000
     21 C8         4.4594   10.6155   10.0263 C.3       1 RES1    0.0000
     22 C9         2.9696   10.7176    9.6347 C.3       1 RES1    0.0000
     23 C10        4.8877   11.4718   11.1613 C.3       1 RES1    0.0000
     24 C11        4.9404    9.1632   10.2640 C.3       1 RES1    0.0000
     25 C12        2.1364    9.4658    9.8571 C.3       1 RES1    0.0000
     26 C13        2.2624   11.9506   10.2003 C.3       1 RES1    0.0000
     27 C14        3.5136   11.5244    2.8573 C.2       1 RES1    0.0000
     28 C15        2.2040   10.2253    1.3859 C.3       1 RES1    0.0000
     29 C16        2.5974   11.4939    0.6521 C.3       1 RES1    0.0000
     30 C17        3.1223    8.9568    0.8945 C.3       1 RES1    0.0000
     31 C18        0.8441    9.7630    1.4211 C.3       1 RES1    0.0000
     32 C19        3.3550   11.3287   -0.5893 C.3       1 RES1    0.0000
     33 C20        1.4269   12.4680    0.5218 C.3       1 RES1    0.0000
     34 C21        7.7165   14.3446    3.7632 C.3       1 RES1    0.0000
     35 C22        8.8177   15.3352    3.9571 C.ar      1 RES1    0.0000
     36 C23        8.4973   16.6505    4.2280 C.ar      1 RES1    0.0000
     37 C24        9.4803   17.6290    4.2908 C.ar      1 RES1    0.0000
     38 C25       10.8303   17.2763    4.0968 C.ar      1 RES1    0.0000
     39 C26       11.1392   15.9835    3.8307 C.ar      1 RES1    0.0000
     40 C27       10.1369   15.0042    3.7556 C.ar      1 RES1    0.0000
     41 C28       11.8572   18.3194    4.0237 C.2       1 RES1    0.0000
     42 C29       13.0951   20.1301    3.2062 C.3       1 RES1    0.0000
     43 C30       13.7700   19.5982    4.4904 C.3       1 RES1    0.0000
     44 C31       12.8502   21.6421    3.1796 C.3       1 RES1    0.0000
     45 C32       13.7938   19.7104    1.9049 C.3       1 RES1    0.0000
     46 C33       13.4947   20.4482    5.7080 C.3       1 RES1    0.0000
     47 C34       15.2419   19.2702    4.3687 C.3       1 RES1    0.0000
     48 H1         6.3373   12.7927    7.0312 H         1 RES1    0.0000
     49 H2         3.1534   10.8747    5.3744 H         1 RES1    0.0000
     50 H3         5.5874   13.1311    3.0551 H         1 RES1    0.0000
     51 H4         5.0764   12.3469   10.8419 H         1 RES1    0.0000
     52 H5         5.6646   11.1114   11.5719 H         1 RES1    0.0000
     53 H6         4.1816   11.5104   11.7963 H         1 RES1    0.0000
     54 H7         5.8231    9.0751    9.9246 H         1 RES1    0.0000
     55 H8         4.9410    8.9843   11.1974 H         1 RES1    0.0000
     56 H9         4.3668    8.5468    9.8239 H         1 RES1    0.0000
     57 H10        2.4229    9.0503   10.6623 H         1 RES1    0.0000
     58 H11        2.2712    8.8715    9.1281 H         1 RES1    0.0000
     59 H12        1.2139    9.6832    9.9227 H         1 RES1    0.0000
     60 H13        1.7612   11.6947   10.9655 H         1 RES1    0.0000
     61 H14        1.6811   12.3304    9.5530 H         1 RES1    0.0000
     62 H15        2.9192   12.5890   10.4512 H         1 RES1    0.0000
     63 H16        3.3668    8.4340    1.6492 H         1 RES1    0.0000
     64 H17        3.9052    9.2925    0.4724 H         1 RES1    0.0000
     65 H18        2.6370    8.4202    0.2804 H         1 RES1    0.0000
     66 H19        0.8372    8.8137    1.4591 H         1 RES1    0.0000
     67 H20        0.4017   10.0520    0.6312 H         1 RES1    0.0000
     68 H21        0.3969   10.1152    2.1815 H         1 RES1    0.0000
     69 H22        4.2734   11.2077   -0.3783 H         1 RES1    0.0000
     70 H23        3.2571   12.0965   -1.1416 H         1 RES1    0.0000
     71 H24        3.0318   10.5638   -1.0504 H         1 RES1    0.0000
     72 H25        1.0501   12.3992   -0.3469 H         1 RES1    0.0000
     73 H26        1.7415   13.3540    0.6616 H         1 RES1    0.0000
     74 H27        0.7648   12.2616    1.1711 H         1 RES1    0.0000
     75 H28        8.0819   13.5741    3.3469 H         1 RES1    0.0000
     76 H29        7.0278   14.7023    3.2157 H         1 RES1    0.0000
     77 H30        7.5884   16.8899    4.3735 H         1 RES1    0.0000
     78 H31        9.2502   18.5327    4.4799 H         1 RES1    0.0000
     79 H32       12.0507   15.7480    3.7024 H         1 RES1    0.0000
     80 H33       10.3631   14.0997    3.5788 H         1 RES1    0.0000
     81 H34       12.0414   21.8210    3.6463 H         1 RES1    0.0000
     82 H35       12.7687   21.9366    2.2804 H         1 RES1    0.0000
     83 H36       13.5663   22.1017    3.6007 H         1 RES1    0.0000
     84 H37       13.1316   19.4820    1.2623 H         1 RES1    0.0000
     85 H38       14.3303   20.4204    1.5703 H         1 RES1    0.0000
     86 H39       14.3413   18.9537    2.0769 H         1 RES1    0.0000
     87 H40       13.3347   19.8893    6.4609 H         1 RES1    0.0000
     88 H41       12.7344   20.9982    5.5540 H         1 RES1    0.0000
     89 H42       14.2527   20.9955    5.8763 H         1 RES1    0.0000
     90 H43       15.6455   19.3004    5.2280 H         1 RES1    0.0000
     91 H44       15.3714   18.4116    3.9875 H         1 RES1    0.0000
     92 H45       15.6385   19.9278    3.8088 H         1 RES1    0.0000
@<TRIPOS>BOND
     1    1   14 1
     2    2    8 1
     3    3    9 1
     4    4   10 1
     5    5   11 1
     6    6   12 1
     7    7   13 1
     8    8   20 2
     9    9   20 1
    10   10   27 2
    11   11   27 1
    12   12   41 2
    13   13   41 1
    14   14   15 ar
    15   15   16 ar
    16   16   17 ar
    17   17   18 ar
    18   18   19 ar
    19   19   14 ar
    20   20   16 1
    21   21    8 1
    22   22    9 1
    23   23   21 1
    24   24   21 1
    25   25   22 1
    26   26   22 1
    27   27   18 1
    28   28   10 1
    29   29   11 1
    30   30   28 1
    31   31   28 1
    32   32   29 1
    33   33   29 1
    34   34    1 1
    35   35   34 1
    36   36   35 ar
    37   37   36 ar
    38   38   37 ar
    39   39   38 ar
    40   40   35 ar
    41   41   38 1
    42   42   12 1
    43   43   13 1
    44   44   42 1
    45   45   42 1
    46   46   43 1
    47   47   43 1
    48   48   15 1
    49   49   17 1
    50   50   19 1
    51   51   23 1
    52   52   23 1
    53   53   23 1
    54   54   24 1
    55   55   24 1
    56   56   24 1
    57   57   25 1
    58   58   25 1
    59   59   25 1
    60   60   26 1
    61   61   26 1
    62   62   26 1
    63   63   30 1
    64   64   30 1
    65   65   30 1
    66   66   31 1
    67   67   31 1
    68   68   31 1
    69   69   32 1
    70   70   32 1
    71   71   32 1
    72   72   33 1
    73   73   33 1
    74   74   33 1
    75   75   34 1
    76   76   34 1
    77   77   36 1
    78   78   37 1
    79   79   39 1
    80   80   40 1
    81   81   44 1
    82   82   44 1
    83   83   44 1
    84   84   45 1
    85   85   45 1
    86   86   45 1
    87   87   46 1
    88   88   46 1
    89   89   46 1
    90   90   47 1
    91   91   47 1
    92   92   47 1
    93   21   22 1
    94   28   29 1
    95   39   40 ar
    96   42   43 1
@<TRIPOS>SUBSTRUCTURE
     1 RES1 1

@<TRIPOS>CRYSIN
  12.8740   27.5170   10.7230  90.0000 117.5690  90.0000  14 2

