# MOL2 file generated by ConQuest
# Please check atom types

@<TRIPOS>MOLECULE
TICWAE
    92    96     1
SMALL
USER_CHARGES
****
Generated from CSD

@<TRIPOS>ATOM
      1 O1        -1.1003    2.7792   12.6961 O.3       1 RES1    0.0000
      2 O2         1.2264    0.2592   15.8213 O.2       1 RES1   -1.0000
      3 O3         1.5535   -3.1101   12.7291 O.2       1 RES1    0.0000
      4 O4         3.0083   -1.3137    9.5263 O.2       1 RES1   -1.0000
      5 O5        -0.3195    1.5859    8.0983 O.2       1 RES1    0.0000
      6 O6        -4.0695    7.2560    9.6023 O.2       1 RES1   -1.0000
      7 O7        -6.3405    7.7886   13.5888 O.2       1 RES1    0.0000
      8 N1         1.3901   -0.8616   15.2979 N.pl3     1 RES1    1.0000
      9 N2         1.5908   -2.4711   13.8304 N.3       1 RES1    0.0000
     10 N3         2.1644   -0.6628    8.7813 N.pl3     1 RES1    1.0000
     11 N4         0.6489    0.7326    8.1240 N.3       1 RES1    0.0000
     12 N5        -4.9700    7.5886   10.4437 N.pl3     1 RES1    1.0000
     13 N6        -6.0295    7.8644   12.3298 N.3       1 RES1    0.0000
     14 C1        -0.2897    1.7386   12.2480 C.ar      1 RES1    0.0000
     15 C2         0.0888    0.8509   13.2640 C.ar      1 RES1    0.0000
     16 C3         0.8383   -0.2509   12.9554 C.ar      1 RES1    0.0000
     17 C4         1.2120   -0.4722   11.6169 C.ar      1 RES1    0.0000
     18 C5         0.8385    0.4272   10.6134 C.ar      1 RES1    0.0000
     19 C6         0.0580    1.5468   10.9451 C.ar      1 RES1    0.0000
     20 C7         1.2646   -1.1634   13.9542 C.2       1 RES1    0.0000
     21 C8         2.0362   -1.9989   16.1027 C.3       1 RES1    0.0000
     22 C9         1.7179   -3.1919   15.1336 C.3       1 RES1    0.0000
     23 C10        1.4550   -2.0451   17.4602 C.3       1 RES1    0.0000
     24 C11        3.5191   -1.6486   16.1297 C.3       1 RES1    0.0000
     25 C12        2.7977   -4.2322   15.0397 C.3       1 RES1    0.0000
     26 C13        0.3822   -3.8594   15.3835 C.3       1 RES1    0.0000
     27 C14        1.1903    0.1645    9.2191 C.2       1 RES1    0.0000
     28 C15        2.0829   -0.9113    7.3445 C.3       1 RES1    0.0000
     29 C16        1.3338    0.3397    6.8524 C.3       1 RES1    0.0000
     30 C17        3.4539   -1.1669    6.7490 C.3       1 RES1    0.0000
     31 C18        1.2330   -2.1847    7.1288 C.3       1 RES1    0.0000
     32 C19        2.3181    1.5090    6.5512 C.3       1 RES1    0.0000
     33 C20        0.3267    0.1811    5.7781 C.3       1 RES1    0.0000
     34 C21       -1.4016    3.8061   11.7445 C.3       1 RES1    0.0000
     35 C22       -2.1827    4.8938   12.4866 C.ar      1 RES1    0.0000
     36 C23       -3.1977    5.5400   11.8475 C.ar      1 RES1    0.0000
     37 C24       -3.8893    6.5803   12.4790 C.ar      1 RES1    0.0000
     38 C25       -3.5269    6.9495   13.7587 C.ar      1 RES1    0.0000
     39 C26       -2.5035    6.2761   14.4014 C.ar      1 RES1    0.0000
     40 C27       -1.8261    5.2701   13.7497 C.ar      1 RES1    0.0000
     41 C28       -4.9539    7.3259   11.7607 C.2       1 RES1    0.0000
     42 C29       -6.1855    8.3910   10.0302 C.3       1 RES1    0.0000
     43 C30       -6.9705    8.5390   11.3440 C.3       1 RES1    0.0000
     44 C31       -6.8731    7.5732    8.9515 C.3       1 RES1    0.0000
     45 C32       -5.6713    9.7177    9.4661 C.3       1 RES1    0.0000
     46 C33       -8.2661    7.7957   11.3764 C.3       1 RES1    0.0000
     47 C34       -7.1836    9.9674   11.8619 C.3       1 RES1    0.0000
     48 H1        -0.1718    1.0072   14.1632 H         1 RES1    0.0000
     49 H2         1.7249   -1.2403   11.3944 H         1 RES1    0.0000
     50 H3        -0.2042    2.1717   10.2797 H         1 RES1    0.0000
     51 H4         0.5533   -1.7539   17.3905 H         1 RES1    0.0000
     52 H5         1.9255   -1.4794   18.0602 H         1 RES1    0.0000
     53 H6         1.4754   -2.9374   17.7838 H         1 RES1    0.0000
     54 H7         3.6181   -0.7042   16.1117 H         1 RES1    0.0000
     55 H8         3.8845   -1.9906   16.9365 H         1 RES1    0.0000
     56 H9         3.9773   -2.0297   15.3880 H         1 RES1    0.0000
     57 H10        3.4554   -3.9328   14.4239 H         1 RES1    0.0000
     58 H11        3.1959   -4.3588   15.8937 H         1 RES1    0.0000
     59 H12        2.4300   -5.0547   14.7363 H         1 RES1    0.0000
     60 H13        0.5050   -4.6583   15.8825 H         1 RES1    0.0000
     61 H14       -0.0203   -4.0665   14.5475 H         1 RES1    0.0000
     62 H15       -0.1802   -3.2665   15.8667 H         1 RES1    0.0000
     63 H16        3.8535   -0.3456    6.4883 H         1 RES1    0.0000
     64 H17        4.0050   -1.5965    7.3917 H         1 RES1    0.0000
     65 H18        3.3583   -1.7279    5.9871 H         1 RES1    0.0000
     66 H19        1.7785   -2.9611    7.0951 H         1 RES1    0.0000
     67 H20        0.7405   -2.1054    6.3220 H         1 RES1    0.0000
     68 H21        0.6311   -2.2522    7.8615 H         1 RES1    0.0000
     69 H22        2.5787    1.8806    7.3850 H         1 RES1    0.0000
     70 H23        1.9043    2.1812    6.0208 H         1 RES1    0.0000
     71 H24        3.0842    1.1764    6.0995 H         1 RES1    0.0000
     72 H25        0.7658    0.3965    4.9645 H         1 RES1    0.0000
     73 H26       -0.4088    0.7681    5.9062 H         1 RES1    0.0000
     74 H27        0.0137   -0.7148    5.7421 H         1 RES1    0.0000
     75 H28       -0.5936    4.1695   11.3989 H         1 RES1    0.0000
     76 H29       -1.9220    3.4558   11.0303 H         1 RES1    0.0000
     77 H30       -3.4581    5.2737   10.9741 H         1 RES1    0.0000
     78 H31       -3.9984    7.6513   14.1924 H         1 RES1    0.0000
     79 H32       -2.2709    6.5152   15.2914 H         1 RES1    0.0000
     80 H33       -1.0920    4.8381   14.1677 H         1 RES1    0.0000
     81 H34       -6.5237    7.8052    8.0997 H         1 RES1    0.0000
     82 H35       -7.8028    7.7661    8.9762 H         1 RES1    0.0000
     83 H36       -6.7376    6.6454    9.1065 H         1 RES1    0.0000
     84 H37       -6.2602   10.0325    8.7896 H         1 RES1    0.0000
     85 H38       -4.8070    9.5828    9.0930 H         1 RES1    0.0000
     86 H39       -5.6180   10.3580   10.1651 H         1 RES1    0.0000
     87 H40       -8.9870    8.3875   11.1921 H         1 RES1    0.0000
     88 H41       -8.3883    7.4099   12.2372 H         1 RES1    0.0000
     89 H42       -8.2440    7.1081   10.7224 H         1 RES1    0.0000
     90 H43       -7.9260   10.0029   12.4529 H         1 RES1    0.0000
     91 H44       -7.3322   10.5580   11.1314 H         1 RES1    0.0000
     92 H45       -6.3967   10.2290   12.3248 H         1 RES1    0.0000
@<TRIPOS>BOND
     1    1   14 1
     2    2    8 1
     3    3    9 1
     4    4   10 1
     5    5   11 1
     6    6   12 1
     7    7   13 1
     8    8   20 2
     9    9   20 1
    10   10   27 2
    11   11   27 1
    12   12   41 2
    13   13   41 1
    14   14   15 ar
    15   15   16 ar
    16   16   17 ar
    17   17   18 ar
    18   18   19 ar
    19   19   14 ar
    20   20   16 1
    21   21    8 1
    22   22    9 1
    23   23   21 1
    24   24   21 1
    25   25   22 1
    26   26   22 1
    27   27   18 1
    28   28   10 1
    29   29   11 1
    30   30   28 1
    31   31   28 1
    32   32   29 1
    33   33   29 1
    34   34    1 1
    35   35   34 1
    36   36   35 ar
    37   37   36 ar
    38   38   37 ar
    39   39   38 ar
    40   40   35 ar
    41   41   37 1
    42   42   12 1
    43   43   13 1
    44   44   42 1
    45   45   42 1
    46   46   43 1
    47   47   43 1
    48   48   15 1
    49   49   17 1
    50   50   19 1
    51   51   23 1
    52   52   23 1
    53   53   23 1
    54   54   24 1
    55   55   24 1
    56   56   24 1
    57   57   25 1
    58   58   25 1
    59   59   25 1
    60   60   26 1
    61   61   26 1
    62   62   26 1
    63   63   30 1
    64   64   30 1
    65   65   30 1
    66   66   31 1
    67   67   31 1
    68   68   31 1
    69   69   32 1
    70   70   32 1
    71   71   32 1
    72   72   33 1
    73   73   33 1
    74   74   33 1
    75   75   34 1
    76   76   34 1
    77   77   36 1
    78   78   38 1
    79   79   39 1
    80   80   40 1
    81   81   44 1
    82   82   44 1
    83   83   44 1
    84   84   45 1
    85   85   45 1
    86   86   45 1
    87   87   46 1
    88   88   46 1
    89   89   46 1
    90   90   47 1
    91   91   47 1
    92   92   47 1
    93   21   22 1
    94   28   29 1
    95   39   40 ar
    96   42   43 1
@<TRIPOS>SUBSTRUCTURE
     1 RES1 1

@<TRIPOS>CRYSIN
  12.4630   11.8350   22.5830  90.0000  95.6280  90.0000 231 1

