# MOL2 file generated by ConQuest
# Please check atom types

@<TRIPOS>MOLECULE
TICXEJ
    56    58     2
SMALL
NO_CHARGES
****
Generated from CSD

@<TRIPOS>ATOM
      1 O1         0.9321    4.2898    7.4109 O.3       1 RES1    0.0000
      2 O2         0.4072    3.4424    1.2461 O.3       1 RES1    0.0000
      3 O3        -4.4948    1.9855    1.3796 O.3       2 RES2    0.0000
      4 O4        -2.3396    2.0085   -4.4846 O.3       2 RES2    0.0000
      5 N1         0.3305    3.1458    6.8228 N.pl3     1 RES1    0.0000
      6 N2         0.4993    2.1068    8.9004 N.ar      1 RES1    0.0000
      7 N3        -3.1096    1.8957    1.0451 N.3       2 RES2    0.0000
      8 N4        -2.7909    0.8467    3.1042 N.ar      2 RES2    0.0000
      9 C1         0.3611    1.9864    7.5689 C.ar      1 RES1    0.0000
     10 C2         0.1410    0.7346    6.9587 C.ar      1 RES1    0.0000
     11 C3         0.0186   -0.3767    7.7581 C.ar      1 RES1    0.0000
     12 C4         0.1147   -0.2593    9.1465 C.ar      1 RES1    0.0000
     13 C5         0.3731    0.9888    9.6530 C.ar      1 RES1    0.0000
     14 C6         0.3883    3.1634    5.3927 C.ar      1 RES1    0.0000
     15 C7        -0.6816    3.7161    4.6882 C.ar      1 RES1    0.0000
     16 C8        -0.6494    3.7894    3.3054 C.ar      1 RES1    0.0000
     17 C9         0.4616    3.3042    2.6072 C.ar      1 RES1    0.0000
     18 C10        1.5337    2.7407    3.3028 C.ar      1 RES1    0.0000
     19 C11        1.4888    2.6729    4.6892 C.ar      1 RES1    0.0000
     20 C12        1.5248    2.9565    0.4936 C.3       1 RES1    0.0000
     21 C13       -2.3712    1.0417    1.8459 C.ar      2 RES2    0.0000
     22 C14       -1.1680    0.4806    1.3703 C.ar      2 RES2    0.0000
     23 C15       -0.4113   -0.2862    2.2254 C.ar      2 RES2    0.0000
     24 C16       -0.8368   -0.4875    3.5389 C.ar      2 RES2    0.0000
     25 C17       -2.0147    0.1039    3.9204 C.ar      2 RES2    0.0000
     26 C18       -2.9021    1.9231   -0.3762 C.ar      2 RES2    0.0000
     27 C19       -2.2556    3.0137   -0.9358 C.ar      2 RES2    0.0000
     28 C20       -2.0512    3.0824   -2.3139 C.ar      2 RES2    0.0000
     29 C21       -2.4956    2.0459   -3.1253 C.ar      2 RES2    0.0000
     30 C22       -3.1377    0.9332   -2.5594 C.ar      2 RES2    0.0000
     31 C23       -3.3365    0.8735   -1.1954 C.ar      2 RES2    0.0000
     32 C24       -1.8150    3.1871   -5.1170 C.3       2 RES2    0.0000
     33 H1         0.2196    4.6746    7.9453 H         1 RES1    0.0000
     34 H2         0.0702    0.6683    6.0254 H         1 RES1    0.0000
     35 H3        -0.1340   -1.2366    7.3617 H         1 RES1    0.0000
     36 H4         0.0234   -1.0476    9.7589 H         1 RES1    0.0000
     37 H5         0.4731    1.1459   10.6320 H         1 RES1    0.0000
     38 H6        -1.4662    4.0539    5.1736 H         1 RES1    0.0000
     39 H7        -1.4054    4.1744    2.7634 H         1 RES1    0.0000
     40 H8         2.3226    2.4106    2.8178 H         1 RES1    0.0000
     41 H9         2.2297    2.2753    5.1819 H         1 RES1    0.0000
     42 H10        2.3768    3.4473    0.7160 H         1 RES1    0.0000
     43 H11        1.6382    1.9540    0.6085 H         1 RES1    0.0000
     44 H12        1.2988    3.1334   -0.4312 H         1 RES1    0.0000
     45 H13       -4.4918    2.7597    1.9364 H         2 RES2    0.0000
     46 H14       -0.8825    0.6496    0.4667 H         2 RES2    0.0000
     47 H15        0.4192   -0.6952    1.8915 H         2 RES2    0.0000
     48 H16       -0.3103   -1.0014    4.1528 H         2 RES2    0.0000
     49 H17       -2.3727    0.0212    4.8322 H         2 RES2    0.0000
     50 H18       -1.9381    3.7365   -0.3296 H         2 RES2    0.0000
     51 H19       -1.6178    3.8268   -2.6902 H         2 RES2    0.0000
     52 H20       -3.4051    0.2216   -3.1131 H         2 RES2    0.0000
     53 H21       -3.7674    0.1122   -0.8034 H         2 RES2    0.0000
     54 H22       -1.8538    3.0013   -6.0786 H         2 RES2    0.0000
     55 H23       -0.8558    3.3621   -4.8192 H         2 RES2    0.0000
     56 H24       -2.3860    3.9905   -4.8960 H         2 RES2    0.0000
@<TRIPOS>BOND
     1    1    5 1
     2    2   17 1
     3    3    7 1
     4    4   29 1
     5    5    9 1
     6    6    9 ar
     7    7   21 1
     8    8   21 ar
     9    9   10 ar
    10   10   11 ar
    11   11   12 ar
    12   12   13 ar
    13   13    6 ar
    14   14    5 1
    15   15   14 ar
    16   16   15 ar
    17   17   16 ar
    18   18   17 ar
    19   19   14 ar
    20   20    2 1
    21   21   22 ar
    22   22   23 ar
    23   23   24 ar
    24   24   25 ar
    25   25    8 ar
    26   26    7 1
    27   27   26 ar
    28   28   27 ar
    29   29   28 ar
    30   30   29 ar
    31   31   26 ar
    32   32    4 1
    33   33    1 1
    34   34   10 1
    35   35   11 1
    36   36   12 1
    37   37   13 1
    38   38   15 1
    39   39   16 1
    40   40   18 1
    41   41   19 1
    42   42   20 1
    43   43   20 1
    44   44   20 1
    45   45    3 1
    46   46   22 1
    47   47   23 1
    48   48   24 1
    49   49   25 1
    50   50   27 1
    51   51   28 1
    52   52   30 1
    53   53   31 1
    54   54   32 1
    55   55   32 1
    56   56   32 1
    57   18   19 ar
    58   30   31 ar
@<TRIPOS>SUBSTRUCTURE
     1 RES1 1
     2 RES2 3

@<TRIPOS>CRYSIN
   9.4260    9.7740   12.8360 105.2600 106.3200  91.7200   2 1

