# MOL2 file generated by ConQuest
# Please check atom types

@<TRIPOS>MOLECULE
TICXIN
    82    82     2
SMALL
NO_CHARGES
****
Generated from CSD

@<TRIPOS>ATOM
      1 O1        -0.8253    4.9819    9.9083 O.3       1 RES1    0.0000
      2 O2         5.8342    3.2820    9.2329 O.3       1 RES1    0.0000
      3 O3         5.3511    6.0036    7.4216 O.3       2 RES2    0.0000
      4 O4        11.9534    4.0936    6.7125 O.3       2 RES2    0.0000
      5 N1         2.4943    4.3097    8.9572 N.ar      1 RES1    0.0000
      6 N2         0.3836    5.2609    9.1586 N.3       1 RES1    0.0000
      7 N3         4.6104    3.4654    8.4783 N.3       1 RES1    0.0000
      8 N4         8.6678    4.8423    7.6742 N.ar      2 RES2    0.0000
      9 N5         6.5659    5.7229    8.1540 N.3       2 RES2    0.0000
     10 N6        10.7448    3.8221    7.4652 N.3       2 RES2    0.0000
     11 C1         1.4462    4.4958    9.7628 C.ar      1 RES1    0.0000
     12 C2         1.3655    3.9721   11.0567 C.ar      1 RES1    0.0000
     13 C3         2.4617    3.2591   11.5159 C.ar      1 RES1    0.0000
     14 C4         3.5628    3.0640   10.7096 C.ar      1 RES1    0.0000
     15 C5         3.5261    3.5992    9.4242 C.ar      1 RES1    0.0000
     16 C6         0.5870    6.7687    9.1548 C.3       1 RES1    0.0000
     17 C7         0.9491    7.2882   10.5400 C.3       1 RES1    0.0000
     18 C8        -0.7229    7.3936    8.6751 C.3       1 RES1    0.0000
     19 C9         1.6860    7.1014    8.1429 C.3       1 RES1    0.0000
     20 C10        4.5046    2.2952    7.5202 C.3       1 RES1    0.0000
     21 C11        3.1224    2.2908    6.8751 C.3       1 RES1    0.0000
     22 C12        5.5796    2.5119    6.4577 C.3       1 RES1    0.0000
     23 C13        4.7194    0.9647    8.2473 C.3       1 RES1    0.0000
     24 C14        7.6128    5.5056    7.1880 C.ar      2 RES2    0.0000
     25 C15        7.5199    5.9201    5.8639 C.ar      2 RES2    0.0000
     26 C16        8.5840    5.6266    5.0238 C.ar      2 RES2    0.0000
     27 C17        9.6870    4.9459    5.4988 C.ar      2 RES2    0.0000
     28 C18        9.6705    4.5594    6.8414 C.ar      2 RES2    0.0000
     29 C19        6.8186    6.8402    9.1511 C.3       2 RES2    0.0000
     30 C20        5.4882    7.1983    9.8031 C.3       2 RES2    0.0000
     31 C21        7.4334    8.0712    8.4760 C.3       2 RES2    0.0000
     32 C22        7.7660    6.3019   10.2210 C.3       2 RES2    0.0000
     33 C23       10.5484    2.3201    7.5029 C.3       2 RES2    0.0000
     34 C24       10.2426    1.7597    6.1213 C.3       2 RES2    0.0000
     35 C25       11.8272    1.7050    8.0554 C.3       2 RES2    0.0000
     36 C26        9.4035    2.0175    8.4732 C.3       2 RES2    0.0000
     37 H1         0.5802    4.1683   11.6214 H         1 RES1    0.0000
     38 H2         2.4288    2.8995   12.3484 H         1 RES1    0.0000
     39 H3         4.3204    2.5764   10.9141 H         1 RES1    0.0000
     40 H4         1.6825    7.0004   10.8139 H         1 RES1    0.0000
     41 H5         0.2504    7.0139   11.2233 H         1 RES1    0.0000
     42 H6         0.8874    8.2625   10.5598 H         1 RES1    0.0000
     43 H7        -1.4161    7.3185    9.3443 H         1 RES1    0.0000
     44 H8        -0.5760    8.3349    8.5777 H         1 RES1    0.0000
     45 H9        -1.0139    6.9988    7.8168 H         1 RES1    0.0000
     46 H10        1.7747    8.0488    8.1005 H         1 RES1    0.0000
     47 H11        1.4300    6.8103    7.2507 H         1 RES1    0.0000
     48 H12        2.4331    6.7312    8.4168 H         1 RES1    0.0000
     49 H13       -1.2778    4.5436    9.3033 H         1 RES1    0.0000
     50 H14        2.8777    3.0947    6.4883 H         1 RES1    0.0000
     51 H15        3.0547    1.6441    6.1594 H         1 RES1    0.0000
     52 H16        2.4223    2.0698    7.5344 H         1 RES1    0.0000
     53 H17        5.4081    3.3000    5.9575 H         1 RES1    0.0000
     54 H18        6.4973    2.5494    6.8300 H         1 RES1    0.0000
     55 H19        5.5260    1.7972    5.8163 H         1 RES1    0.0000
     56 H20        5.5888    0.8919    8.5890 H         1 RES1    0.0000
     57 H21        4.6153    0.2457    7.5951 H         1 RES1    0.0000
     58 H22        4.0287    0.8599    8.9179 H         1 RES1    0.0000
     59 H23        6.2527    3.9714    9.0069 H         1 RES1    0.0000
     60 H24        6.7754    6.3946    5.5848 H         2 RES2    0.0000
     61 H25        8.6326    5.9083    4.1166 H         2 RES2    0.0000
     62 H26       10.4760    4.6782    4.9326 H         2 RES2    0.0000
     63 H27        4.9053    7.6248    9.1805 H         2 RES2    0.0000
     64 H28        4.9992    6.3694   10.1475 H         2 RES2    0.0000
     65 H29        5.6362    7.8301   10.6120 H         2 RES2    0.0000
     66 H30        6.9117    8.4157    7.8436 H         2 RES2    0.0000
     67 H31        7.5341    8.7943    9.2045 H         2 RES2    0.0000
     68 H32        8.3516    7.8688    8.1062 H         2 RES2    0.0000
     69 H33        7.3929    5.5061   10.7207 H         2 RES2    0.0000
     70 H34        7.9548    7.0173   10.9212 H         2 RES2    0.0000
     71 H35        8.6200    6.0850    9.8991 H         2 RES2    0.0000
     72 H36       10.2603    0.7455    6.1693 H         2 RES2    0.0000
     73 H37        9.4442    2.0210    5.8276 H         2 RES2    0.0000
     74 H38       10.9853    1.9975    5.4803 H         2 RES2    0.0000
     75 H39        9.2953    1.0181    8.5353 H         2 RES2    0.0000
     76 H40        8.7207    2.3896    8.1739 H         2 RES2    0.0000
     77 H41        9.7006    2.3761    9.3033 H         2 RES2    0.0000
     78 H42       12.0638    2.1001    8.8233 H         2 RES2    0.0000
     79 H43       12.5254    1.7299    7.4116 H         2 RES2    0.0000
     80 H44        4.8132    5.2840    7.6092 H         2 RES2    0.0000
     81 H45       11.6638    0.7270    8.2163 H         2 RES2    0.0000
     82 H46       12.3889    4.5250    7.4116 H         2 RES2    0.0000
@<TRIPOS>BOND
     1    1    6 1
     2    2    7 1
     3    3    9 1
     4    4   10 1
     5    5   11 ar
     6    6   11 1
     7    7   15 1
     8    8   24 ar
     9    9   24 1
    10   10   28 1
    11   11   12 ar
    12   12   13 ar
    13   13   14 ar
    14   14   15 ar
    15   15    5 ar
    16   16    6 1
    17   17   16 1
    18   18   16 1
    19   19   16 1
    20   20    7 1
    21   21   20 1
    22   22   20 1
    23   23   20 1
    24   24   25 ar
    25   25   26 ar
    26   26   27 ar
    27   27   28 ar
    28   28    8 ar
    29   29    9 1
    30   30   29 1
    31   31   29 1
    32   32   29 1
    33   33   10 1
    34   34   33 1
    35   35   33 1
    36   36   33 1
    37   37   12 1
    38   38   13 1
    39   39   14 1
    40   40   17 1
    41   41   17 1
    42   42   17 1
    43   43   18 1
    44   44   18 1
    45   45   18 1
    46   46   19 1
    47   47   19 1
    48   48   19 1
    49   49    1 1
    50   50   21 1
    51   51   21 1
    52   52   21 1
    53   53   22 1
    54   54   22 1
    55   55   22 1
    56   56   23 1
    57   57   23 1
    58   58   23 1
    59   59    2 1
    60   60   25 1
    61   61   26 1
    62   62   27 1
    63   63   30 1
    64   64   30 1
    65   65   30 1
    66   66   31 1
    67   67   31 1
    68   68   31 1
    69   69   32 1
    70   70   32 1
    71   71   32 1
    72   72   34 1
    73   73   34 1
    74   74   34 1
    75   75   36 1
    76   76   36 1
    77   77   36 1
    78   78   35 1
    79   79   35 1
    80   80    3 1
    81   81   35 1
    82   82    4 1
@<TRIPOS>SUBSTRUCTURE
     1 RES1 1
     2 RES2 3

@<TRIPOS>CRYSIN
  12.4050   16.8280   14.1310  90.0000  92.5200  90.0000  14 1

