# MOL2 file generated by ConQuest
# Please check atom types

@<TRIPOS>MOLECULE
TICYIN
    30    31     1
SMALL
NO_CHARGES
****
Generated from CSD

@<TRIPOS>ATOM
      1 O1         5.4639   -1.8101    5.8322 O.2       1 RES1    0.0000
      2 O2         3.8879   -3.2305    6.1814 O.2       1 RES1    0.0000
      3 N1         4.3671   -2.1114    6.2831 N.pl3     1 RES1    0.0000
      4 C1        -5.1355   -2.3045    9.9658 C.1       1 RES1    0.0000
      5 C2        -4.2210   -1.5838    9.8964 C.1       1 RES1    0.0000
      6 C3        -3.0862   -0.7008    9.8375 C.ar      1 RES1    0.0000
      7 C4        -2.5422   -0.1810   11.0041 C.ar      1 RES1    0.0000
      8 C5        -1.4416    0.6611   10.9579 C.ar      1 RES1    0.0000
      9 C6        -0.8312    0.9735    9.7508 C.ar      1 RES1    0.0000
     10 C7        -1.3857    0.4602    8.5852 C.ar      1 RES1    0.0000
     11 C8        -2.4961   -0.3609    8.6211 C.ar      1 RES1    0.0000
     12 C9         2.1504    0.8278    8.3656 C.ar      1 RES1    0.0000
     13 C10        3.3295    1.1501    7.6938 C.ar      1 RES1    0.0000
     14 C11        4.0614    0.2053    7.0069 C.ar      1 RES1    0.0000
     15 C12        3.5917   -1.0827    6.9908 C.ar      1 RES1    0.0000
     16 C13        2.4317   -1.4525    7.6302 C.ar      1 RES1    0.0000
     17 C14        1.7216   -0.4989    8.3251 C.ar      1 RES1    0.0000
     18 C15        0.2955    1.9293    9.7392 C.2       1 RES1    0.0000
     19 C16        1.4751    1.8884    9.1356 C.2       1 RES1    0.0000
     20 H1        -5.8348   -2.9027    9.9670 H         1 RES1    0.0000
     21 H2        -2.9678   -0.3753   11.8286 H         1 RES1    0.0000
     22 H3        -1.0426    1.0264   11.8286 H         1 RES1    0.0000
     23 H4        -0.9712    0.6843    7.7585 H         1 RES1    0.0000
     24 H5        -2.9010   -0.6843    7.7701 H         1 RES1    0.0000
     25 H6         3.6646    2.0529    7.7007 H         1 RES1    0.0000
     26 H7         4.9203    0.4194    6.5791 H         1 RES1    0.0000
     27 H8         2.0997   -2.3509    7.5041 H         1 RES1    0.0000
     28 H9         0.8728   -0.7395    8.7529 H         1 RES1    0.0000
     29 H10        0.1060    2.6820   10.3023 H         1 RES1    0.0000
     30 H11        2.0415    2.6930    9.2848 H         1 RES1    0.0000
@<TRIPOS>BOND
     1    1    3 2
     2    2    3 2
     3    3   15 1
     4    4    5 3
     5    5    6 1
     6    6    7 ar
     7    7    8 ar
     8    8    9 ar
     9    9   10 ar
    10   10   11 ar
    11   11    6 ar
    12   12   13 ar
    13   13   14 ar
    14   14   15 ar
    15   15   16 ar
    16   16   17 ar
    17   17   12 ar
    18   18    9 1
    19   19   12 1
    20   20    4 1
    21   21    7 1
    22   22    8 1
    23   23   10 1
    24   24   11 1
    25   25   13 1
    26   26   14 1
    27   27   16 1
    28   28   17 1
    29   29   18 1
    30   30   19 1
    31   18   19 2
@<TRIPOS>SUBSTRUCTURE
     1 RES1 1

@<TRIPOS>CRYSIN
  10.0270   11.0370   12.4720  90.0000 112.0150  90.0000  14 2

