# MOL2 file generated by ConQuest
# Please check atom types

@<TRIPOS>MOLECULE
TICYAG
    56    58     1
SMALL
NO_CHARGES
****
Generated from CSD

@<TRIPOS>ATOM
      1 O1        -0.7379    2.5261   -1.3337 O.3       1 RES1    0.0000
      2 O2         2.6685   -0.6304   -1.0096 O.3       1 RES1    0.0000
      3 O3         0.3311    3.4519    3.5992 O.2       1 RES1    0.0000
      4 O4         2.5677    0.5423    3.9959 O.2       1 RES1    0.0000
      5 N1        -1.6111    3.7363    0.7616 N.2       1 RES1    0.0000
      6 N2        -0.5339    3.7407    2.7135 N.3       1 RES1    0.0000
      7 N3         3.2332   -0.1433    3.1581 N.3       1 RES1    0.0000
      8 N4         3.8325   -1.0812    1.2257 N.2       1 RES1    0.0000
      9 C1         1.0103    1.0029   -1.1230 C.ar      1 RES1    0.0000
     10 C2         0.1847    1.9431   -0.5420 C.ar      1 RES1    0.0000
     11 C3         0.3052    2.2495    0.8378 C.ar      1 RES1    0.0000
     12 C4         1.2611    1.5584    1.5799 C.ar      1 RES1    0.0000
     13 C5         2.0800    0.5830    1.0114 C.ar      1 RES1    0.0000
     14 C6         1.9387    0.3097   -0.3737 C.ar      1 RES1    0.0000
     15 C7        -0.6135    3.2293    1.4099 C.2       1 RES1    0.0000
     16 C8        -2.2774    4.7833    1.5764 C.3       1 RES1    0.0000
     17 C9        -1.7678    4.5276    3.0217 C.3       1 RES1    0.0000
     18 C10       -1.8124    6.1191    0.9901 C.3       1 RES1    0.0000
     19 C11       -3.7875    4.6720    1.4205 C.3       1 RES1    0.0000
     20 C12       -1.4010    5.7631    3.8259 C.3       1 RES1    0.0000
     21 C13       -2.6549    3.5996    3.8471 C.3       1 RES1    0.0000
     22 C14        3.0473   -0.2072    1.7695 C.2       1 RES1    0.0000
     23 C15        4.4832   -0.8982    3.5141 C.3       1 RES1    0.0000
     24 C16        4.5475   -1.8417    2.2831 C.3       1 RES1    0.0000
     25 C17        5.6155    0.1290    3.5354 C.3       1 RES1    0.0000
     26 C18        4.3262   -1.5496    4.8727 C.3       1 RES1    0.0000
     27 C19        3.7576   -3.1334    2.4939 C.3       1 RES1    0.0000
     28 C20        5.9621   -2.1800    1.8297 C.3       1 RES1    0.0000
     29 H1         0.9396    0.8277   -2.0529 H         1 RES1    0.0000
     30 H2         1.3610    1.7590    2.5045 H         1 RES1    0.0000
     31 H3        -1.8902    6.0904    0.0443 H         1 RES1    0.0000
     32 H4        -4.0110    4.6521    0.4977 H         1 RES1    0.0000
     33 H5        -3.4636    4.0426    4.0721 H         1 RES1    0.0000
     34 H6        -0.9873    5.4942    4.6371 H         1 RES1    0.0000
     35 H7        -0.7983    6.3020    3.3264 H         1 RES1    0.0000
     36 H8        -2.1868    6.2613    4.0189 H         1 RES1    0.0000
     37 H9         6.4243   -2.6110    2.5382 H         1 RES1    0.0000
     38 H10        2.8985   -2.9218    2.8393 H         1 RES1    0.0000
     39 H11       -0.9059    6.2734    1.2292 H         1 RES1    0.0000
     40 H12       -2.3535    6.8211    1.3302 H         1 RES1    0.0000
     41 H13        6.4274   -0.3064    3.7674 H         1 RES1    0.0000
     42 H14        5.7045    0.5235    2.6746 H         1 RES1    0.0000
     43 H15        5.4231    0.8035    4.1748 H         1 RES1    0.0000
     44 H16       -2.8510    2.8248    3.3335 H         1 RES1    0.0000
     45 H17       -2.2005    3.3450    4.6424 H         1 RES1    0.0000
     46 H18        3.5963   -2.1569    4.8479 H         1 RES1    0.0000
     47 H19        5.1225   -2.0202    5.0923 H         1 RES1    0.0000
     48 H20        4.1611   -0.8828    5.5280 H         1 RES1    0.0000
     49 H21        5.9267   -2.7598    1.0769 H         1 RES1    0.0000
     50 H22        3.6628   -3.5853    1.6632 H         1 RES1    0.0000
     51 H23        4.2174   -3.6944    3.1068 H         1 RES1    0.0000
     52 H24       -4.2066    5.4203    1.8315 H         1 RES1    0.0000
     53 H25       -4.0902    3.8729    1.8368 H         1 RES1    0.0000
     54 H26        6.4186   -1.3810    1.5923 H         1 RES1    0.0000
     55 H27        3.1413   -0.9181   -0.3790 H         1 RES1    0.0000
     56 H28       -1.2121    2.9603   -0.8413 H         1 RES1    0.0000
@<TRIPOS>BOND
     1    1   10 1
     2    2   14 1
     3    3    6 1
     4    4    7 1
     5    5   15 2
     6    6   15 1
     7    7   22 1
     8    8   22 2
     9    9   10 ar
    10   10   11 ar
    11   11   12 ar
    12   12   13 ar
    13   13   14 ar
    14   14    9 ar
    15   15   11 1
    16   16    5 1
    17   17    6 1
    18   18   16 1
    19   19   16 1
    20   20   17 1
    21   21   17 1
    22   22   13 1
    23   23    7 1
    24   24    8 1
    25   25   23 1
    26   26   23 1
    27   27   24 1
    28   28   24 1
    29   29    9 1
    30   30   12 1
    31   31   18 1
    32   32   19 1
    33   33   21 1
    34   34   20 1
    35   35   20 1
    36   36   20 1
    37   37   28 1
    38   38   27 1
    39   39   18 1
    40   40   18 1
    41   41   25 1
    42   42   25 1
    43   43   25 1
    44   44   21 1
    45   45   21 1
    46   46   26 1
    47   47   26 1
    48   48   26 1
    49   49   28 1
    50   50   27 1
    51   51   27 1
    52   52   19 1
    53   53   19 1
    54   54   28 1
    55   55    2 1
    56   56    1 1
    57   16   17 1
    58   23   24 1
@<TRIPOS>SUBSTRUCTURE
     1 RES1 1

@<TRIPOS>CRYSIN
  10.6195   11.0214   18.4224  90.0000 105.9590  90.0000  14 1

