# MOL2 file generated by ConQuest
# Please check atom types

@<TRIPOS>MOLECULE
TICYOT
    21    21     1
SMALL
NO_CHARGES
****
Generated from CSD

@<TRIPOS>ATOM
      1 O1        -5.8731    1.5165    5.2664 O.2       1 RES1    0.0000
      2 O2        -5.8745   -0.2567    6.4746 O.2       1 RES1    0.0000
      3 O3        -3.9210   -0.8790    7.9509 O.3       1 RES1    0.0000
      4 O4         0.0035    3.4612    5.8529 O.2       1 RES1    0.0000
      5 O5        -1.8208    4.5130    5.4454 O.2       1 RES1    0.0000
      6 O6        -3.8703    3.0683    5.1809 O.3       1 RES1    0.0000
      7 O7        -1.3099   -1.5579    8.6202 O.2       1 RES1    0.0000
      8 O8        -1.1262    0.1563    9.8805 O.2       1 RES1    0.0000
      9 O9        -0.0745    1.6582    7.6873 O.3       1 RES1    0.0000
     10 N1        -5.3084    0.7604    6.0571 N.pl3     1 RES1    0.0000
     11 N2        -1.2406    3.5446    5.8646 N.pl3     1 RES1    0.0000
     12 N3        -1.4331   -0.3759    8.8280 N.pl3     1 RES1    0.0000
     13 C1        -3.3469    0.1843    7.4129 C.ar      1 RES1    0.0000
     14 C2        -3.9774    1.0615    6.4953 C.ar      1 RES1    0.0000
     15 C3        -3.3141    2.2124    6.0059 C.ar      1 RES1    0.0000
     16 C4        -1.9721    2.4265    6.4035 C.ar      1 RES1    0.0000
     17 C5        -1.3302    1.5433    7.2860 C.ar      1 RES1    0.0000
     18 C6        -2.0511    0.4745    7.8042 C.ar      1 RES1    0.0000
     19 H1        -4.5777   -0.9915    7.6018 H         1 RES1    0.0000
     20 H2        -4.6391    2.7130    4.9479 H         1 RES1    0.0000
     21 H3         0.2834    2.2507    7.2420 H         1 RES1    0.0000
@<TRIPOS>BOND
     1    1   10 2
     2    2   10 2
     3    3   13 1
     4    4   11 2
     5    5   11 2
     6    6   15 1
     7    7   12 2
     8    8   12 2
     9    9   17 1
    10   10   14 1
    11   11   16 1
    12   12   18 1
    13   13   14 ar
    14   14   15 ar
    15   15   16 ar
    16   16   17 ar
    17   17   18 ar
    18   18   13 ar
    19   19    3 1
    20   20    6 1
    21   21    9 1
@<TRIPOS>SUBSTRUCTURE
     1 RES1 1

@<TRIPOS>CRYSIN
   8.3970    6.0830    9.6710  90.0000 111.5300  90.0000   4 1

