# MOL2 file generated by ConQuest
# Please check atom types

@<TRIPOS>MOLECULE
TIDBUG
    26    27     1
SMALL
NO_CHARGES
****
Generated from CSD

@<TRIPOS>ATOM
      1 O1         0.2855    3.7405    7.7649 O.2       1 RES1    0.0000
      2 O2         1.7348    6.4787    1.6784 O.2       1 RES1    0.0000
      3 O3         1.2385    8.5685    1.4287 O.2       1 RES1    0.0000
      4 N1         1.4113    7.5759    2.1270 N.pl3     1 RES1    0.0000
      5 C1        -1.1649    5.3655    6.8364 C.3       1 RES1    0.0000
      6 H1        -1.2021    6.2835    7.1762 H         1 RES1    0.0000
      7 H2        -1.8607    4.8284    7.2705 H         1 RES1    0.0000
      8 H3        -1.3122    5.3690    5.8676 H         1 RES1    0.0000
      9 C2         0.1769    4.7777    7.1348 C.2       1 RES1    0.0000
     10 C3         1.3992    5.4840    6.6284 C.3       1 RES1    0.0000
     11 C4         2.5690    5.4670    7.6070 C.3       1 RES1    0.0000
     12 H4         3.1723    6.2515    7.6168 H         1 RES1    0.0000
     13 H5         2.4257    5.0406    8.4889 H         1 RES1    0.0000
     14 C5         2.6009    4.5845    6.4091 C.3       1 RES1    0.0000
     15 H6         2.4799    3.6125    6.5513 H         1 RES1    0.0000
     16 H7         3.2266    4.8217    5.6791 H         1 RES1    0.0000
     17 C6         1.2345    6.6890    5.7473 C.ar      1 RES1    0.0000
     18 C7         1.3843    6.5779    4.3690 C.ar      1 RES1    0.0000
     19 H8         1.5914    5.7395    3.9727 H         1 RES1    0.0000
     20 C8         1.2279    7.7106    3.5789 C.ar      1 RES1    0.0000
     21 C9         0.9244    8.9520    4.1013 C.ar      1 RES1    0.0000
     22 H9         0.8231    9.7107    3.5378 H         1 RES1    0.0000
     23 C10        0.7734    9.0554    5.4747 C.ar      1 RES1    0.0000
     24 H10        0.5615    9.8959    5.8620 H         1 RES1    0.0000
     25 C11        0.9281    7.9425    6.2904 C.ar      1 RES1    0.0000
     26 H11        0.8249    8.0333    7.2302 H         1 RES1    0.0000
@<TRIPOS>BOND
     1    1    9 2
     2    2    4 2
     3    3    4 2
     4    4   20 1
     5    5    6 1
     6    7    5 1
     7    8    5 1
     8    9    5 1
     9   10    9 1
    10   11   10 1
    11   12   11 1
    12   13   11 1
    13   14   10 1
    14   15   14 1
    15   16   14 1
    16   17   10 1
    17   18   17 ar
    18   19   18 1
    19   20   18 ar
    20   21   20 ar
    21   22   21 1
    22   23   21 ar
    23   24   23 1
    24   25   17 ar
    25   26   25 1
    26   11   14 1
    27   23   25 ar
@<TRIPOS>SUBSTRUCTURE
     1 RES1 1

@<TRIPOS>CRYSIN
   7.3288   16.8413    8.2232  90.0000 101.6690  90.0000 231 1

