# MOL2 file generated by ConQuest
# Please check atom types

@<TRIPOS>MOLECULE
TIDCIS
    56    60     2
SMALL
NO_CHARGES
****
Generated from CSD

@<TRIPOS>ATOM
      1 N1         4.3367    0.9117    1.4899 N.pl3     1 RES1    0.0000
      2 O1         3.9968    0.4048    0.4474 O.2       1 RES1    0.0000
      3 O2         4.2756    0.3554    2.5516 O.2       1 RES1    0.0000
      4 C1         4.9008    2.2745    1.4407 C.ar      1 RES1    0.0000
      5 C2         6.2817    2.3549    1.3627 C.ar      1 RES1    0.0000
      6 C3         6.8717    3.5756    1.2560 C.ar      1 RES1    0.0000
      7 O3         6.7835    5.8996    1.1356 O.3       1 RES1    0.0000
      8 C4         6.1185    4.7422    1.2477 C.ar      1 RES1    0.0000
      9 O4         2.0824    8.1679    1.1492 O.3       1 RES1    0.0000
     10 C5         1.6222    6.9271    1.3380 C.ar      1 RES1    0.0000
     11 C6         0.2398    6.7927    1.4625 C.ar      1 RES1    0.0000
     12 C7        -0.3336    5.5627    1.6103 C.ar      1 RES1    0.0000
     13 C8         0.4412    4.4239    1.6390 C.ar      1 RES1    0.0000
     14 O5         2.0941    2.2143    1.6144 O.2       1 RES1    0.0000
     15 C9         2.6230    3.2866    1.5405 C.2       1 RES1    0.0000
     16 O6         4.4381    7.0028    1.1958 O.2       1 RES1    0.0000
     17 C10        3.8927    5.8903    1.3011 C.2       1 RES1    0.0000
     18 C11        2.4353    5.7852    1.3859 C.ar      1 RES1    0.0000
     19 C12        1.8162    4.5243    1.5323 C.ar      1 RES1    0.0000
     20 C13        4.0982    3.3948    1.4448 C.ar      1 RES1    0.0000
     21 C14        4.7067    4.6727    1.3463 C.ar      1 RES1    0.0000
     22 H1         6.1916    6.5207    1.1903 H         1 RES1    0.0000
     23 H2         7.8424    3.6312    1.1082 H         1 RES1    0.0000
     24 H3         6.7941    1.6997    1.3681 H         1 RES1    0.0000
     25 H4         0.0426    3.5540    1.7512 H         1 RES1    0.0000
     26 H5        -1.2384    5.5318    1.6691 H         1 RES1    0.0000
     27 H6        -0.2302    7.4942    1.3408 H         1 RES1    0.0000
     28 H7         2.8488    8.0659    1.1082 H         1 RES1    0.0000
     29 N2         3.7133    8.3796    4.7351 N.pl3     2 RES2    0.0000
     30 O7         4.2250    8.8432    5.7325 O.2       2 RES2    0.0000
     31 O8         3.5233    9.0054    3.7090 O.2       2 RES2    0.0000
     32 C15        3.1753    7.0152    4.7926 C.ar      2 RES2    0.0000
     33 C16        1.8033    6.9148    4.8788 C.ar      2 RES2    0.0000
     34 C17        1.2173    5.7002    5.0074 C.ar      2 RES2    0.0000
     35 O9         1.3101    3.3963    5.2085 O.3       2 RES2    0.0000
     36 C18        1.9741    4.5398    5.0566 C.ar      2 RES2    0.0000
     37 O10        5.9775    1.1249    5.0389 O.3       2 RES2    0.0000
     38 C19        6.4635    2.3626    4.8952 C.ar      2 RES2    0.0000
     39 C20        7.8467    2.4862    4.7926 C.ar      2 RES2    0.0000
     40 C21        8.4242    3.7131    4.6517 C.ar      2 RES2    0.0000
     41 C22        7.6570    4.8627    4.5983 C.ar      2 RES2    0.0000
     42 O11        5.9710    7.0708    4.2905 O.2       2 RES2    0.0000
     43 C23        5.4671    6.0124    4.5901 C.2       2 RES2    0.0000
     44 O12        3.6572    2.3023    5.0649 O.2       2 RES2    0.0000
     45 C24        4.2053    3.4118    4.9581 C.2       2 RES2    0.0000
     46 C25        5.6598    3.5184    4.8542 C.ar      2 RES2    0.0000
     47 C26        6.2834    4.7700    4.6982 C.ar      2 RES2    0.0000
     48 C27        3.9939    5.9011    4.8008 C.ar      2 RES2    0.0000
     49 C28        3.3869    4.6263    4.9431 C.ar      2 RES2    0.0000
     50 H8         1.8849    2.7860    5.1442 H         2 RES2    0.0000
     51 H9         0.2926    5.6153    5.0621 H         2 RES2    0.0000
     52 H10        1.3194    7.5885    4.8022 H         2 RES2    0.0000
     53 H11        8.0310    5.6786    4.5012 H         2 RES2    0.0000
     54 H12        9.3431    3.7533    4.5559 H         2 RES2    0.0000
     55 H13        8.3408    1.7013    4.8979 H         2 RES2    0.0000
     56 H14        5.1749    1.2223    5.1032 H         2 RES2    0.0000
@<TRIPOS>BOND
     1    1    2 2
     2    3    1 2
     3    4    1 1
     4    5    4 ar
     5    6    5 ar
     6    7    8 1
     7    8    6 ar
     8    9   10 1
     9   10   11 ar
    10   11   12 ar
    11   12   13 ar
    12   13   19 ar
    13   14   15 2
    14   15   19 1
    15   16   17 2
    16   17   18 1
    17   18   10 ar
    18   19   18 ar
    19   20    4 ar
    20   21    8 ar
    21   22    7 1
    22   23    6 1
    23   24    5 1
    24   25   13 1
    25   26   12 1
    26   27   11 1
    27   28    9 1
    28   29   30 2
    29   31   29 2
    30   32   29 1
    31   33   32 ar
    32   34   33 ar
    33   35   36 1
    34   36   34 ar
    35   37   38 1
    36   38   39 ar
    37   39   40 ar
    38   40   41 ar
    39   41   47 ar
    40   42   43 2
    41   43   47 1
    42   44   45 2
    43   45   46 1
    44   46   38 ar
    45   47   46 ar
    46   48   32 ar
    47   49   36 ar
    48   50   35 1
    49   51   34 1
    50   52   33 1
    51   53   41 1
    52   54   40 1
    53   55   39 1
    54   56   37 1
    55   15   20 1
    56   17   21 1
    57   20   21 ar
    58   43   48 1
    59   45   49 1
    60   48   49 ar
@<TRIPOS>SUBSTRUCTURE
     1 RES1 1
     2 RES2 29

@<TRIPOS>CRYSIN
  10.7390   15.4520   14.5220  90.0000 109.5900  90.0000 231 1

