# MOL2 file generated by ConQuest
# Please check atom types

@<TRIPOS>MOLECULE
TIDDUI
    76    80     2
SMALL
NO_CHARGES
****
Generated from CSD

@<TRIPOS>ATOM
      1 C1         4.4625    7.5763    5.8394 C.ar      1 RES1    0.0000
      2 H1         3.6673    7.1320    5.5684 H         1 RES1    0.0000
      3 C2         5.1948    8.3433    4.9283 C.ar      1 RES1    0.0000
      4 H2         4.8794    8.4390    4.0375 H         1 RES1    0.0000
      5 C3         6.3711    8.9656    5.3055 C.ar      1 RES1    0.0000
      6 H3         6.8633    9.4804    4.6764 H         1 RES1    0.0000
      7 C4         6.8294    8.8328    6.6158 C.ar      1 RES1    0.0000
      8 H4         7.6480    9.2409    6.8726 H         1 RES1    0.0000
      9 C5         6.1020    8.1117    7.5423 C.ar      1 RES1    0.0000
     10 H5         6.4020    8.0487    8.4413 H         1 RES1    0.0000
     11 C6         4.9180    7.4744    7.1482 C.ar      1 RES1    0.0000
     12 C7         3.0502    6.1223    7.7974 C.3       1 RES1    0.0000
     13 H6         3.2191    5.3675    7.1795 H         1 RES1    0.0000
     14 H7         2.4404    6.7630    7.3512 H         1 RES1    0.0000
     15 C8         2.4255    5.6134    9.0907 C.3       1 RES1    0.0000
     16 H8         1.7852    4.8870    8.8810 H         1 RES1    0.0000
     17 H9         3.1348    5.2379    9.6700 H         1 RES1    0.0000
     18 C9         0.9176    8.1899   11.1200 C.2       1 RES1    0.0000
     19 C10        1.9982    7.3322   10.9727 C.2       1 RES1    0.0000
     20 C11        3.1684    7.1551   11.8445 C.ar      1 RES1    0.0000
     21 C12        2.9769    7.2115   13.2315 C.ar      1 RES1    0.0000
     22 H10        2.1047    7.3501   13.5826 H         1 RES1    0.0000
     23 C13        4.0512    7.0672   14.0937 C.ar      1 RES1    0.0000
     24 H11        3.9288    7.0976   15.0357 H         1 RES1    0.0000
     25 C14        5.3114    6.8765   13.5453 C.ar      1 RES1    0.0000
     26 C15        5.5431    6.8339   12.1786 C.ar      1 RES1    0.0000
     27 H12        6.4212    6.7106   11.8376 H         1 RES1    0.0000
     28 C16        4.4567    6.9769   11.3200 C.ar      1 RES1    0.0000
     29 H13        4.5876    6.9533   10.3799 H         1 RES1    0.0000
     30 C17        0.7090    9.1852   12.1281 C.1       1 RES1    0.0000
     31 N1         1.7237    6.6848    9.8158 N.pl3     1 RES1    0.0000
     32 N2         0.5505    7.1081    9.2858 N.2       1 RES1    0.0000
     33 N3         0.0577    8.0310   10.0743 N.2       1 RES1    0.0000
     34 N4         0.5612    9.9855   12.9342 N.1       1 RES1    0.0000
     35 N5         6.4541    6.7274   14.4586 N.pl3     1 RES1    0.0000
     36 O1         4.2777    6.7666    8.1374 O.3       1 RES1    0.0000
     37 O2         7.5820    6.9267   14.0120 O.2       1 RES1    0.0000
     38 O3         6.2228    6.4072   15.6245 O.2       1 RES1    0.0000
     39 C18       -1.0339   11.5217    1.7445 C.ar      2 RES2    0.0000
     40 H14       -1.8321   11.9534    1.4622 H         2 RES2    0.0000
     41 C19       -0.2366   10.8305    0.8300 C.ar      2 RES2    0.0000
     42 H15       -0.5113   10.7677   -0.0767 H         2 RES2    0.0000
     43 C20        0.9540   10.2315    1.2272 C.ar      2 RES2    0.0000
     44 H16        1.4978    9.7821    0.5920 H         2 RES2    0.0000
     45 C21        1.3439   10.2956    2.5658 C.ar      2 RES2    0.0000
     46 H17        2.1579    9.8904    2.8409 H         2 RES2    0.0000
     47 C22        0.5489   10.9476    3.4980 C.ar      2 RES2    0.0000
     48 H18        0.8052   10.9727    4.4119 H         2 RES2    0.0000
     49 C23       -0.6347   11.5664    3.0803 C.ar      2 RES2    0.0000
     50 C24       -2.5135   12.9252    3.6999 C.3       2 RES2    0.0000
     51 H19       -3.1619   12.3306    3.2462 H         2 RES2    0.0000
     52 H20       -2.2729   13.6605    3.0813 H         2 RES2    0.0000
     53 C25       -3.1148   13.4849    4.9739 C.3       2 RES2    0.0000
     54 H21       -2.3930   13.8606    5.5386 H         2 RES2    0.0000
     55 H22       -3.7372   14.2197    4.7462 H         2 RES2    0.0000
     56 C26       -4.7122   11.0558    7.1135 C.2       2 RES2    0.0000
     57 C27       -3.5867   11.8473    6.9231 C.2       2 RES2    0.0000
     58 C28       -2.4069   12.0336    7.7862 C.ar      2 RES2    0.0000
     59 C29       -2.5913   12.0141    9.1774 C.ar      2 RES2    0.0000
     60 H23       -3.4632   11.8993    9.5371 H         2 RES2    0.0000
     61 C30       -1.5058   12.1616   10.0310 C.ar      2 RES2    0.0000
     62 H24       -1.6235   12.1518   10.9742 H         2 RES2    0.0000
     63 C31       -0.2458   12.3237    9.4759 C.ar      2 RES2    0.0000
     64 C32       -0.0237   12.3230    8.1051 C.ar      2 RES2    0.0000
     65 H25        0.8540   12.4191    7.7554 H         2 RES2    0.0000
     66 C33       -1.1153   12.1777    7.2572 C.ar      2 RES2    0.0000
     67 H26       -0.9866   12.1764    6.3161 H         2 RES2    0.0000
     68 C34       -5.0249   10.1668    8.1904 C.1       2 RES2    0.0000
     69 N6        -3.8387   12.4526    5.7341 N.pl3     2 RES2    0.0000
     70 N7        -5.0339   12.0670    5.2291 N.2       2 RES2    0.0000
     71 N8        -5.5701   11.2131    6.0612 N.2       2 RES2    0.0000
     72 N9        -5.3024    9.4699    9.0544 N.1       2 RES2    0.0000
     73 N10        0.9009   12.5283   10.3816 N.pl3     2 RES2    0.0000
     74 O4        -1.3467   12.1920    4.0765 O.3       2 RES2    0.0000
     75 O5         2.0302   12.3311    9.9339 O.2       2 RES2    0.0000
     76 O6         0.6706   12.9026   11.5270 O.2       2 RES2    0.0000
@<TRIPOS>BOND
     1    1    2 1
     2    3    1 ar
     3    4    3 1
     4    5    3 ar
     5    6    5 1
     6    7    5 ar
     7    8    7 1
     8    9    7 ar
     9   10    9 1
    10   11    1 ar
    11   12   13 1
    12   14   12 1
    13   15   12 1
    14   16   15 1
    15   17   15 1
    16   18   19 2
    17   19   20 1
    18   20   21 ar
    19   21   22 1
    20   23   21 ar
    21   24   23 1
    22   25   23 ar
    23   26   25 ar
    24   27   26 1
    25   28   20 ar
    26   29   28 1
    27   30   18 1
    28   31   15 1
    29   32   31 1
    30   33   18 1
    31   34   30 3
    32   35   25 1
    33   36   11 1
    34   37   35 2
    35   38   35 2
    36   39   40 1
    37   41   39 ar
    38   42   41 1
    39   43   41 ar
    40   44   43 1
    41   45   43 ar
    42   46   45 1
    43   47   45 ar
    44   48   47 1
    45   49   39 ar
    46   50   51 1
    47   52   50 1
    48   53   50 1
    49   54   53 1
    50   55   53 1
    51   56   57 2
    52   57   58 1
    53   58   59 ar
    54   59   60 1
    55   61   59 ar
    56   62   61 1
    57   63   61 ar
    58   64   63 ar
    59   65   64 1
    60   66   58 ar
    61   67   66 1
    62   68   56 1
    63   69   53 1
    64   70   69 1
    65   71   56 1
    66   72   68 3
    67   73   63 1
    68   74   49 1
    69   75   73 2
    70   76   73 2
    71    9   11 ar
    72   12   36 1
    73   19   31 1
    74   26   28 ar
    75   32   33 2
    76   47   49 ar
    77   50   74 1
    78   57   69 1
    79   64   66 ar
    80   70   71 2
@<TRIPOS>SUBSTRUCTURE
     1 RES1 1
     2 RES2 39

@<TRIPOS>CRYSIN
   8.4077   16.3992   12.0895  90.0000 108.7114  90.0000   4 1

