# MOL2 file generated by ConQuest
# Please check atom types

@<TRIPOS>MOLECULE
TIDHUK
    49    51     1
SMALL
NO_CHARGES
****
Generated from CSD

@<TRIPOS>ATOM
      1 O1         0.2093    5.0203    6.8859 O.3       1 RES1    0.0000
      2 O2         3.9832    3.1760    7.0878 O.3       1 RES1    0.0000
      3 O3         5.3001    4.9996    6.9640 O.2       1 RES1    0.0000
      4 O4         1.0575    5.9383    5.0180 O.2       1 RES1    0.0000
      5 O5        -4.7903    8.6052    7.9540 O.2       1 RES1    0.0000
      6 O6        -3.6835    7.0475    8.9874 O.2       1 RES1    0.0000
      7 O7        -2.9774   10.5627    3.9101 O.2       1 RES1    0.0000
      8 O8        -1.2205    9.6982    3.0087 O.2       1 RES1    0.0000
      9 N1        -3.8438    7.8236    8.0502 N.pl3     1 RES1    0.0000
     10 N2        -2.0656    9.7486    3.8846 N.pl3     1 RES1    0.0000
     11 C1         1.3388    4.0677    6.8707 C.3       1 RES1    0.0000
     12 H1         2.1616    4.5314    6.5425 H         1 RES1    0.0000
     13 C2         1.5451    3.6312    8.3293 C.3       1 RES1    0.0000
     14 H2         0.6699    3.6323    8.7903 H         1 RES1    0.0000
     15 H3         1.8892    2.7040    8.3396 H         1 RES1    0.0000
     16 C3         2.4899    4.5040    9.0854 C.2       1 RES1    0.0000
     17 H4         2.1665    4.8753    9.8982 H         1 RES1    0.0000
     18 C4         3.7434    4.8198    8.7432 C.2       1 RES1    0.0000
     19 H5         4.2293    5.3788    9.3372 H         1 RES1    0.0000
     20 C5         4.4332    4.3696    7.5184 C.2       1 RES1    0.0000
     21 C6         4.3436    2.7550    5.7515 C.3       1 RES1    0.0000
     22 H6         4.4748    1.7735    5.7411 H         1 RES1    0.0000
     23 H7         5.2008    3.1805    5.4950 H         1 RES1    0.0000
     24 C7         3.2644    3.1326    4.7266 C.3       1 RES1    0.0000
     25 H8         3.1147    4.1178    4.7982 H         1 RES1    0.0000
     26 C8         3.8604    2.8555    3.3311 C.3       1 RES1    0.0000
     27 H9         3.1970    3.0749    2.6438 H         1 RES1    0.0000
     28 H10        4.1010    1.9083    3.2614 H         1 RES1    0.0000
     29 H11        4.6600    3.4053    3.2029 H         1 RES1    0.0000
     30 C9         1.9292    2.4498    4.9849 C.ar      1 RES1    0.0000
     31 C10        1.5452    1.3208    4.2457 C.ar      1 RES1    0.0000
     32 H12        2.1366    0.9778    3.5867 H         1 RES1    0.0000
     33 C11        0.3308    0.6932    4.4484 C.ar      1 RES1    0.0000
     34 H13        0.1003   -0.0607    3.9204 H         1 RES1    0.0000
     35 C12       -0.5530    1.1457    5.4073 C.ar      1 RES1    0.0000
     36 H14       -1.3839    0.7080    5.5478 H         1 RES1    0.0000
     37 C13       -0.1988    2.2475    6.1550 C.ar      1 RES1    0.0000
     38 H15       -0.7947    2.5646    6.8226 H         1 RES1    0.0000
     39 C14        1.0187    2.9101    5.9570 C.ar      1 RES1    0.0000
     40 C15        0.2232    5.8989    5.8825 C.2       1 RES1    0.0000
     41 C16       -0.9101    6.8800    5.9514 C.ar      1 RES1    0.0000
     42 C17       -1.8494    6.8699    6.9876 C.ar      1 RES1    0.0000
     43 H16       -1.8072    6.2217    7.6796 H         1 RES1    0.0000
     44 C18       -2.8419    7.8331    6.9725 C.ar      1 RES1    0.0000
     45 C19       -2.9360    8.7989    5.9900 C.ar      1 RES1    0.0000
     46 H17       -3.6199    9.4584    6.0051 H         1 RES1    0.0000
     47 C20       -1.9888    8.7603    4.9830 C.ar      1 RES1    0.0000
     48 C21       -0.9879    7.8209    4.9397 C.ar      1 RES1    0.0000
     49 H18       -0.3590    7.8176    4.2269 H         1 RES1    0.0000
@<TRIPOS>BOND
     1    1   11 1
     2    2   20 1
     3    3   20 2
     4    4   40 2
     5    5    9 2
     6    6    9 2
     7    7   10 2
     8    8   10 2
     9    9   44 1
    10   10   47 1
    11   11   12 1
    12   13   11 1
    13   14   13 1
    14   15   13 1
    15   16   13 1
    16   17   16 1
    17   18   16 2
    18   19   18 1
    19   20   18 1
    20   21    2 1
    21   22   21 1
    22   23   21 1
    23   24   21 1
    24   25   24 1
    25   26   24 1
    26   27   26 1
    27   28   26 1
    28   29   26 1
    29   30   24 1
    30   31   30 ar
    31   32   31 1
    32   33   31 ar
    33   34   33 1
    34   35   33 ar
    35   36   35 1
    36   37   35 ar
    37   38   37 1
    38   39   11 1
    39   40    1 1
    40   41   40 1
    41   42   41 ar
    42   43   42 1
    43   44   42 ar
    44   45   44 ar
    45   46   45 1
    46   47   45 ar
    47   48   41 ar
    48   49   48 1
    49   30   39 ar
    50   37   39 ar
    51   47   48 ar
@<TRIPOS>SUBSTRUCTURE
     1 RES1 1

@<TRIPOS>CRYSIN
  10.0686   22.4772   10.2181  90.0000 112.6700  90.0000  14 1

