# MOL2 file generated by ConQuest
# Please check atom types

@<TRIPOS>MOLECULE
TIDHOE
    49    51     1
SMALL
NO_CHARGES
****
Generated from CSD

@<TRIPOS>ATOM
      1 O1        -1.9654   12.6312    3.6014 O.2       1 RES1    0.0000
      2 O2        -2.1319   14.8475    3.3783 O.3       1 RES1    0.0000
      3 O3        -2.2068   14.5455    0.5153 O.3       1 RES1    0.0000
      4 O4        -0.3111   15.7309    0.5754 O.2       1 RES1    0.0000
      5 O5         1.0741    9.8458    1.5442 O.2       1 RES1    0.0000
      6 O6         2.7457   16.2875    2.7557 O.2       1 RES1    0.0000
      7 O7         2.4358   16.1731    4.8826 O.2       1 RES1    0.0000
      8 N1         2.0694   16.0084    3.7321 N.pl3     1 RES1    0.0000
      9 C1        -0.5468   13.7615    1.9933 C.3       1 RES1    0.0000
     10 C2        -0.4846   12.3748    1.2785 C.3       1 RES1    0.0000
     11 H1        -0.6534   11.6771    1.8766 H         1 RES1    0.0000
     12 H2        -1.1921   12.2978    0.6230 H         1 RES1    0.0000
     13 C3         0.8511   12.0827    0.6949 C.2       1 RES1    0.0000
     14 C4         1.6987   12.9057    0.0675 C.2       1 RES1    0.0000
     15 H3         1.4835   13.7615   -0.2659 H         1 RES1    0.0000
     16 C5         3.1166   12.4710    0.2680 C.3       1 RES1    0.0000
     17 H4         3.6645   12.7464   -0.3870 H         1 RES1    0.0000
     18 C6         3.6092   13.2167    1.5554 C.3       1 RES1    0.0000
     19 H5         3.4614   14.2006    1.4747 H         1 RES1    0.0000
     20 H6         4.5917   13.0459    1.6510 H         1 RES1    0.0000
     21 C7         2.9356   12.7396    2.8286 C.ar      1 RES1    0.0000
     22 C8         3.6396   11.8075    3.5978 C.ar      1 RES1    0.0000
     23 H7         4.4681   11.5714    3.3109 H         1 RES1    0.0000
     24 C9         3.1181   11.2560    4.7553 C.ar      1 RES1    0.0000
     25 H8         3.6645   10.5983    5.2592 H         1 RES1    0.0000
     26 C10        1.8515   11.6249    5.1735 C.ar      1 RES1    0.0000
     27 H9         1.4746   11.2556    5.9824 H         1 RES1    0.0000
     28 C11        1.1443   12.5634    4.4442 C.ar      1 RES1    0.0000
     29 H10        0.2296   12.8372    4.7602 H         1 RES1    0.0000
     30 C12        1.6502   13.1316    3.2707 C.ar      1 RES1    0.0000
     31 C13        0.8386   14.2132    2.5817 C.3       1 RES1    0.0000
     32 H11        1.2574   14.4974    1.8452 H         1 RES1    0.0000
     33 C14        1.5607   10.8184    1.0108 C.2       1 RES1    0.0000
     34 C15        2.9820   10.9661    0.5016 C.3       1 RES1    0.0000
     35 H12        3.6036   10.5942    1.1251 H         1 RES1    0.0000
     36 H13        2.9669   10.5400   -0.3362 H         1 RES1    0.0000
     37 C16        0.7018   15.4392    3.4980 C.3       1 RES1    0.0000
     38 H14        0.3091   15.3187    4.4345 H         1 RES1    0.0000
     39 H15        0.1589   16.1495    3.0838 H         1 RES1    0.0000
     40 C17       -1.6315   13.6576    3.0784 C.2       1 RES1    0.0000
     41 C18       -3.1661   14.8562    4.3933 C.3       1 RES1    0.0000
     42 H16       -2.7550   14.6235    5.2174 H         1 RES1    0.0000
     43 H17       -3.4349   15.7633    4.4718 H         1 RES1    0.0000
     44 H18       -3.9118   14.2345    4.1207 H         1 RES1    0.0000
     45 C19       -0.9840   14.8142    0.9646 C.2       1 RES1    0.0000
     46 C20       -2.7284   15.4628   -0.4736 C.3       1 RES1    0.0000
     47 H19       -3.6910   15.3147   -0.6275 H         1 RES1    0.0000
     48 H20       -2.2075   15.3011   -1.2117 H         1 RES1    0.0000
     49 H21       -2.6049   16.3596   -0.2196 H         1 RES1    0.0000
@<TRIPOS>BOND
     1    1   40 2
     2    2   40 1
     3    3   45 1
     4    4   45 2
     5    5   33 2
     6    6    8 2
     7    7    8 2
     8    8   37 1
     9    9   10 1
    10   10   11 1
    11   12   10 1
    12   13   10 1
    13   14   13 2
    14   15   14 1
    15   16   14 1
    16   17   16 1
    17   18   16 1
    18   19   18 1
    19   20   18 1
    20   21   18 1
    21   22   21 ar
    22   23   22 1
    23   24   22 ar
    24   25   24 1
    25   26   24 ar
    26   27   26 1
    27   28   26 ar
    28   29   28 1
    29   30   21 ar
    30   31    9 1
    31   32   31 1
    32   33   13 1
    33   34   16 1
    34   35   34 1
    35   36   34 1
    36   37   31 1
    37   38   37 1
    38   39   37 1
    39   40    9 1
    40   41    2 1
    41   42   41 1
    42   43   41 1
    43   44   41 1
    44   45    9 1
    45   46    3 1
    46   47   46 1
    47   48   46 1
    48   49   46 1
    49   28   30 ar
    50   30   31 1
    51   33   34 1
@<TRIPOS>SUBSTRUCTURE
     1 RES1 1

@<TRIPOS>CRYSIN
   8.8302   13.5528   14.9410  90.0000  90.0000  90.0000  19 1

