# MOL2 file generated by ConQuest
# Please check atom types

@<TRIPOS>MOLECULE
TIDJAS
    49    51     1
SMALL
NO_CHARGES
****
Generated from CSD

@<TRIPOS>ATOM
      1 O1         0.6949    1.7933    3.7284 O.3       1 RES1    0.0000
      2 O2        -0.3588    1.9857    7.8958 O.3       1 RES1    0.0000
      3 O3         2.6055    2.5479    4.6675 O.2       1 RES1    0.0000
      4 C1         2.5696    2.0247    2.3418 C.ar      1 RES1    0.0000
      5 C2         1.9722    2.1644    3.7141 C.2       1 RES1    0.0000
      6 C3         0.0276    1.6808    5.0541 C.3       1 RES1    0.0000
      7 H1         0.4522    2.3000    5.7139 H         1 RES1    0.0000
      8 N1         5.8988    2.6422    0.7779 N.pl3     1 RES1    0.0000
      9 C4         1.8533    1.4848    1.2715 C.ar      1 RES1    0.0000
     10 H2         0.9415    1.2343    1.3683 H         1 RES1    0.0000
     11 C5         0.1887    0.2393    5.4970 C.ar      1 RES1    0.0000
     12 C6         3.8373    1.6729   -0.1313 C.ar      1 RES1    0.0000
     13 H3         4.2735    1.5309   -0.9632 H         1 RES1    0.0000
     14 C7         2.5126    1.3257    0.0658 C.ar      1 RES1    0.0000
     15 C8         3.8899    2.4302    2.1781 C.ar      1 RES1    0.0000
     16 H4         4.3697    2.8303    2.8939 H         1 RES1    0.0000
     17 N2         1.7804    0.7523   -1.0760 N.pl3     1 RES1    0.0000
     18 O4         2.4486    0.2116   -1.9587 O.2       1 RES1    0.0000
     19 C9         4.4891    2.2348    0.9428 C.ar      1 RES1    0.0000
     20 C10       -2.4867    2.1165    5.7580 C.2       1 RES1    0.0000
     21 H5        -3.3222    2.4023    5.4069 H         1 RES1    0.0000
     22 C11       -1.3929    2.1349    4.7315 C.3       1 RES1    0.0000
     23 O5        -1.6826    0.3302    8.6732 O.2       1 RES1    0.0000
     24 O6         0.5642    0.8328   -1.0773 O.2       1 RES1    0.0000
     25 O7         6.4863    2.2553   -0.2274 O.2       1 RES1    0.0000
     26 C12        1.0134   -0.1400    6.5737 C.ar      1 RES1    0.0000
     27 C13        0.8197    1.4110    8.5548 C.3       1 RES1    0.0000
     28 H6         0.5339    0.6616    9.1522 H         1 RES1    0.0000
     29 C14       -0.4712   -0.7493    4.7614 C.ar      1 RES1    0.0000
     30 H7        -1.0157   -0.4944    4.0259 H         1 RES1    0.0000
     31 C15       -2.5566    1.7924    7.0458 C.2       1 RES1    0.0000
     32 H8        -3.4103    1.9112    7.4473 H         1 RES1    0.0000
     33 C16        1.7264    0.8649    7.4527 C.3       1 RES1    0.0000
     34 H9         2.0477    1.6164    6.8934 H         1 RES1    0.0000
     35 H10        2.5166    0.4336    7.8651 H         1 RES1    0.0000
     36 C17       -1.5029    1.2738    7.9475 C.2       1 RES1    0.0000
     37 O8         6.4021    3.3289    1.6436 O.2       1 RES1    0.0000
     38 C18        1.1285   -1.5017    6.8713 C.ar      1 RES1    0.0000
     39 H11        1.6843   -1.7715    7.5929 H         1 RES1    0.0000
     40 C19        0.4556   -2.4629    6.1433 C.ar      1 RES1    0.0000
     41 H12        0.5435   -3.3812    6.3723 H         1 RES1    0.0000
     42 C20       -0.3487   -2.0866    5.0788 C.ar      1 RES1    0.0000
     43 H13       -0.8115   -2.7438    4.5724 H         1 RES1    0.0000
     44 C21        1.4668    2.4986    9.3864 C.3       1 RES1    0.0000
     45 H14        0.8354    2.8039   10.0722 H         1 RES1    0.0000
     46 H15        1.7102    3.2513    8.8083 H         1 RES1    0.0000
     47 H16        2.2717    2.1437    9.8190 H         1 RES1    0.0000
     48 H17       -1.3373    2.9957    4.4279 H         1 RES1    0.0000
     49 H18       -1.7136    1.5890    3.9563 H         1 RES1    0.0000
@<TRIPOS>BOND
     1    1    5 1
     2    2   27 1
     3    3    5 2
     4    4    5 1
     5    6    1 1
     6    7    6 1
     7    8   19 1
     8    9    4 ar
     9   10    9 1
    10   11    6 1
    11   12   13 1
    12   14    9 ar
    13   15    4 ar
    14   16   15 1
    15   17   14 1
    16   18   17 2
    17   19   12 ar
    18   20   21 1
    19   22    6 1
    20   23   36 2
    21   24   17 2
    22   25    8 2
    23   26   11 ar
    24   27   28 1
    25   29   11 ar
    26   30   29 1
    27   31   20 2
    28   32   31 1
    29   33   26 1
    30   34   33 1
    31   35   33 1
    32   36    2 1
    33   37    8 2
    34   38   26 ar
    35   39   38 1
    36   40   38 ar
    37   41   40 1
    38   42   29 ar
    39   43   42 1
    40   44   27 1
    41   45   44 1
    42   46   44 1
    43   47   44 1
    44   48   22 1
    45   49   22 1
    46   12   14 ar
    47   15   19 ar
    48   20   22 1
    49   27   33 1
    50   31   36 1
    51   40   42 ar
@<TRIPOS>SUBSTRUCTURE
     1 RES1 1

@<TRIPOS>CRYSIN
   8.4598   11.1436   11.9093 103.3440 111.1300  99.1780   2 1

