# MOL2 file generated by ConQuest
# Please check atom types

@<TRIPOS>MOLECULE
TIDJEW
   110   114     2
SMALL
NO_CHARGES
****
Generated from CSD

@<TRIPOS>ATOM
      1 N1         5.4968   10.5216    4.2383 N.pl3     1 RES1    0.0000
      2 N2         9.8586   10.2283    2.0209 N.pl3     1 RES1    0.0000
      3 N3         9.1514    6.6787    4.3429 N.pl3     2 RES2    0.0000
      4 N4         4.7967    6.9289    6.5669 N.pl3     2 RES2    0.0000
      5 O1         3.8819    2.2260   -2.6636 O.3       1 RES1    0.0000
      6 O2         1.9108    1.8292   -1.6057 O.2       1 RES1    0.0000
      7 O3         5.3162    6.2878    1.5659 O.3       1 RES1    0.0000
      8 O4         7.3665    5.9763    0.6724 O.2       1 RES1    0.0000
      9 O5         4.4795    9.9475    4.5791 O.2       1 RES1    0.0000
     10 O6         5.8069   11.6419    4.5990 O.2       1 RES1    0.0000
     11 O7        10.0999   11.3620    2.4032 O.2       1 RES1    0.0000
     12 O8        10.6657    9.5131    1.4142 O.2       1 RES1    0.0000
     13 O9        11.7505   15.6906    9.7261 O.3       2 RES2    0.0000
     14 O10       12.8699   16.6607    8.0195 O.2       2 RES2    0.0000
     15 O11        9.3505   10.8670    7.0947 O.3       2 RES2    0.0000
     16 O12        7.2924   11.1754    7.9742 O.2       2 RES2    0.0000
     17 O13       10.1853    7.2531    4.0404 O.2       2 RES2    0.0000
     18 O14        8.8076    5.6012    3.9002 O.2       2 RES2    0.0000
     19 O15        4.5596    5.7993    6.1644 O.2       2 RES2    0.0000
     20 O16        3.9737    7.6428    7.1368 O.2       2 RES2    0.0000
     21 C1         4.8081    5.0601    0.9302 C.3       1 RES1    0.0000
     22 H1         5.2896    4.9060    0.0681 H         1 RES1    0.0000
     23 C2         3.3397    5.3569    0.6499 C.3       1 RES1    0.0000
     24 H2         2.8561    5.5011    1.5019 H         1 RES1    0.0000
     25 H3         3.2594    6.1781    0.1022 H         1 RES1    0.0000
     26 C3         2.7464    4.1889   -0.0866 C.2       1 RES1    0.0000
     27 H4         2.1133    3.6379    0.3584 H         1 RES1    0.0000
     28 C4         3.0799    3.9065   -1.3343 C.2       1 RES1    0.0000
     29 H5         3.4759    4.5746   -1.8800 H         1 RES1    0.0000
     30 C5         2.8394    2.5575   -1.8852 C.2       1 RES1    0.0000
     31 C6         4.2207    0.8094   -2.7887 C.3       1 RES1    0.0000
     32 H6         3.4557    0.2524   -2.4643 H         1 RES1    0.0000
     33 C7         4.4704    0.5216   -4.2495 C.3       1 RES1    0.0000
     34 H7         3.6564    0.7048   -4.7619 H         1 RES1    0.0000
     35 H8         4.7203   -0.4200   -4.3587 H         1 RES1    0.0000
     36 H9         5.1979    1.0921   -4.5756 H         1 RES1    0.0000
     37 C8         5.4300    0.5798   -1.8944 C.3       1 RES1    0.0000
     38 H10        6.1937    1.0950   -2.2582 H         1 RES1    0.0000
     39 H11        5.6722   -0.3791   -1.9320 H         1 RES1    0.0000
     40 C9         5.2329    0.9753   -0.4240 C.3       1 RES1    0.0000
     41 H12        5.5858    0.2471    0.1470 H         1 RES1    0.0000
     42 H13        4.2618    1.0482   -0.2473 H         1 RES1    0.0000
     43 C10        5.9052    2.2930   -0.0009 C.3       1 RES1    0.0000
     44 H14        6.8858    2.2074   -0.1093 H         1 RES1    0.0000
     45 H15        5.5962    3.0204   -0.5968 H         1 RES1    0.0000
     46 C11        5.5914    2.6576    1.4379 C.ar      1 RES1    0.0000
     47 C12        5.8362    1.6999    2.4236 C.ar      1 RES1    0.0000
     48 H16        6.2146    0.8661    2.1668 H         1 RES1    0.0000
     49 C13        5.5493    1.9178    3.7588 C.ar      1 RES1    0.0000
     50 H17        5.7408    1.2436    4.4017 H         1 RES1    0.0000
     51 C14        4.9838    3.1170    4.1612 C.ar      1 RES1    0.0000
     52 H18        4.7638    3.2687    5.0738 H         1 RES1    0.0000
     53 C15        4.7469    4.0847    3.2110 C.ar      1 RES1    0.0000
     54 H19        4.3590    4.9077    3.4823 H         1 RES1    0.0000
     55 C16        5.0584    3.8967    1.8648 C.ar      1 RES1    0.0000
     56 C17        6.5889    6.6050    1.3409 C.2       1 RES1    0.0000
     57 C18        6.9397    7.9141    1.9874 C.ar      1 RES1    0.0000
     58 C19        6.0350    8.5927    2.8124 C.ar      1 RES1    0.0000
     59 H20        5.1783    8.2291    3.0038 H         1 RES1    0.0000
     60 C20        6.4283    9.8089    3.3396 C.ar      1 RES1    0.0000
     61 C21        7.6577   10.3938    3.0762 C.ar      1 RES1    0.0000
     62 H21        7.8902   11.2474    3.4232 H         1 RES1    0.0000
     63 C22        8.5262    9.6692    2.2837 C.ar      1 RES1    0.0000
     64 C23        8.1983    8.4450    1.7406 C.ar      1 RES1    0.0000
     65 H22        8.8251    7.9719    1.2062 H         1 RES1    0.0000
     66 C24        9.7699   12.1866    7.5883 C.3       2 RES2    0.0000
     67 H23        9.3650   12.3517    8.4880 H         2 RES2    0.0000
     68 C25       11.2968   12.0897    7.7222 C.3       2 RES2    0.0000
     69 H24       11.5483   11.2795    8.2335 H         2 RES2    0.0000
     70 H25       11.7196   12.0432    6.8284 H         2 RES2    0.0000
     71 C26       11.7378   13.3216    8.4462 C.2       2 RES2    0.0000
     72 H26       11.5516   13.3703    9.3769 H         2 RES2    0.0000
     73 C27       12.3650   14.3475    7.9026 C.2       2 RES2    0.0000
     74 H27       12.8117   14.2230    7.0739 H         2 RES2    0.0000
     75 C28       12.3973   15.6892    8.5401 C.2       2 RES2    0.0000
     76 C29       11.1677   16.9631   10.1678 C.3       2 RES2    0.0000
     77 H28       11.4844   17.7003    9.5705 H         2 RES2    0.0000
     78 C30       11.6494   17.2182   11.5798 C.3       2 RES2    0.0000
     79 H29       11.3068   16.5184   12.1728 H         2 RES2    0.0000
     80 H30       11.3236   18.0916   11.8825 H         2 RES2    0.0000
     81 H31       12.6288   17.2113   11.5975 H         2 RES2    0.0000
     82 C31        9.6683   16.8257   10.0461 C.3       2 RES2    0.0000
     83 H32        9.2492   17.6825   10.3107 H         2 RES2    0.0000
     84 H33        9.3606   16.1325   10.6835 H         2 RES2    0.0000
     85 C32        9.1800   16.4519    8.6364 C.3       2 RES2    0.0000
     86 H34        9.8915   16.6733    7.9844 H         2 RES2    0.0000
     87 H35        8.3902   17.0068    8.4163 H         2 RES2    0.0000
     88 C33        8.8023   14.9689    8.4683 C.3       2 RES2    0.0000
     89 H36        9.4446   14.4155    8.9808 H         2 RES2    0.0000
     90 H37        7.9041   14.8233    8.8572 H         2 RES2    0.0000
     91 C34        8.7931   14.4989    7.0302 C.ar      2 RES2    0.0000
     92 C35        8.2853   15.3505    6.0398 C.ar      2 RES2    0.0000
     93 H38        7.9167   16.1865    6.2979 H         2 RES2    0.0000
     94 C36        8.3014   15.0155    4.7030 C.ar      2 RES2    0.0000
     95 H39        7.9234   15.6066    4.0630 H         2 RES2    0.0000
     96 C37        8.8639   13.8252    4.2902 C.ar      2 RES2    0.0000
     97 H40        8.9123   13.6077    3.3676 H         2 RES2    0.0000
     98 C38        9.3596   12.9491    5.2512 C.ar      2 RES2    0.0000
     99 H41        9.7519   12.1284    4.9752 H         2 RES2    0.0000
    100 C39        9.2909   13.2505    6.6099 C.ar      2 RES2    0.0000
    101 C40        8.0789   10.5378    7.3214 C.2       2 RES2    0.0000
    102 C41        7.7350    9.2228    6.6814 C.ar      2 RES2    0.0000
    103 C42        8.6217    8.5645    5.8344 C.ar      2 RES2    0.0000
    104 H42        9.4742    8.9360    5.6383 H         2 RES2    0.0000
    105 C43        8.2355    7.3624    5.2887 C.ar      2 RES2    0.0000
    106 C44        7.0063    6.7803    5.5226 C.ar      2 RES2    0.0000
    107 H43        6.7676    5.9441    5.1401 H         2 RES2    0.0000
    108 C45        6.4763    8.6867    6.9268 C.ar      2 RES2    0.0000
    109 H44        5.8582    9.1416    7.4861 H         2 RES2    0.0000
    110 C46        6.1395    7.4784    6.3425 C.ar      2 RES2    0.0000
@<TRIPOS>BOND
     1    1    9 2
     2    2   11 2
     3    3   17 2
     4    4   19 2
     5    5   30 1
     6    6   30 2
     7    7   21 1
     8    8   56 2
     9   10    1 2
    10   12    2 2
    11   13   75 1
    12   14   75 2
    13   15   66 1
    14   16  101 2
    15   18    3 2
    16   20    4 2
    17   21   22 1
    18   23   21 1
    19   24   23 1
    20   25   23 1
    21   26   23 1
    22   27   26 1
    23   28   26 2
    24   29   28 1
    25   30   28 1
    26   31    5 1
    27   32   31 1
    28   33   31 1
    29   34   33 1
    30   35   33 1
    31   36   33 1
    32   37   31 1
    33   38   37 1
    34   39   37 1
    35   40   37 1
    36   41   40 1
    37   42   40 1
    38   43   40 1
    39   44   43 1
    40   45   43 1
    41   46   43 1
    42   47   46 ar
    43   48   47 1
    44   49   47 ar
    45   50   49 1
    46   51   49 ar
    47   52   51 1
    48   53   51 ar
    49   54   53 1
    50   55   21 1
    51   56    7 1
    52   57   56 1
    53   58   57 ar
    54   59   58 1
    55   60    1 1
    56   61   60 ar
    57   62   61 1
    58   63    2 1
    59   64   57 ar
    60   65   64 1
    61   66   67 1
    62   68   66 1
    63   69   68 1
    64   70   68 1
    65   71   68 1
    66   72   71 1
    67   73   71 2
    68   74   73 1
    69   75   73 1
    70   76   13 1
    71   77   76 1
    72   78   76 1
    73   79   78 1
    74   80   78 1
    75   81   78 1
    76   82   76 1
    77   83   82 1
    78   84   82 1
    79   85   82 1
    80   86   85 1
    81   87   85 1
    82   88   85 1
    83   89   88 1
    84   90   88 1
    85   91   88 1
    86   92   91 ar
    87   93   92 1
    88   94   92 ar
    89   95   94 1
    90   96   94 ar
    91   97   96 1
    92   98   96 ar
    93   99   98 1
    94  100   66 1
    95  101   15 1
    96  102  101 1
    97  103  102 ar
    98  104  103 1
    99  105    3 1
   100  106  105 ar
   101  107  106 1
   102  108  102 ar
   103  109  108 1
   104  110    4 1
   105   46   55 ar
   106   53   55 ar
   107   58   60 ar
   108   61   63 ar
   109   63   64 ar
   110   91  100 ar
   111   98  100 ar
   112  103  105 ar
   113  106  110 ar
   114  108  110 ar
@<TRIPOS>SUBSTRUCTURE
     1 RES1 1
     2 RES2 3

@<TRIPOS>CRYSIN
   7.1901   16.9644   18.5261  78.8990  79.3390  83.5730   2 1

