# MOL2 file generated by ConQuest
# Please check atom types

@<TRIPOS>MOLECULE
TIDSAC
    68    70     2
SMALL
NO_CHARGES
****
Generated from CSD

@<TRIPOS>ATOM
      1 O1         6.2778    3.1858   17.0620 O.2       1 RES1    0.0000
      2 O2         8.2561    2.1460   17.2794 O.3       1 RES1    0.0000
      3 O3         7.3723   -0.2596    8.0924 O.2       1 RES1    0.0000
      4 O4         8.7944    0.8219    6.8610 O.2       1 RES1    0.0000
      5 N1         8.9084    3.6970   13.4842 N.pl3     1 RES1    0.0000
      6 N2         7.7496    4.4357   13.4446 N.2       1 RES1    0.0000
      7 N3         7.1280    4.1937   14.5659 N.2       1 RES1    0.0000
      8 N4         9.7325    3.6455   12.3824 N.pl3     1 RES1    0.0000
      9 H1        10.3023    4.3160   12.2697 H         1 RES1    0.0000
     10 N5         8.2228    0.6210    7.9314 N.pl3     1 RES1    0.0000
     11 C1         9.0214    2.9851   14.6313 C.2       1 RES1    0.0000
     12 C2         7.8691    3.3129   15.3115 C.2       1 RES1    0.0000
     13 C3        10.1793    2.1044   14.9264 C.3       1 RES1    0.0000
     14 H2        10.7271    2.5091   15.6304 H         1 RES1    0.0000
     15 H3        10.7195    1.9919   14.1156 H         1 RES1    0.0000
     16 H4         9.8564    1.2297   15.2265 H         1 RES1    0.0000
     17 C4         7.3764    2.8838   16.6243 C.2       1 RES1    0.0000
     18 C5         7.8460    1.7187   18.6183 C.3       1 RES1    0.0000
     19 H5         6.9397    1.3222   18.5903 H         1 RES1    0.0000
     20 H6         7.8325    2.4920   19.2370 H         1 RES1    0.0000
     21 C6         8.8423    0.7027   19.0792 C.3       1 RES1    0.0000
     22 H7         8.8446   -0.0582   18.4618 H         1 RES1    0.0000
     23 H8         8.6012    0.3922   19.9781 H         1 RES1    0.0000
     24 H9         9.7345    1.1064   19.1024 H         1 RES1    0.0000
     25 C7         9.2871    2.9623   11.2608 C.ar      1 RES1    0.0000
     26 C8         8.1706    2.1217   11.3228 C.ar      1 RES1    0.0000
     27 H10        7.6545    2.0724   12.1181 H         1 RES1    0.0000
     28 C9         7.8219    1.3621   10.2227 C.ar      1 RES1    0.0000
     29 H11        7.0754    0.7759   10.2598 H         1 RES1    0.0000
     30 C10        8.5731    1.4676    9.0658 C.ar      1 RES1    0.0000
     31 C11        9.6554    2.3258    8.9710 C.ar      1 RES1    0.0000
     32 H12       10.1437    2.3978    8.1587 H         1 RES1    0.0000
     33 C12       10.0152    3.0762   10.0729 C.ar      1 RES1    0.0000
     34 H13       10.7561    3.6686   10.0247 H         1 RES1    0.0000
     35 O5         2.2286    5.5370   -4.0261 O.2       2 RES2    0.0000
     36 O6         4.1982    6.6309   -3.9381 O.3       2 RES2    0.0000
     37 O7         2.9838    8.0884    6.2467 O.2       2 RES2    0.0000
     38 O8         4.2997    6.6014    7.1202 O.2       2 RES2    0.0000
     39 N6         4.1851    5.3215   -0.0305 N.pl3     2 RES2    0.0000
     40 N7         2.9897    4.6597   -0.0938 N.2       2 RES2    0.0000
     41 N8         2.5272    4.8834   -1.2886 N.2       2 RES2    0.0000
     42 N9         5.0229    5.1814    1.0631 N.pl3     2 RES2    0.0000
     43 H14        5.5545    4.4736    1.0367 H         2 RES2    0.0000
     44 N10        3.7451    7.1221    6.1505 N.pl3     2 RES2    0.0000
     45 C13        4.4908    5.9578   -1.1768 C.2       2 RES2    0.0000
     46 C14        3.4211    5.6535   -1.9862 C.2       2 RES2    0.0000
     47 C15        5.7167    6.7840   -1.3492 C.3       2 RES2    0.0000
     48 H15        6.3420    6.3216   -1.9449 H         2 RES2    0.0000
     49 H16        6.1403    6.9262   -0.4766 H         2 RES2    0.0000
     50 H17        5.4744    7.6506   -1.7391 H         2 RES2    0.0000
     51 C16        3.1950    5.9249   -3.4071 C.2       2 RES2    0.0000
     52 C17        4.1595    6.8782   -5.3832 C.3       2 RES2    0.0000
     53 H18        3.7116    6.1212   -5.8362 H         2 RES2    0.0000
     54 H19        5.0831    6.9433   -5.7326 H         2 RES2    0.0000
     55 C18        3.4173    8.1525   -5.6815 C.3       2 RES2    0.0000
     56 H20        3.8214    8.8906   -5.1802 H         2 RES2    0.0000
     57 H21        2.4780    8.0531   -5.4169 H         2 RES2    0.0000
     58 H22        3.4669    8.3426   -6.6408 H         2 RES2    0.0000
     59 C19        4.6083    5.6219    2.3102 C.ar      2 RES2    0.0000
     60 C20        3.6187    6.6001    2.4679 C.ar      2 RES2    0.0000
     61 H23        3.1484    6.9296    1.7113 H         2 RES2    0.0000
     62 C21        3.3318    7.0789    3.7227 C.ar      2 RES2    0.0000
     63 H24        2.6714    7.7534    3.8356 H         2 RES2    0.0000
     64 C22        4.0086    6.5776    4.8263 C.ar      2 RES2    0.0000
     65 C23        4.9626    5.5870    4.6907 C.ar      2 RES2    0.0000
     66 H25        5.4051    5.2391    5.4556 H         2 RES2    0.0000
     67 C24        5.2636    5.1110    3.4399 C.ar      2 RES2    0.0000
     68 H26        5.9204    4.4325    3.3390 H         2 RES2    0.0000
@<TRIPOS>BOND
     1    1   17 2
     2    2   17 1
     3    3   10 2
     4    4   10 2
     5    5    6 1
     6    6    7 2
     7    7   12 1
     8    8    5 1
     9    9    8 1
    10   10   30 1
    11   11    5 1
    12   12   11 2
    13   13   11 1
    14   14   13 1
    15   15   13 1
    16   16   13 1
    17   17   12 1
    18   18    2 1
    19   19   18 1
    20   20   18 1
    21   21   18 1
    22   22   21 1
    23   23   21 1
    24   24   21 1
    25   25    8 1
    26   26   25 ar
    27   27   26 1
    28   28   26 ar
    29   29   28 1
    30   30   28 ar
    31   31   30 ar
    32   32   31 1
    33   33   25 ar
    34   34   33 1
    35   35   51 2
    36   36   51 1
    37   37   44 2
    38   38   44 2
    39   39   40 1
    40   40   41 2
    41   41   46 1
    42   42   39 1
    43   43   42 1
    44   44   64 1
    45   45   39 1
    46   46   45 2
    47   47   45 1
    48   48   47 1
    49   49   47 1
    50   50   47 1
    51   51   46 1
    52   52   36 1
    53   53   52 1
    54   54   52 1
    55   55   52 1
    56   56   55 1
    57   57   55 1
    58   58   55 1
    59   59   42 1
    60   60   59 ar
    61   61   60 1
    62   62   60 ar
    63   63   62 1
    64   64   62 ar
    65   65   64 ar
    66   66   65 1
    67   67   59 ar
    68   68   67 1
    69   31   33 ar
    70   65   67 ar
@<TRIPOS>SUBSTRUCTURE
     1 RES1 1
     2 RES2 35

@<TRIPOS>CRYSIN
  10.1622   17.1270   15.4870  90.0000  92.4760  90.0000  14 1

