# MOL2 file generated by ConQuest
# Please check atom types

@<TRIPOS>MOLECULE
TIFFEV
    32    34     1
SMALL
NO_CHARGES
****
Generated from CSD

@<TRIPOS>ATOM
      1 C1         5.9797    9.4689    6.4665 C.3       1 RES1    0.0000
      2 H1         5.4360    9.8309    7.1700 H         1 RES1    0.0000
      3 H2         6.2159   10.1673    5.8517 H         1 RES1    0.0000
      4 H3         6.7784    9.0903    6.8425 H         1 RES1    0.0000
      5 O1         2.9997    5.7928    2.7906 O.3       1 RES1    0.0000
      6 N1         5.2344    8.4292    5.7598 N.pl3     1 RES1    0.0000
      7 C2         4.8853    7.2252    6.2844 C.2       1 RES1    0.0000
      8 H4         5.1053    6.9185    7.1346 H         1 RES1    0.0000
      9 N2         2.3449    5.6907    1.5184 N.2       1 RES1    0.0000
     10 N3         1.7032    7.2068   -0.1448 N.3       1 RES1    0.0000
     11 O2         1.2101    7.4976   -2.9192 O.3       1 RES1    0.0000
     12 C3         1.3933    6.0491   -0.9873 C.3       1 RES1    0.0000
     13 H5         0.9096    5.3881   -0.4682 H         1 RES1    0.0000
     14 H6         2.2181    5.6432   -1.2994 H         1 RES1    0.0000
     15 C4         1.4188    8.6375   -2.0945 C.3       1 RES1    0.0000
     16 H7         0.5627    8.9698   -1.7819 H         1 RES1    0.0000
     17 H8         1.8404    9.3389   -2.6155 H         1 RES1    0.0000
     18 C5         2.9547    7.8317    1.9337 C.2       1 RES1    0.0000
     19 H9         3.0715    8.7455    1.8067 H         1 RES1    0.0000
     20 C6         3.3488    7.0971    2.9879 C.2       1 RES1    0.0000
     21 C7         2.3234    6.9137    1.0582 C.2       1 RES1    0.0000
     22 C8         0.5636    6.4722   -2.1661 C.3       1 RES1    0.0000
     23 H10        0.4034    5.7055   -2.7384 H         1 RES1    0.0000
     24 H11       -0.2957    6.7968   -1.8540 H         1 RES1    0.0000
     25 C9         4.0583    7.3748    4.2164 C.2       1 RES1    0.0000
     26 C10        2.2857    8.3058   -0.9128 C.3       1 RES1    0.0000
     27 H12        3.1712    8.0542   -1.2190 H         1 RES1    0.0000
     28 H13        2.3745    9.0873   -0.3453 H         1 RES1    0.0000
     29 C11        4.7332    8.5367    4.5088 C.2       1 RES1    0.0000
     30 H14        4.8279    9.2695    3.9445 H         1 RES1    0.0000
     31 C12        4.1653    6.5464    5.3607 C.2       1 RES1    0.0000
     32 H15        3.8061    5.6943    5.4591 H         1 RES1    0.0000
@<TRIPOS>BOND
     1    1    2 1
     2    3    1 1
     3    4    1 1
     4    5    9 1
     5    6    1 1
     6    7    6 1
     7    8    7 1
     8    9   21 2
     9   10   12 1
    10   11   15 1
    11   12   13 1
    12   14   12 1
    13   15   16 1
    14   17   15 1
    15   18   19 1
    16   20    5 1
    17   21   10 1
    18   22   11 1
    19   23   22 1
    20   24   22 1
    21   25   20 1
    22   26   10 1
    23   27   26 1
    24   28   26 1
    25   29    6 1
    26   30   29 1
    27   31    7 2
    28   32   31 1
    29   12   22 1
    30   15   26 1
    31   18   20 2
    32   18   21 1
    33   25   29 2
    34   25   31 1
@<TRIPOS>SUBSTRUCTURE
     1 RES1 1

@<TRIPOS>CRYSIN
   8.2130    5.9340   11.9920  90.0000  99.6040  90.0000   4 1

