# MOL2 file generated by ConQuest
# Please check atom types

@<TRIPOS>MOLECULE
TIFGUL
    39    42     1
SMALL
NO_CHARGES
****
Generated from CSD

@<TRIPOS>ATOM
      1 O1        -0.0640   14.3363    4.9298 O.3       1 RES1    0.0000
      2 O2         5.5620   15.1026    4.4303 O.3       1 RES1    0.0000
      3 N1         0.9710   14.0745    4.0009 N.2       1 RES1    0.0000
      4 N2         4.2812   15.7344    4.2611 N.2       1 RES1    0.0000
      5 C1         3.8007   15.2852    3.1786 C.2       1 RES1    0.0000
      6 C2         1.3356   15.2516    3.5744 C.2       1 RES1    0.0000
      7 C3         2.4214   15.4510    2.5597 C.3       1 RES1    0.0000
      8 C4         0.5922   16.3037    4.1695 C.2       1 RES1    0.0000
      9 C5         4.6113   14.2523    2.4745 C.3       1 RES1    0.0000
     10 C6        -0.2590   15.6792    4.9959 C.2       1 RES1    0.0000
     11 C7         2.0649   17.9204    3.0047 C.3       1 RES1    0.0000
     12 C8         2.4560   14.3195    1.4824 C.3       1 RES1    0.0000
     13 C9         5.6189   13.9063    3.5570 C.3       1 RES1    0.0000
     14 C10        3.5133   13.3154    1.9576 C.3       1 RES1    0.0000
     15 C11        0.7831   17.7451    3.8166 C.3       1 RES1    0.0000
     16 C12        2.2356   16.8514    1.9454 C.3       1 RES1    0.0000
     17 C13        5.2146   12.7172    4.3961 C.3       1 RES1    0.0000
     18 C14       -1.3082   16.1596    5.9289 C.3       1 RES1    0.0000
     19 C15        7.0490   13.8006    3.0609 C.3       1 RES1    0.0000
     20 H1         5.0348   14.6462    1.6707 H         1 RES1    0.0000
     21 H2         3.7865   12.6740    1.2749 H         1 RES1    0.0000
     22 H3         3.1527   12.7677    2.7717 H         1 RES1    0.0000
     23 H4         1.5398   13.8919    1.3920 H         1 RES1    0.0000
     24 H5         2.7241   14.7903    0.6340 H         1 RES1    0.0000
     25 H6         3.0562   17.0893    1.3896 H         1 RES1    0.0000
     26 H7         1.4118   16.8202    1.3896 H         1 RES1    0.0000
     27 H8         2.0558   18.7900    2.5950 H         1 RES1    0.0000
     28 H9         2.7993   17.8772    3.6613 H         1 RES1    0.0000
     29 H10        0.0112   18.0141    3.1994 H         1 RES1    0.0000
     30 H11        0.7455   18.2735    4.7316 H         1 RES1    0.0000
     31 H12       -2.1492   15.9194    5.6924 H         1 RES1    0.0000
     32 H13       -1.1416   15.7656    6.8045 H         1 RES1    0.0000
     33 H14       -1.3021   17.1877    5.9364 H         1 RES1    0.0000
     34 H15        7.3344   14.5958    2.6135 H         1 RES1    0.0000
     35 H16        7.6635   13.6325    3.7540 H         1 RES1    0.0000
     36 H17        7.0794   13.0415    2.3875 H         1 RES1    0.0000
     37 H18        5.8321   12.6284    5.1900 H         1 RES1    0.0000
     38 H19        5.2745   11.8693    3.8230 H         1 RES1    0.0000
     39 H20        4.2182   12.8566    4.6731 H         1 RES1    0.0000
@<TRIPOS>BOND
     1    1    3 1
     2    2    4 1
     3    3    6 2
     4    4    5 2
     5    5    7 1
     6    6    7 1
     7    7   12 1
     8    8    6 1
     9    9    5 1
    10   10    1 1
    11   11   15 1
    12   12   14 1
    13   13    2 1
    14   14    9 1
    15   15    8 1
    16   16    7 1
    17   17   13 1
    18   18   10 1
    19   19   13 1
    20   20    9 1
    21   21   14 1
    22   22   14 1
    23   23   12 1
    24   24   12 1
    25   25   16 1
    26   26   16 1
    27   27   11 1
    28   28   11 1
    29   29   15 1
    30   30   15 1
    31   31   18 1
    32   32   18 1
    33   33   18 1
    34   34   19 1
    35   35   19 1
    36   36   19 1
    37   37   17 1
    38   38   17 1
    39   39   17 1
    40    8   10 2
    41    9   13 1
    42   11   16 1
@<TRIPOS>SUBSTRUCTURE
     1 RES1 1

@<TRIPOS>CRYSIN
  10.1570   24.0220    5.7950  90.0000  90.0000  90.0000  19 1

