# MOL2 file generated by ConQuest
# Please check atom types

@<TRIPOS>MOLECULE
TIFHAS
    53    54     1
SMALL
NO_CHARGES
****
Generated from CSD

@<TRIPOS>ATOM
      1 O1         1.3809    1.1617    3.2412 O.3       1 RES1    0.0000
      2 O2         0.4178    2.6863    1.9115 O.2       1 RES1    0.0000
      3 O3         2.3792   -1.2526   -3.3956 O.2       1 RES1    0.0000
      4 O4         3.1306   -2.7212   -2.0266 O.2       1 RES1    0.0000
      5 N1         2.6157   -1.6485   -2.2678 N.pl3     1 RES1    0.0000
      6 C1         1.8928    3.0777    4.6665 C.3       1 RES1    0.0000
      7 H1         1.7992    3.7018    3.9425 H         1 RES1    0.0000
      8 H2         2.7992    2.7632    4.7014 H         1 RES1    0.0000
      9 H3         1.6709    3.5118    5.4951 H         1 RES1    0.0000
     10 C2         0.9581    1.9033    4.4441 C.3       1 RES1    0.0000
     11 H4         0.0010    2.0400    4.3961 H         1 RES1    0.0000
     12 C3         0.9587    0.8528    5.5387 C.2       1 RES1    0.0000
     13 C4        -0.1787    0.6304    6.1667 C.2       1 RES1    0.0000
     14 H5        -1.0503    0.9850    5.8484 H         1 RES1    0.0000
     15 C5        -0.4554   -0.3552    7.2788 C.3       1 RES1    0.0000
     16 H6         0.2475   -1.1185    7.3617 H         1 RES1    0.0000
     17 C6        -1.6384   -1.2456    6.9430 C.2       1 RES1    0.0000
     18 C7        -2.5295   -1.5633    7.8022 C.2       1 RES1    0.0000
     19 H7        -3.2423   -2.0806    7.4925 H         1 RES1    0.0000
     20 C8        -2.5511   -1.2011    9.1978 C.3       1 RES1    0.0000
     21 H8        -2.8765   -1.9484    9.7298 H         1 RES1    0.0000
     22 H9        -3.1457   -0.4480    9.3373 H         1 RES1    0.0000
     23 C9        -1.0415   -0.8198    9.6383 C.3       1 RES1    0.0000
     24 H10       -1.0354   -0.5128   10.5585 H         1 RES1    0.0000
     25 H11       -0.4718   -1.6008    9.5772 H         1 RES1    0.0000
     26 C10       -0.4698    0.3368    8.6875 C.3       1 RES1    0.0000
     27 C11        0.8290    0.8643    9.0844 C.3       1 RES1    0.0000
     28 H12        1.1788    1.4210    8.3822 H         1 RES1    0.0000
     29 H13        1.4351    0.1392    9.2501 H         1 RES1    0.0000
     30 H14        0.7316    1.3873    9.8868 H         1 RES1    0.0000
     31 C12       -1.6230    1.3536    8.7180 C.3       1 RES1    0.0000
     32 H15       -1.3944    2.1060    8.1685 H         1 RES1    0.0000
     33 H16       -1.7655    1.6440    9.6208 H         1 RES1    0.0000
     34 H17       -2.4195    0.9393    8.3822 H         1 RES1    0.0000
     35 C13       -1.7315   -1.7591    5.5213 C.3       1 RES1    0.0000
     36 H18       -2.5239   -2.2916    5.4210 H         1 RES1    0.0000
     37 H19       -0.9598   -2.2942    5.3207 H         1 RES1    0.0000
     38 H20       -1.7695   -1.0155    4.9151 H         1 RES1    0.0000
     39 C14        2.2615    0.2332    5.8309 C.3       1 RES1    0.0000
     40 H21        2.1540   -0.4271    6.5200 H         1 RES1    0.0000
     41 H22        2.8764    0.9081    6.1275 H         1 RES1    0.0000
     42 H23        2.6033   -0.1843    5.0372 H         1 RES1    0.0000
     43 C15        1.0345    1.6796    2.0628 C.2       1 RES1    0.0000
     44 C16        1.4768    0.7817    0.9464 C.ar      1 RES1    0.0000
     45 C17        2.0002   -0.4919    1.1727 C.ar      1 RES1    0.0000
     46 H24        2.0968   -0.8020    2.0454 H         1 RES1    0.0000
     47 C18        2.3705   -1.2812    0.1308 C.ar      1 RES1    0.0000
     48 H25        2.7215   -2.1289    0.2835 H         1 RES1    0.0000
     49 C19        2.2187   -0.8077   -1.1339 C.ar      1 RES1    0.0000
     50 C20        1.7182    0.4251   -1.4218 C.ar      1 RES1    0.0000
     51 H26        1.6363    0.7175   -2.3027 H         1 RES1    0.0000
     52 C21        1.3366    1.2265   -0.3663 C.ar      1 RES1    0.0000
     53 H27        0.9828    2.0705   -0.5321 H         1 RES1    0.0000
@<TRIPOS>BOND
     1    1   10 1
     2    2   43 2
     3    3    5 2
     4    4    5 2
     5    5   49 1
     6    6    7 1
     7    8    6 1
     8    9    6 1
     9   10    6 1
    10   11   10 1
    11   12   10 1
    12   13   12 2
    13   14   13 1
    14   15   13 1
    15   16   15 1
    16   17   15 1
    17   18   17 2
    18   19   18 1
    19   20   18 1
    20   21   20 1
    21   22   20 1
    22   23   20 1
    23   24   23 1
    24   25   23 1
    25   26   15 1
    26   27   26 1
    27   28   27 1
    28   29   27 1
    29   30   27 1
    30   31   26 1
    31   32   31 1
    32   33   31 1
    33   34   31 1
    34   35   17 1
    35   36   35 1
    36   37   35 1
    37   38   35 1
    38   39   12 1
    39   40   39 1
    40   41   39 1
    41   42   39 1
    42   43    1 1
    43   44   43 1
    44   45   44 ar
    45   46   45 1
    46   47   45 ar
    47   48   47 1
    48   49   47 ar
    49   50   49 ar
    50   51   50 1
    51   52   44 ar
    52   53   52 1
    53   23   26 1
    54   50   52 ar
@<TRIPOS>SUBSTRUCTURE
     1 RES1 1

@<TRIPOS>CRYSIN
   7.3780    6.3550   43.7300  90.0000  94.2100  90.0000 231 1

