# MOL2 file generated by ConQuest
# Please check atom types

@<TRIPOS>MOLECULE
TIFHEW
    53    54     1
SMALL
NO_CHARGES
****
Generated from CSD

@<TRIPOS>ATOM
      1 O1         5.5752    1.5857    2.0507 O.3       1 RES1    0.0000
      2 O2         6.7876    0.1917    0.8247 O.2       1 RES1    0.0000
      3 O3        10.6852    5.6281   -0.8572 O.2       1 RES1    0.0000
      4 O4        10.0025    6.6505    0.9014 O.2       1 RES1    0.0000
      5 N1        10.0263    5.6865    0.1691 N.pl3     1 RES1    0.0000
      6 C1         2.1407    0.3037    2.7758 C.3       1 RES1    0.0000
      7 H1         1.2974    0.8263    2.9485 H         1 RES1    0.0000
      8 H2         2.3351   -0.2912    3.5649 H         1 RES1    0.0000
      9 H3         2.0220   -0.2617    1.9499 H         1 RES1    0.0000
     10 C2         3.2908    1.2579    2.5699 C.3       1 RES1    0.0000
     11 H4         3.4618    1.7352    3.3721 H         1 RES1    0.0000
     12 H5         3.0954    1.8186    1.7748 H         1 RES1    0.0000
     13 C3         4.5987    0.5246    2.3265 C.3       1 RES1    0.0000
     14 H6         4.5429   -0.0169    1.5299 H         1 RES1    0.0000
     15 C4         5.0850   -0.2601    3.4941 C.2       1 RES1    0.0000
     16 H7         5.2480    0.2282    4.2950 H         1 RES1    0.0000
     17 C5         5.3120   -1.5572    3.5003 C.2       1 RES1    0.0000
     18 H8         5.1988   -2.0375    2.7095 H         1 RES1    0.0000
     19 C6         5.8115   -2.3432    4.6765 C.3       1 RES1    0.0000
     20 H9         5.9295   -1.7369    5.4178 H         1 RES1    0.0000
     21 C7         4.8570   -3.4668    5.1524 C.3       1 RES1    0.0000
     22 C8         5.0546   -4.6996    4.2275 C.3       1 RES1    0.0000
     23 H10        4.4678   -5.3378    4.4370 H         1 RES1    0.0000
     24 H11        4.7770   -4.4000    3.2419 H         1 RES1    0.0000
     25 C9         6.4676   -5.2398    4.2559 C.3       1 RES1    0.0000
     26 H12        6.6299   -5.8309    5.0759 H         1 RES1    0.0000
     27 H13        6.6985   -5.8707    3.4194 H         1 RES1    0.0000
     28 C10        7.4699   -4.1510    4.1944 C.2       1 RES1    0.0000
     29 H14        8.4804   -4.4472    4.0938 H         1 RES1    0.0000
     30 C11        7.2022   -2.8720    4.3643 C.2       1 RES1    0.0000
     31 C12        3.4185   -3.0050    5.0924 C.3       1 RES1    0.0000
     32 H15        3.2953   -2.2065    5.7006 H         1 RES1    0.0000
     33 H16        2.8106   -3.7550    5.3930 H         1 RES1    0.0000
     34 H17        3.1873   -2.7440    4.1435 H         1 RES1    0.0000
     35 C13        5.2106   -3.8249    6.5939 C.3       1 RES1    0.0000
     36 H18        5.0808   -3.0359    7.1689 H         1 RES1    0.0000
     37 H19        6.1503   -4.1140    6.6389 H         1 RES1    0.0000
     38 H20        4.6276   -4.5558    6.9027 H         1 RES1    0.0000
     39 C14        8.2790   -1.8320    4.2346 C.3       1 RES1    0.0000
     40 H21        9.1610   -2.2845    4.0181 H         1 RES1    0.0000
     41 H22        8.3647   -1.3244    5.1090 H         1 RES1    0.0000
     42 H23        8.0373   -1.1870    3.4904 H         1 RES1    0.0000
     43 C15        6.6107    1.2781    1.2803 C.2       1 RES1    0.0000
     44 C16        7.5198    2.4349    1.0616 C.ar      1 RES1    0.0000
     45 C17        8.5057    2.3158    0.0911 C.ar      1 RES1    0.0000
     46 H24        8.5903    1.6328   -0.3041 H         1 RES1    0.0000
     47 C18        9.3361    3.3727   -0.1952 C.ar      1 RES1    0.0000
     48 H25       10.0378    3.2966   -0.9111 H         1 RES1    0.0000
     49 C19        9.1871    4.5262    0.5127 C.ar      1 RES1    0.0000
     50 C20        8.2510    4.6662    1.5198 C.ar      1 RES1    0.0000
     51 H26        8.1924    5.4278    1.9925 H         1 RES1    0.0000
     52 C21        7.4037    3.5992    1.7776 C.ar      1 RES1    0.0000
     53 H27        6.7178    3.6772    2.4752 H         1 RES1    0.0000
@<TRIPOS>BOND
     1    1   13 1
     2    2   43 2
     3    3    5 2
     4    4    5 2
     5    5   49 1
     6    6    7 1
     7    8    6 1
     8    9    6 1
     9   10    6 1
    10   11   10 1
    11   12   10 1
    12   13   10 1
    13   14   13 1
    14   15   13 1
    15   16   15 1
    16   17   15 2
    17   18   17 1
    18   19   17 1
    19   20   19 1
    20   21   19 1
    21   22   21 1
    22   23   22 1
    23   24   22 1
    24   25   22 1
    25   26   25 1
    26   27   25 1
    27   28   25 1
    28   29   28 1
    29   30   19 1
    30   31   21 1
    31   32   31 1
    32   33   31 1
    33   34   31 1
    34   35   21 1
    35   36   35 1
    36   37   35 1
    37   38   35 1
    38   39   30 1
    39   40   39 1
    40   41   39 1
    41   42   39 1
    42   43    1 1
    43   44   43 1
    44   45   44 ar
    45   46   45 1
    46   47   45 ar
    47   48   47 1
    48   49   47 ar
    49   50   49 ar
    50   51   50 1
    51   52   44 ar
    52   53   52 1
    53   28   30 2
    54   50   52 ar
@<TRIPOS>SUBSTRUCTURE
     1 RES1 1

@<TRIPOS>CRYSIN
   8.5380   10.2120   12.6030  91.0750 109.3190 103.0310   2 1

