# MOL2 file generated by ConQuest
# Please check atom types

@<TRIPOS>MOLECULE
TIFKID
    44    47     1
SMALL
NO_CHARGES
****
Generated from CSD

@<TRIPOS>ATOM
      1 C1        -0.0399    2.4502    7.7702 C.2       1 RES1    0.0000
      2 C2         0.0616    3.2052    6.4721 C.3       1 RES1    0.0000
      3 C3         0.9306    4.4442    6.4643 C.3       1 RES1    0.0000
      4 C4         1.3525    4.8938    7.8383 C.3       1 RES1    0.0000
      5 C5         1.8140    3.7290    8.6326 C.3       1 RES1    0.0000
      6 C6         2.2352    4.0947   10.0419 C.3       1 RES1    0.0000
      7 C7         1.4551    5.9065   11.3570 C.2       1 RES1    0.0000
      8 C8         0.2445    6.5588   11.8909 C.3       1 RES1    0.0000
      9 H1         0.0777    6.2426   12.7820 H         1 RES1    0.0000
     10 H2        -0.5061    6.3476   11.3308 H         1 RES1    0.0000
     11 H3         0.3734    7.5100   11.9079 H         1 RES1    0.0000
     12 C9         0.6935    2.3156    5.3756 C.3       1 RES1    0.0000
     13 C10       -0.2744    1.9614    4.2816 C.3       1 RES1    0.0000
     14 C11       -0.2992    3.1593    3.3565 C.3       1 RES1    0.0000
     15 C12        1.0388    3.8443    3.5868 C.3       1 RES1    0.0000
     16 C13       -0.2098    1.2082    2.1133 C.3       1 RES1    0.0000
     17 C14       -1.4940    0.4786    1.8673 C.3       1 RES1    0.0000
     18 C15        0.8663    0.8395    1.1398 C.3       1 RES1    0.0000
     19 N1         1.7083    3.1430    4.7187 N.3       1 RES1    0.0000
     20 O1         0.7463    2.7351    8.7909 O.3       1 RES1    0.0000
     21 O2        -0.8508    1.5631    7.9050 O.2       1 RES1    0.0000
     22 O3         2.1087    4.0815    5.7354 O.3       1 RES1    0.0000
     23 O4         1.1642    4.7936   10.6870 O.3       1 RES1    0.0000
     24 O5         2.5485    6.2680   11.5337 O.2       1 RES1    0.0000
     25 O6         0.2723    0.9523    3.4520 O.3       1 RES1    0.0000
     26 O7        -0.4383    2.6156    2.0662 O.3       1 RES1    0.0000
     27 H4        -0.8071    3.3675    6.1764 H         1 RES1    0.0000
     28 H5         0.4865    5.1660    6.0063 H         1 RES1    0.0000
     29 H6         2.1151    5.5100    7.7859 H         1 RES1    0.0000
     30 H7         0.6127    5.3530    8.2832 H         1 RES1    0.0000
     31 H8         2.5937    3.3132    8.2047 H         1 RES1    0.0000
     32 H9         2.3790    3.2348   10.5339 H         1 RES1    0.0000
     33 H10        3.0168    4.6832   10.0498 H         1 RES1    0.0000
     34 H11        1.0065    1.5027    5.7708 H         1 RES1    0.0000
     35 H12       -1.0898    1.6898    4.5407 H         1 RES1    0.0000
     36 H13       -0.9451    3.7779    3.5462 H         1 RES1    0.0000
     37 H14        1.6125    3.7538    2.7742 H         1 RES1    0.0000
     38 H15        0.9154    4.7013    3.8341 H         1 RES1    0.0000
     39 H16       -2.1723    0.8268    2.5386 H         1 RES1    0.0000
     40 H17       -1.4644   -0.5431    1.8712 H         1 RES1    0.0000
     41 H18       -1.8495    0.6759    1.1123 H         1 RES1    0.0000
     42 H19        1.0509   -0.0966    1.3609 H         1 RES1    0.0000
     43 H20        0.5299    0.8208    0.1963 H         1 RES1    0.0000
     44 H21        1.7014    1.4786    1.1908 H         1 RES1    0.0000
@<TRIPOS>BOND
     1    1    2 1
     2    2    3 1
     3    3    4 1
     4    4    5 1
     5    5    6 1
     6    6   23 1
     7    7    8 1
     8    8    9 1
     9   10    8 1
    10   11    8 1
    11   12    2 1
    12   13   12 1
    13   14   13 1
    14   15   14 1
    15   16   17 1
    16   17   39 1
    17   18   16 1
    18   19   12 1
    19   20    1 1
    20   21    1 2
    21   22    3 1
    22   23    7 1
    23   24    7 2
    24   25   13 1
    25   26   14 1
    26   27    2 1
    27   28    3 1
    28   29    4 1
    29   30    4 1
    30   31    5 1
    31   32    6 1
    32   33    6 1
    33   34   12 1
    34   35   13 1
    35   36   14 1
    36   37   15 1
    37   38   15 1
    38   40   17 1
    39   41   17 1
    40   42   18 1
    41   43   18 1
    42   44   18 1
    43    5   20 1
    44   15   19 1
    45   16   25 1
    46   16   26 1
    47   19   22 1
@<TRIPOS>SUBSTRUCTURE
     1 RES1 1

@<TRIPOS>CRYSIN
   9.8960    6.0350   13.5710  90.0000 105.3700  90.0000   4 1

