# MOL2 file generated by ConQuest
# Please check atom types

@<TRIPOS>MOLECULE
TIFSAC
    47    49     1
SMALL
NO_CHARGES
****
Generated from CSD

@<TRIPOS>ATOM
      1 O1         2.5217    2.5054    0.2237 O.3       1 RES1    0.0000
      2 O2         5.9437    7.3217    3.8028 O.2       1 RES1    0.0000
      3 C1         1.8344    1.6437   -0.5440 C.2       1 RES1    0.0000
      4 C2        -0.0000   -0.0000   -0.4863 C.ar      1 RES1    0.0000
      5 N1         6.3300    7.0776    2.6647 N.pl3     1 RES1    0.0000
      6 O3         7.2709    7.6617    2.1270 O.2       1 RES1    0.0000
      7 C3         0.8600    0.8243    0.2131 C.ar      1 RES1    0.0000
      8 C4         3.5355    3.2358   -0.5014 C.3       1 RES1    0.0000
      9 H1         3.1189    3.7450   -1.2145 H         1 RES1    0.0000
     10 H2         4.1596    2.6109   -0.9018 H         1 RES1    0.0000
     11 O4         2.0264    1.5284   -1.7272 O.2       1 RES1    0.0000
     12 C5         5.6385    6.0350    1.8901 C.ar      1 RES1    0.0000
     13 C6         4.2780    4.1686    0.4130 C.ar      1 RES1    0.0000
     14 C7         5.3941    4.8051   -0.1078 C.ar      1 RES1    0.0000
     15 H3         5.6763    4.5955   -0.9683 H         1 RES1    0.0000
     16 N2         0.0000    0.0000    2.3025 N.ar      1 RES1    0.0000
     17 C8         6.0917    5.7413    0.6236 C.ar      1 RES1    0.0000
     18 H4         6.8452    6.1609    0.2732 H         1 RES1    0.0000
     19 C9         3.8758    4.4589    1.7071 C.ar      1 RES1    0.0000
     20 H5         3.1464    4.0125    2.0763 H         1 RES1    0.0000
     21 C10        0.7971    0.8092    1.5956 C.ar      1 RES1    0.0000
     22 C11        4.5511    5.4096    2.4548 C.ar      1 RES1    0.0000
     23 H6         4.2756    5.6202    3.3184 H         1 RES1    0.0000
     24 H7        -0.0000   -0.0000   -1.4101 H         1 RES1    0.0000
     25 H8         1.3855    1.4054    2.0869 H         1 RES1    0.0000
     26 C3A       -0.8600   -0.8243    0.2131 C.ar      1 RES1    0.0000
     27 C1A       -1.8344   -1.6437   -0.5440 C.2       1 RES1    0.0000
     28 O1A       -2.5217   -2.5054    0.2237 O.3       1 RES1    0.0000
     29 C4A       -3.5355   -3.2358   -0.5014 C.3       1 RES1    0.0000
     30 H1A       -3.1189   -3.7450   -1.2145 H         1 RES1    0.0000
     31 H2A       -4.1596   -2.6109   -0.9018 H         1 RES1    0.0000
     32 C6A       -4.2780   -4.1686    0.4130 C.ar      1 RES1    0.0000
     33 C7A       -5.3941   -4.8051   -0.1078 C.ar      1 RES1    0.0000
     34 H3A       -5.6763   -4.5955   -0.9683 H         1 RES1    0.0000
     35 C8A       -6.0917   -5.7413    0.6236 C.ar      1 RES1    0.0000
     36 C5A       -5.6385   -6.0350    1.8901 C.ar      1 RES1    0.0000
     37 N1A       -6.3300   -7.0776    2.6647 N.pl3     1 RES1    0.0000
     38 O2A       -5.9437   -7.3217    3.8028 O.2       1 RES1    0.0000
     39 O3A       -7.2709   -7.6617    2.1270 O.2       1 RES1    0.0000
     40 C11A      -4.5511   -5.4096    2.4548 C.ar      1 RES1    0.0000
     41 C9A       -3.8758   -4.4589    1.7071 C.ar      1 RES1    0.0000
     42 H5A       -3.1464   -4.0125    2.0763 H         1 RES1    0.0000
     43 H6A       -4.2756   -5.6202    3.3184 H         1 RES1    0.0000
     44 H4A       -6.8452   -6.1609    0.2732 H         1 RES1    0.0000
     45 O4A       -2.0264   -1.5284   -1.7272 O.2       1 RES1    0.0000
     46 C10A      -0.7971   -0.8092    1.5956 C.ar      1 RES1    0.0000
     47 H8A       -1.3855   -1.4054    2.0869 H         1 RES1    0.0000
@<TRIPOS>BOND
     1    1    3 1
     2    2    5 2
     3    3    7 1
     4    4    7 ar
     5    5    6 2
     6    7   21 ar
     7    8    1 1
     8    9    8 1
     9   10    8 1
    10   11    3 2
    11   12    5 1
    12   13    8 1
    13   14   13 ar
    14   15   14 1
    15   16   21 ar
    16   17   12 ar
    17   18   17 1
    18   19   13 ar
    19   20   19 1
    20   21   25 1
    21   22   12 ar
    22   23   22 1
    23   24    4 1
    24   26    4 ar
    25   27   26 1
    26   28   27 1
    27   29   28 1
    28   30   29 1
    29   31   29 1
    30   32   29 1
    31   33   32 ar
    32   34   33 1
    33   35   33 ar
    34   36   35 ar
    35   37   36 1
    36   38   37 2
    37   39   37 2
    38   40   36 ar
    39   41   32 ar
    40   42   41 1
    41   43   40 1
    42   44   35 1
    43   45   27 2
    44   46   16 ar
    45   47   46 1
    46   14   17 ar
    47   19   22 ar
    48   26   46 ar
    49   40   41 ar
@<TRIPOS>SUBSTRUCTURE
     1 RES1 1

@<TRIPOS>CRYSIN
  30.5180    4.8630    6.2670  90.0000  90.0000  90.0000  18 1

