# MOL2 file generated by ConQuest
# Please check atom types

@<TRIPOS>MOLECULE
TIFTUY
   148   150     2
SMALL
NO_CHARGES
****
Generated from CSD

@<TRIPOS>ATOM
      1 N1         5.7603    8.3205   17.6724 N.pl3     1 RES1    0.0000
      2 N2         7.2514   15.4530   16.8892 N.pl3     1 RES1    0.0000
      3 O1         5.5083    7.1391   17.5099 O.2       1 RES1    0.0000
      4 O2         5.9579    8.8356   18.7451 O.2       1 RES1    0.0000
      5 O3         6.6064   12.7732   13.1247 O.2       1 RES1    0.0000
      6 O4         5.5296   11.1483   11.9977 O.3       1 RES1    0.0000
      7 O5         6.2258   18.2716   11.2951 O.3       1 RES1    0.0000
      8 O6         6.9726   20.0334   12.4127 O.2       1 RES1    0.0000
      9 O7         6.8701   14.2924   16.8412 O.2       1 RES1    0.0000
     10 O8         7.7981   15.9266   17.9046 O.2       1 RES1    0.0000
     11 C1         6.0119   10.7641   14.2593 C.ar      1 RES1    0.0000
     12 C2         5.6328    9.4443   14.1185 C.ar      1 RES1    0.0000
     13 H1         5.4355    9.0966   13.2779 H         1 RES1    0.0000
     14 C3         5.5485    8.6367   15.2593 C.ar      1 RES1    0.0000
     15 H2         5.2963    7.7434   15.1896 H         1 RES1    0.0000
     16 C4         5.8449    9.1851   16.4852 C.ar      1 RES1    0.0000
     17 C5         6.2286   10.4766   16.6354 C.ar      1 RES1    0.0000
     18 H3         6.4250   10.8172   17.4790 H         1 RES1    0.0000
     19 C6         6.3247   11.2806   15.5085 C.ar      1 RES1    0.0000
     20 H4         6.5987   12.1651   15.5890 H         1 RES1    0.0000
     21 C7         6.1033   11.6809   13.0906 C.2       1 RES1    0.0000
     22 C8         5.5032   11.9956   10.7905 C.3       1 RES1    0.0000
     23 H5         5.4477   12.9354   11.0629 H         1 RES1    0.0000
     24 C9         6.7876   11.7842   10.0103 C.3       1 RES1    0.0000
     25 H6         7.5349   11.9317   10.6264 H         1 RES1    0.0000
     26 C10        6.9219   12.7945    8.8788 C.3       1 RES1    0.0000
     27 H7         6.1898   12.6537    8.2581 H         1 RES1    0.0000
     28 H8         7.7461   12.6078    8.4020 H         1 RES1    0.0000
     29 C11        6.9290   14.2828    9.2890 C.3       1 RES1    0.0000
     30 H9         6.0873   14.4629    9.7580 H         1 RES1    0.0000
     31 C12        6.9548   15.1615    8.0445 C.3       1 RES1    0.0000
     32 H10        6.2554   14.8574    7.4439 H         1 RES1    0.0000
     33 H11        7.8027   15.0241    7.5940 H         1 RES1    0.0000
     34 C13        6.7699   16.6747    8.2751 C.3       1 RES1    0.0000
     35 H12        7.4515   16.9732    8.9128 H         1 RES1    0.0000
     36 C14        5.3819   16.9703    8.8788 C.3       1 RES1    0.0000
     37 H13        4.7125   16.6398    8.2596 H         1 RES1    0.0000
     38 H14        5.2979   16.4548    9.6961 H         1 RES1    0.0000
     39 C15        5.0436   18.4116    9.2023 C.3       1 RES1    0.0000
     40 H15        5.0406   18.9040    8.3556 H         1 RES1    0.0000
     41 C16        6.0565   19.0779   10.0954 C.3       1 RES1    0.0000
     42 H16        6.9035   19.1615    9.6311 H         1 RES1    0.0000
     43 H17        5.7518   19.9678   10.3354 H         1 RES1    0.0000
     44 C17        6.7248   18.8526   12.3863 C.2       1 RES1    0.0000
     45 C18        4.2134   11.6102   10.0815 C.3       1 RES1    0.0000
     46 H18        3.4672   11.7851   10.6604 H         1 RES1    0.0000
     47 H19        4.2363   10.6766    9.8617 H         1 RES1    0.0000
     48 H20        4.1238   12.1262    9.2782 H         1 RES1    0.0000
     49 C19        6.9139   10.3409    9.4577 C.3       1 RES1    0.0000
     50 H21        7.7392   10.2541    8.9748 H         1 RES1    0.0000
     51 H22        6.1781   10.1576    8.8695 H         1 RES1    0.0000
     52 H23        6.9038    9.7172   10.1883 H         1 RES1    0.0000
     53 C20        8.0542   14.5992   10.2425 C.3       1 RES1    0.0000
     54 H24        8.0073   15.5240   10.4979 H         1 RES1    0.0000
     55 H25        8.8952   14.4288    9.8122 H         1 RES1    0.0000
     56 H26        7.9767   14.0477   11.0242 H         1 RES1    0.0000
     57 C21        6.9847   17.4350    6.9501 C.3       1 RES1    0.0000
     58 H27        6.8867   18.3779    7.1018 H         1 RES1    0.0000
     59 H28        6.3340   17.1454    6.3062 H         1 RES1    0.0000
     60 H29        7.8666   17.2536    6.6158 H         1 RES1    0.0000
     61 C22        3.6414   18.5075    9.7766 C.3       1 RES1    0.0000
     62 H30        3.0236   18.0675    9.1884 H         1 RES1    0.0000
     63 H31        3.3951   19.4323    9.8679 H         1 RES1    0.0000
     64 H32        3.6189   18.0853   10.6388 H         1 RES1    0.0000
     65 C23        6.8582   17.9535   13.5303 C.ar      1 RES1    0.0000
     66 C24        6.7157   16.5647   13.4111 C.ar      1 RES1    0.0000
     67 H33        6.5273   16.1920   12.5814 H         1 RES1    0.0000
     68 C25        6.8519   15.7497   14.5039 C.ar      1 RES1    0.0000
     69 H34        6.7613   14.8272   14.4234 H         1 RES1    0.0000
     70 C26        7.1278   16.3317   15.7329 C.ar      1 RES1    0.0000
     71 C27        7.2604   17.6779   15.8800 C.ar      1 RES1    0.0000
     72 H35        7.4262   18.0451   16.7174 H         1 RES1    0.0000
     73 C28        7.1469   18.4836   14.7794 C.ar      1 RES1    0.0000
     74 H36        7.2662   19.4016   14.8707 H         1 RES1    0.0000
     75 N3         2.3499    8.8284   12.4189 N.pl3     2 RES2    0.0000
     76 N4         3.0146    1.7869   13.0256 N.pl3     2 RES2    0.0000
     77 O9         1.9514    9.9653   12.5783 O.2       2 RES2    0.0000
     78 O10        2.6896    8.3829   11.3431 O.2       2 RES2    0.0000
     79 O11        3.4036    4.3402   16.8861 O.2       2 RES2    0.0000
     80 O12        2.2417    5.8968   18.0373 O.3       2 RES2    0.0000
     81 O13        2.1674   -2.9194   17.2638 O.2       2 RES2    0.0000
     82 O14        2.6138   -1.2138   18.6027 O.3       2 RES2    0.0000
     83 O15        2.8529    2.9823   13.1727 O.2       2 RES2    0.0000
     84 O16        3.3566    1.3181   11.9452 O.2       2 RES2    0.0000
     85 C29        2.7320    6.3638   15.7964 C.ar      2 RES2    0.0000
     86 C30        2.2605    7.6431   15.9465 C.ar      2 RES2    0.0000
     87 H37        2.0328    7.9633   16.7901 H         2 RES2    0.0000
     88 C31        2.1250    8.4589   14.8228 C.ar      2 RES2    0.0000
     89 H38        1.8088    9.3300   14.9079 H         2 RES2    0.0000
     90 C32        2.4635    7.9608   13.5968 C.ar      2 RES2    0.0000
     91 C33        2.9511    6.6867   13.4250 C.ar      2 RES2    0.0000
     92 H39        3.1862    6.3796   12.5798 H         2 RES2    0.0000
     93 C34        3.0869    5.8691   14.5348 C.ar      2 RES2    0.0000
     94 H40        3.4107    5.0028   14.4435 H         2 RES2    0.0000
     95 C35        2.8635    5.4177   16.9418 C.2       2 RES2    0.0000
     96 C36        2.1911    5.0064   19.2080 C.3       2 RES2    0.0000
     97 H41        2.1376    4.0782   18.8999 H         2 RES2    0.0000
     98 C37        3.4697    5.1849   20.0206 C.3       2 RES2    0.0000
     99 H42        4.2275    5.0247   19.4200 H         2 RES2    0.0000
    100 C38        3.5327    4.1339   21.1398 C.3       2 RES2    0.0000
    101 H43        4.3576    4.2677   21.6335 H         2 RES2    0.0000
    102 H44        2.8001    4.3021   21.7527 H         2 RES2    0.0000
    103 C39        3.4682    2.6705   20.7141 C.3       2 RES2    0.0000
    104 H45        2.6180    2.5365   20.2451 H         2 RES2    0.0000
    105 C40        3.4629    1.7650   21.9431 C.3       2 RES2    0.0000
    106 H46        4.3178    1.8585   22.3920 H         2 RES2    0.0000
    107 H47        2.7807    2.0871   22.5530 H         2 RES2    0.0000
    108 C41        3.2163    0.2803   21.6955 C.3       2 RES2    0.0000
    109 H48        3.8788   -0.0295   21.0438 H         2 RES2    0.0000
    110 C42        1.8167    0.0245   21.1057 C.3       2 RES2    0.0000
    111 H49        1.1566    0.3308   21.7465 H         2 RES2    0.0000
    112 H50        1.7194    0.5664   20.3070 H         2 RES2    0.0000
    113 C43        1.4953   -1.4162   20.7419 C.3       2 RES2    0.0000
    114 H51        1.5198   -1.9386   21.5716 H         2 RES2    0.0000
    115 C44        2.4674   -2.0487   19.7853 C.3       2 RES2    0.0000
    116 H52        3.3287   -2.1563   20.2172 H         2 RES2    0.0000
    117 H53        2.1468   -2.9269   19.5268 H         2 RES2    0.0000
    118 C45        2.4288   -1.7511   17.4155 C.2       2 RES2    0.0000
    119 C46        2.5657   -0.8040   16.3026 C.ar      2 RES2    0.0000
    120 C47        2.4299   -1.2639   14.9930 C.ar      2 RES2    0.0000
    121 H54        2.2458   -2.1641   14.8475 H         2 RES2    0.0000
    122 C48        2.5605   -0.4333   13.9234 C.ar      2 RES2    0.0000
    123 H55        2.4458   -0.7515   13.0566 H         2 RES2    0.0000
    124 C49        2.8682    0.8979   14.1587 C.ar      2 RES2    0.0000
    125 C50        2.9907    1.4036   15.4373 C.ar      2 RES2    0.0000
    126 H56        3.1572    2.3068   15.5797 H         2 RES2    0.0000
    127 C51        2.8601    0.5317   16.4929 C.ar      2 RES2    0.0000
    128 H57        2.9728    0.8508   17.3582 H         2 RES2    0.0000
    129 C52        0.8911    5.3716   19.9092 C.3       2 RES2    0.0000
    130 H58        0.1538    5.2247   19.3117 H         2 RES2    0.0000
    131 H59        0.9145    6.2956   20.1661 H         2 RES2    0.0000
    132 H60        0.7843    4.8237   20.6893 H         2 RES2    0.0000
    133 C53        3.6206    6.6007   20.5933 C.3       2 RES2    0.0000
    134 H61        4.4399    6.6600   21.0918 H         2 RES2    0.0000
    135 H62        2.8799    6.7924   21.1738 H         2 RES2    0.0000
    136 H63        3.6370    7.2380   19.8751 H         2 RES2    0.0000
    137 C54        4.6011    2.3144   19.7343 C.3       2 RES2    0.0000
    138 H64        4.5544    2.8912   18.9680 H         2 RES2    0.0000
    139 H65        4.5052    1.4014   19.4525 H         2 RES2    0.0000
    140 H66        5.4490    2.4278   20.1692 H         2 RES2    0.0000
    141 C55        3.4300   -0.5026   22.9926 C.3       2 RES2    0.0000
    142 H67        3.2951   -1.4386   22.8285 H         2 RES2    0.0000
    143 H68        2.8043   -0.2001   23.6551 H         2 RES2    0.0000
    144 H69        4.3252   -0.3579   23.3099 H         2 RES2    0.0000
    145 C56        0.0730   -1.5116   20.1862 C.3       2 RES2    0.0000
    146 H70       -0.5409   -1.1126   20.8070 H         2 RES2    0.0000
    147 H71       -0.1587   -2.4339   20.0562 H         2 RES2    0.0000
    148 H72        0.0261   -1.0478   19.3473 H         2 RES2    0.0000
@<TRIPOS>BOND
     1    1    3 2
     2    2    9 2
     3    4    1 2
     4    5   21 2
     5    6   21 1
     6    7   41 1
     7    8   44 2
     8   10    2 2
     9   11   12 ar
    10   12   13 1
    11   14   12 ar
    12   15   14 1
    13   16    1 1
    14   17   16 ar
    15   18   17 1
    16   19   11 ar
    17   20   19 1
    18   21   11 1
    19   22    6 1
    20   23   22 1
    21   24   22 1
    22   25   24 1
    23   26   24 1
    24   27   26 1
    25   28   26 1
    26   29   26 1
    27   30   29 1
    28   31   29 1
    29   32   31 1
    30   33   31 1
    31   34   31 1
    32   35   34 1
    33   36   34 1
    34   37   36 1
    35   38   36 1
    36   39   36 1
    37   40   39 1
    38   41   39 1
    39   42   41 1
    40   43   41 1
    41   44    7 1
    42   45   22 1
    43   46   45 1
    44   47   45 1
    45   48   45 1
    46   49   24 1
    47   50   49 1
    48   51   49 1
    49   52   49 1
    50   53   29 1
    51   54   53 1
    52   55   53 1
    53   56   53 1
    54   57   34 1
    55   58   57 1
    56   59   57 1
    57   60   57 1
    58   61   39 1
    59   62   61 1
    60   63   61 1
    61   64   61 1
    62   65   44 1
    63   66   65 ar
    64   67   66 1
    65   68   66 ar
    66   69   68 1
    67   70    2 1
    68   71   70 ar
    69   72   71 1
    70   73   65 ar
    71   74   73 1
    72   75   77 2
    73   76   83 2
    74   78   75 2
    75   79   95 2
    76   80   95 1
    77   81  118 2
    78   82  115 1
    79   84   76 2
    80   85   86 ar
    81   86   87 1
    82   88   86 ar
    83   89   88 1
    84   90   75 1
    85   91   90 ar
    86   92   91 1
    87   93   85 ar
    88   94   93 1
    89   95   85 1
    90   96   80 1
    91   97   96 1
    92   98   96 1
    93   99   98 1
    94  100   98 1
    95  101  100 1
    96  102  100 1
    97  103  100 1
    98  104  103 1
    99  105  103 1
   100  106  105 1
   101  107  105 1
   102  108  105 1
   103  109  108 1
   104  110  108 1
   105  111  110 1
   106  112  110 1
   107  113  110 1
   108  114  113 1
   109  115  113 1
   110  116  115 1
   111  117  115 1
   112  118   82 1
   113  119  118 1
   114  120  119 ar
   115  121  120 1
   116  122  120 ar
   117  123  122 1
   118  124   76 1
   119  125  124 ar
   120  126  125 1
   121  127  119 ar
   122  128  127 1
   123  129   96 1
   124  130  129 1
   125  131  129 1
   126  132  129 1
   127  133   98 1
   128  134  133 1
   129  135  133 1
   130  136  133 1
   131  137  103 1
   132  138  137 1
   133  139  137 1
   134  140  137 1
   135  141  108 1
   136  142  141 1
   137  143  141 1
   138  144  141 1
   139  145  113 1
   140  146  145 1
   141  147  145 1
   142  148  145 1
   143   14   16 ar
   144   17   19 ar
   145   68   70 ar
   146   71   73 ar
   147   88   90 ar
   148   91   93 ar
   149  122  124 ar
   150  125  127 ar
@<TRIPOS>SUBSTRUCTURE
     1 RES1 1
     2 RES2 75

@<TRIPOS>CRYSIN
   6.8269   13.5953   16.2785  72.0260  87.9030  87.6850   1 1

