# MOL2 file generated by ConQuest
# Please check atom types

@<TRIPOS>MOLECULE
TIGRIL
    72    72     2
SMALL
USER_CHARGES
****
Generated from CSD

@<TRIPOS>ATOM
      1 C1         1.2481   10.9480   20.9190 C.3       1 RES1    0.0000
      2 H1         1.3944   10.9700   21.9088 H         1 RES1    0.0000
      3 C2         2.5785   11.1249   20.2107 C.3       1 RES1    0.0000
      4 H2         3.0016   11.9833   20.5022 H         1 RES1    0.0000
      5 C3         2.3591   11.1482   18.7039 C.3       1 RES1    0.0000
      6 H3         2.0090   10.2601   18.4032 H         1 RES1    0.0000
      7 C4         1.3517   12.2400   18.3444 C.3       1 RES1    0.0000
      8 H4         1.1454   12.1962   17.3668 H         1 RES1    0.0000
      9 C5         0.0682   12.0378   19.1444 C.3       1 RES1    0.0000
     10 H5        -0.3607   11.1860   18.8430 H         1 RES1    0.0000
     11 C6        -0.9334   13.1602   18.9794 C.3       1 RES1    0.0000
     12 H6        -0.5998   13.9639   19.4309 H         1 RES1    0.0000
     13 H7        -1.7896   12.8950   19.3743 H         1 RES1    0.0000
     14 H8        -1.0583   13.3492   18.0265 H         1 RES1    0.0000
     15 C7         3.8233   10.9307   16.8453 C.2       1 RES1    0.0000
     16 C8         5.2522   11.0896   16.4360 C.3       1 RES1    0.0000
     17 H9         5.3681   10.7604   15.5204 H         1 RES1    0.0000
     18 H10        5.8250   10.5762   17.0424 H         1 RES1    0.0000
     19 H11        5.5004   12.0373   16.4762 H         1 RES1    0.0000
     20 C9         2.5415   14.2085   17.6792 C.2       1 RES1    0.0000
     21 C10        2.9162   15.5850   18.1119 C.3       1 RES1    0.0000
     22 H12        2.1101   16.1382   18.1746 H         1 RES1    0.0000
     23 H13        3.5308   15.9778   17.4582 H         1 RES1    0.0000
     24 H14        3.3541   15.5442   18.9868 H         1 RES1    0.0000
     25 C11        2.0928    6.9063   17.2028 C.3       2 RES2    0.0000
     26 H15        2.4799    6.9359   16.2803 H         2 RES2    0.0000
     27 C12        3.2334    6.8817   18.2321 C.3       2 RES2    0.0000
     28 H16        3.8020    6.0766   18.0657 H         2 RES2    0.0000
     29 C13        2.6327    6.7823   19.6321 C.3       2 RES2    0.0000
     30 H17        2.0715    7.5871   19.8250 H         2 RES2    0.0000
     31 C14        1.7781    5.5130   19.7009 C.3       2 RES2    0.0000
     32 H18        1.3673    5.4239   20.6089 H         2 RES2    0.0000
     33 C15        0.6878    5.5862   18.6384 C.3       2 RES2    0.0000
     34 H19        0.0838    6.3530   18.8561 H         2 RES2    0.0000
     35 C16       -0.1537    4.3299   18.5315 C.3       2 RES2    0.0000
     36 H20        0.4026    3.5926   18.2051 H         2 RES2    0.0000
     37 H21       -0.8924    4.4836   17.9068 H         2 RES2    0.0000
     38 H22       -0.5127    4.1009   19.4135 H         2 RES2    0.0000
     39 C17        3.4421    7.0428   21.8404 C.2       2 RES2    0.0000
     40 C18        4.6639    6.9495   22.6972 C.3       2 RES2    0.0000
     41 H23        4.4043    6.9899   23.6420 H         2 RES2    0.0000
     42 H24        5.2646    7.6951   22.4902 H         2 RES2    0.0000
     43 H25        5.1224    6.1021   22.5206 H         2 RES2    0.0000
     44 C19        3.1767    3.7410   20.5070 C.2       2 RES2    0.0000
     45 C20        4.2103    2.7408   20.0746 C.3       2 RES2    0.0000
     46 H26        4.0501    1.8884   20.5283 H         2 RES2    0.0000
     47 H27        5.1027    3.0717   20.3062 H         2 RES2    0.0000
     48 H28        4.1528    2.6111   19.1043 H         2 RES2    0.0000
     49 N1        -0.0288    8.9771   21.5021 N.pl3     1 RES1    0.0000
     50 N2         3.4330    9.9872   20.6180 N.2       1 RES1    0.0000
     51 N3         4.6467   10.1834   20.4961 N.1       1 RES1    1.0000
     52 N4         5.7691   10.2336   20.4362 N.2       1 RES1   -1.0000
     53 N5         0.6269    8.6307   16.3678 N.pl3     2 RES2    0.0000
     54 N6         4.0567    8.0921   18.0553 N.2       2 RES2    0.0000
     55 N7         5.2752    7.8931   18.1687 N.1       2 RES2    1.0000
     56 N8         6.3969    7.8506   18.2316 N.2       2 RES2   -1.0000
     57 O1         0.3367   11.9346   20.5684 O.3       1 RES1    0.0000
     58 O2         0.7739    9.6265   20.5333 O.3       1 RES1    0.0000
     59 O3         3.6541   11.3744   18.1217 O.3       1 RES1    0.0000
     60 O4         1.8864   13.5486   18.6680 O.3       1 RES1    0.0000
     61 O5        -0.1972    9.5252   22.5581 O.2       1 RES1    0.0000
     62 O6        -0.4393    7.9209   21.1106 O.2       1 RES1    0.0000
     63 O7         2.9375   10.4732   16.1792 O.2       1 RES1    0.0000
     64 O8         2.7568   13.7336   16.5868 O.2       1 RES1    0.0000
     65 O9         1.2583    5.8097   17.3139 O.3       2 RES2    0.0000
     66 O10        1.3801    8.1488   17.4650 O.3       2 RES2    0.0000
     67 O11        3.7411    6.7185   20.5479 O.3       2 RES2    0.0000
     68 O12        2.6332    4.3806   19.4303 O.3       2 RES2    0.0000
     69 O13        0.6746    8.0327   15.3314 O.2       2 RES2    0.0000
     70 O14        0.0108    9.6294   16.6400 O.2       2 RES2    0.0000
     71 O15        2.3455    7.3526   22.2075 O.2       2 RES2    0.0000
     72 O16        2.8693    3.9732   21.6403 O.2       2 RES2    0.0000
@<TRIPOS>BOND
     1    1    2 1
     2    3    1 1
     3    4    3 1
     4    5    3 1
     5    6    5 1
     6    7    5 1
     7    8    7 1
     8    9    7 1
     9   10    9 1
    10   11    9 1
    11   12   11 1
    12   13   11 1
    13   14   11 1
    14   15   16 1
    15   16   17 1
    16   18   16 1
    17   19   16 1
    18   20   21 1
    19   21   22 1
    20   23   21 1
    21   24   21 1
    22   25   26 1
    23   27   25 1
    24   28   27 1
    25   29   27 1
    26   30   29 1
    27   31   29 1
    28   32   31 1
    29   33   31 1
    30   34   33 1
    31   35   33 1
    32   36   35 1
    33   37   35 1
    34   38   35 1
    35   39   40 1
    36   40   41 1
    37   42   40 1
    38   43   40 1
    39   44   45 1
    40   45   46 1
    41   47   45 1
    42   48   45 1
    43   49   58 1
    44   50    3 1
    45   51   50 2
    46   52   51 2
    47   53   66 1
    48   54   27 1
    49   55   54 2
    50   56   55 2
    51   57    1 1
    52   58    1 1
    53   59    5 1
    54   60    7 1
    55   61   49 2
    56   62   49 2
    57   63   15 2
    58   64   20 2
    59   65   25 1
    60   66   25 1
    61   67   29 1
    62   68   31 1
    63   69   53 2
    64   70   53 2
    65   71   39 2
    66   72   44 2
    67    9   57 1
    68   15   59 1
    69   20   60 1
    70   33   65 1
    71   39   67 1
    72   44   68 1
@<TRIPOS>SUBSTRUCTURE
     1 RES1 1
     2 RES2 25

@<TRIPOS>CRYSIN
   8.2169   15.8825   21.7738  90.0000  90.0000  90.0000  19 1

