# MOL2 file generated by ConQuest
# Please check atom types

@<TRIPOS>MOLECULE
TIGVOX
    53    56     1
SMALL
NO_CHARGES
****
Generated from CSD

@<TRIPOS>ATOM
      1 O1         1.8718   -4.8694   -3.8592 O.2       1 RES1    0.0000
      2 O2         2.0614   -2.8086   -3.4914 O.2       1 RES1    0.0000
      3 O3        -3.1392   -1.2714   -0.7356 O.2       1 RES1    0.0000
      4 O4        -1.2251   -0.1883   -1.0160 O.3       1 RES1    0.0000
      5 O5        -0.7622   -2.5122    1.4443 O.3       1 RES1    0.0000
      6 O6         1.0393   -2.1876    0.2418 O.2       1 RES1    0.0000
      7 N1        -2.6763   -5.2580   -5.2229 N.3       1 RES1    0.0000
      8 N2         1.5388   -3.8757   -3.2865 N.pl3     1 RES1    0.0000
      9 C1        -1.9237   -5.9605   -4.2992 C.2       1 RES1    0.0000
     10 H1        -1.8804   -6.8874   -4.2488 H         1 RES1    0.0000
     11 C2        -1.2616   -5.1124   -3.4814 C.2       1 RES1    0.0000
     12 C3        -1.6081   -3.8076   -3.9180 C.ar      1 RES1    0.0000
     13 C4        -1.2049   -2.5843   -3.4024 C.ar      1 RES1    0.0000
     14 C5        -1.6639   -1.4451   -4.0238 C.ar      1 RES1    0.0000
     15 H2        -1.3964   -0.6077   -3.7215 H         1 RES1    0.0000
     16 C6        -2.5425   -1.5559   -5.1188 C.ar      1 RES1    0.0000
     17 H3        -2.8466   -0.7773   -5.5268 H         1 RES1    0.0000
     18 C7        -2.9708   -2.7739   -5.6108 C.ar      1 RES1    0.0000
     19 H4        -3.5636   -2.8247   -6.3262 H         1 RES1    0.0000
     20 C8        -2.4829   -3.9145   -5.0012 C.ar      1 RES1    0.0000
     21 C9        -3.5434   -5.8203   -6.2423 C.3       1 RES1    0.0000
     22 H5        -4.4480   -5.4984   -6.1012 H         1 RES1    0.0000
     23 H6        -3.5540   -6.7859   -6.1532 H         1 RES1    0.0000
     24 C10       -3.1065   -5.4597   -7.6395 C.ar      1 RES1    0.0000
     25 C11       -1.8275   -5.6841   -8.0308 C.ar      1 RES1    0.0000
     26 H7        -1.2260   -6.0674   -7.4346 H         1 RES1    0.0000
     27 C12       -1.4195   -5.3609   -9.2702 C.ar      1 RES1    0.0000
     28 H8        -0.5360   -5.5305   -9.5053 H         1 RES1    0.0000
     29 C13       -2.2067   -4.8200  -10.1535 C.ar      1 RES1    0.0000
     30 H9        -1.8718   -4.5969  -10.9915 H         1 RES1    0.0000
     31 C14       -3.5107   -4.5769   -9.8647 C.ar      1 RES1    0.0000
     32 H10       -4.0842   -4.2190  -10.5045 H         1 RES1    0.0000
     33 C15       -3.9726   -4.8854   -8.5648 C.ar      1 RES1    0.0000
     34 H11       -4.8541   -4.7038   -8.3280 H         1 RES1    0.0000
     35 C16       -0.2945   -2.6444   -2.1765 C.3       1 RES1    0.0000
     36 H12        0.3455   -1.9045   -2.2302 H         1 RES1    0.0000
     37 C17        0.4869   -3.9572   -2.1798 C.3       1 RES1    0.0000
     38 H13        0.9652   -4.0160   -1.3267 H         1 RES1    0.0000
     39 C18       -0.3253   -5.2487   -2.3377 C.3       1 RES1    0.0000
     40 H14        0.2743   -5.9952   -2.4922 H         1 RES1    0.0000
     41 H15       -0.8238   -5.4223   -1.5249 H         1 RES1    0.0000
     42 C19       -1.0759   -2.5148   -0.8565 C.3       1 RES1    0.0000
     43 H16       -1.6350   -3.3095   -0.7339 H         1 RES1    0.0000
     44 C20       -1.9622   -1.2794   -0.8615 C.2       1 RES1    0.0000
     45 C21       -1.9401    1.0885   -1.0513 C.3       1 RES1    0.0000
     46 H17       -2.5377    1.1406   -0.3006 H         1 RES1    0.0000
     47 H18       -2.4444    1.1499   -1.8658 H         1 RES1    0.0000
     48 H19       -1.3088    1.8097   -1.0093 H         1 RES1    0.0000
     49 C22       -0.1299   -2.3879    0.3157 C.2       1 RES1    0.0000
     50 C23        0.0760   -2.4534    2.6467 C.3       1 RES1    0.0000
     51 H20       -0.4793   -2.3118    3.4175 H         1 RES1    0.0000
     52 H21        0.7016   -1.7295    2.5661 H         1 RES1    0.0000
     53 H22        0.5543   -3.2801    2.7458 H         1 RES1    0.0000
@<TRIPOS>BOND
     1    1    8 2
     2    2    8 2
     3    3   44 2
     4    4   44 1
     5    5   49 1
     6    6   49 2
     7    7    9 1
     8    8   37 1
     9    9   10 1
    10   11    9 2
    11   12   11 1
    12   13   12 ar
    13   14   13 ar
    14   15   14 1
    15   16   14 ar
    16   17   16 1
    17   18   16 ar
    18   19   18 1
    19   20    7 1
    20   21    7 1
    21   22   21 1
    22   23   21 1
    23   24   21 1
    24   25   24 ar
    25   26   25 1
    26   27   25 ar
    27   28   27 1
    28   29   27 ar
    29   30   29 1
    30   31   29 ar
    31   32   31 1
    32   33   24 ar
    33   34   33 1
    34   35   13 1
    35   36   35 1
    36   37   35 1
    37   38   37 1
    38   39   11 1
    39   40   39 1
    40   41   39 1
    41   42   35 1
    42   43   42 1
    43   44   42 1
    44   45    4 1
    45   46   45 1
    46   47   45 1
    47   48   45 1
    48   49   42 1
    49   50    5 1
    50   51   50 1
    51   52   50 1
    52   53   50 1
    53   12   20 ar
    54   18   20 ar
    55   31   33 ar
    56   37   39 1
@<TRIPOS>SUBSTRUCTURE
     1 RES1 1

@<TRIPOS>CRYSIN
   9.6235   13.3554   16.7938  90.0000  90.0000  90.0000  19 1

