# MOL2 file generated by ConQuest
# Please check atom types

@<TRIPOS>MOLECULE
TIGYOX
    55    51     2
SMALL
NO_CHARGES
****
Generated from CSD

@<TRIPOS>ATOM
      1 O1         4.1003    6.1135    9.1478 O.2       1 RES1    0.0000
      2 O2         2.3105    7.2871    9.4665 O.2       1 RES1    0.0000
      3 O3         5.0344    9.9582    7.5853 O.3       1 RES1    0.0000
      4 O4         5.1050    8.9474    9.5968 O.2       1 RES1    0.0000
      5 O5         4.8927    5.2567    5.5765 O.3       1 RES1    0.0000
      6 O6         2.8155    5.7139    6.3669 O.2       1 RES1    0.0000
      7 O7         0.5759    9.7308    7.6058 O.3       1 RES1    0.0000
      8 O8         2.3636   10.3160    8.8641 O.2       1 RES1    0.0000
      9 N1         3.3572    7.0485    8.8859 N.pl3     1 RES1    0.0000
     10 C1         3.7901    8.0062    7.7747 C.3       1 RES1    0.0000
     11 C2         4.7011    9.0329    8.4696 C.2       1 RES1    0.0000
     12 C3         5.8871   11.0398    8.0569 C.3       1 RES1    0.0000
     13 H1         6.7543   10.6866    8.3797 H         1 RES1    0.0000
     14 H2         5.4501   11.5335    8.7947 H         1 RES1    0.0000
     15 C4         6.0877   11.9331    6.8662 C.3       1 RES1    0.0000
     16 H3         6.4672   11.4127    6.1277 H         1 RES1    0.0000
     17 H4         6.7021   12.6599    7.1025 H         1 RES1    0.0000
     18 H5         5.2251   12.3097    6.5920 H         1 RES1    0.0000
     19 C5         4.6443    7.2342    6.7645 C.3       1 RES1    0.0000
     20 H6         4.8607    7.8334    6.0065 H         1 RES1    0.0000
     21 H7         5.4967    6.9780    7.1979 H         1 RES1    0.0000
     22 C6         3.9775    5.9886    6.2262 C.2       1 RES1    0.0000
     23 C7         4.5016    3.9980    4.8845 C.3       1 RES1    0.0000
     24 C8         3.4992    4.3228    3.7954 C.3       1 RES1    0.0000
     25 H8         2.6566    4.6105    4.2027 H         1 RES1    0.0000
     26 H9         3.3416    3.5256    3.2483 H         1 RES1    0.0000
     27 H10        3.8515    5.0425    3.2311 H         1 RES1    0.0000
     28 C9         3.9666    2.9964    5.8890 C.3       1 RES1    0.0000
     29 H11        4.6113    2.8898    6.6188 H         1 RES1    0.0000
     30 H12        3.8287    2.1332    5.4467 H         1 RES1    0.0000
     31 H13        3.1147    3.3194    6.2499 H         1 RES1    0.0000
     32 C10        5.8209    3.5196    4.3007 C.3       1 RES1    0.0000
     33 H14        6.1517    4.1797    3.6569 H         1 RES1    0.0000
     34 H15        5.6856    2.6616    3.8478 H         1 RES1    0.0000
     35 H16        6.4755    3.4084    5.0210 H         1 RES1    0.0000
     36 C11        2.5631    8.6440    7.1350 C.3       1 RES1    0.0000
     37 H17        2.8420    9.0904    6.2961 H         1 RES1    0.0000
     38 H18        1.9250    7.9262    6.8934 H         1 RES1    0.0000
     39 C12        1.8415    9.6564    8.0021 C.2       1 RES1    0.0000
     40 C13       -0.3946   10.6838    8.1931 C.3       1 RES1    0.0000
     41 C14       -1.6531   10.3534    7.4575 C.3       1 RES1    0.0000
     42 H19       -1.5265   10.5231    6.5009 H         1 RES1    0.0000
     43 H20       -2.3850   10.9111    7.7942 H         1 RES1    0.0000
     44 H21       -1.8734    9.4077    7.5947 H         1 RES1    0.0000
     45 C15        0.0343   12.0823    7.8360 C.3       1 RES1    0.0000
     46 H22        0.8593   12.3036    8.3154 H         1 RES1    0.0000
     47 H23       -0.6705   12.7148    8.0891 H         1 RES1    0.0000
     48 H24        0.1915   12.1388    6.8698 H         1 RES1    0.0000
     49 H25       -0.6053   12.4683    7.2012 Du        2 SUP2    0.0000
     50 H26        0.9245   12.0571    7.4274 Du        2 SUP2    0.0000
     51 H27        0.0625   12.6318    8.6468 Du        2 SUP2    0.0000
     52 C16       -0.5265   10.4450    9.6580 C.3       1 RES1    0.0000
     53 H28        0.3181   10.6683   10.1031 H         1 RES1    0.0000
     54 H29       -0.7405    9.5016    9.8178 H         1 RES1    0.0000
     55 H30       -1.2447   11.0063   10.0183 H         1 RES1    0.0000
@<TRIPOS>BOND
     1    1    9 2
     2    2    9 2
     3    3   11 1
     4    4   11 2
     5    5   22 1
     6    6   22 2
     7    7   39 1
     8    8   39 2
     9    9   10 1
    10   10   11 1
    11   12    3 1
    12   13   12 1
    13   14   12 1
    14   15   12 1
    15   16   15 1
    16   17   15 1
    17   18   15 1
    18   19   10 1
    19   20   19 1
    20   21   19 1
    21   22   19 1
    22   23    5 1
    23   24   23 1
    24   25   24 1
    25   26   24 1
    26   27   24 1
    27   28   23 1
    28   29   28 1
    29   30   28 1
    30   31   28 1
    31   32   23 1
    32   33   32 1
    33   34   32 1
    34   35   32 1
    35   36   10 1
    36   37   36 1
    37   38   36 1
    38   39   36 1
    39   40    7 1
    40   41   40 1
    41   42   41 1
    42   43   41 1
    43   44   41 1
    44   45   40 1
    45   46   45 1
    46   47   45 1
    47   48   45 1
    48   52   40 1
    49   53   52 1
    50   54   52 1
    51   55   52 1
@<TRIPOS>SUBSTRUCTURE
     1 RES1 1
     2 SUP2 49

@<TRIPOS>CRYSIN
  14.9589   12.2035   10.7542  90.0000  94.2958  90.0000  14 1

