# MOL2 file generated by ConQuest
# Please check atom types

@<TRIPOS>MOLECULE
TIGZIT
    35    35     1
SMALL
NO_CHARGES
****
Generated from CSD

@<TRIPOS>ATOM
      1 O1        -2.6711    3.6894    0.0350 O.2       1 RES1    0.0000
      2 O2        -3.2191    5.7183    0.4227 O.2       1 RES1    0.0000
      3 O3        -3.1600    8.7997    3.1292 O.2       1 RES1    0.0000
      4 O4        -0.9240    8.8933    3.0790 O.3       1 RES1    0.0000
      5 O5        -2.1035   10.0946    5.8247 O.2       1 RES1    0.0000
      6 N1        -2.7339    4.6598    0.7611 N.pl3     1 RES1    0.0000
      7 C1        -2.2346    5.6365    2.9221 C.ar      1 RES1    0.0000
      8 H1        -2.6095    6.4313    2.6156 H         1 RES1    0.0000
      9 C2        -2.1807    4.5495    2.1065 C.ar      1 RES1    0.0000
     10 C3        -1.6375    3.3607    2.4984 C.ar      1 RES1    0.0000
     11 H2        -1.6002    2.6354    1.9172 H         1 RES1    0.0000
     12 C4        -1.1496    3.2660    3.7686 C.ar      1 RES1    0.0000
     13 H3        -0.7827    2.4641    4.0638 H         1 RES1    0.0000
     14 C5        -1.1966    4.3375    4.6100 C.ar      1 RES1    0.0000
     15 H4        -0.8647    4.2507    5.4740 H         1 RES1    0.0000
     16 C6        -1.7295    5.5570    4.2058 C.ar      1 RES1    0.0000
     17 C7        -1.7289    6.6561    5.1562 C.2       1 RES1    0.0000
     18 H5        -1.6022    6.4037    6.0428 H         1 RES1    0.0000
     19 C8        -1.8791    7.9570    4.9659 C.2       1 RES1    0.0000
     20 C9        -2.0813    8.5887    3.6185 C.2       1 RES1    0.0000
     21 C10       -0.9251    9.5986    1.7815 C.3       1 RES1    0.0000
     22 H6        -1.7640   10.0927    1.6724 H         1 RES1    0.0000
     23 C11       -0.7969    8.5789    0.7046 C.3       1 RES1    0.0000
     24 H7         0.0427    8.1223    0.7940 H         1 RES1    0.0000
     25 H8        -0.8371    9.0106   -0.1512 H         1 RES1    0.0000
     26 H9        -1.5149    7.9455    0.7776 H         1 RES1    0.0000
     27 C12        0.2152   10.5487    1.8524 C.3       1 RES1    0.0000
     28 H10        0.0674   11.1726    2.5673 H         1 RES1    0.0000
     29 H11        0.2872   11.0256    1.0214 H         1 RES1    0.0000
     30 H12        1.0276   10.0633    2.0139 H         1 RES1    0.0000
     31 C13       -1.8566    8.9415    6.0633 C.2       1 RES1    0.0000
     32 C14       -1.5092    8.4961    7.4498 C.3       1 RES1    0.0000
     33 H13       -1.5144    9.2533    8.0392 H         1 RES1    0.0000
     34 H14       -0.6362    8.0977    7.4478 H         1 RES1    0.0000
     35 H15       -2.1542    7.8520    7.7491 H         1 RES1    0.0000
@<TRIPOS>BOND
     1    1    6 2
     2    2    6 2
     3    3   20 2
     4    4   20 1
     5    5   31 2
     6    6    9 1
     7    7    8 1
     8    9    7 ar
     9   10    9 ar
    10   11   10 1
    11   12   10 ar
    12   13   12 1
    13   14   12 ar
    14   15   14 1
    15   16    7 ar
    16   17   16 1
    17   18   17 1
    18   19   17 2
    19   20   19 1
    20   21    4 1
    21   22   21 1
    22   23   21 1
    23   24   23 1
    24   25   23 1
    25   26   23 1
    26   27   21 1
    27   28   27 1
    28   29   27 1
    29   30   27 1
    30   31   19 1
    31   32   31 1
    32   33   32 1
    33   34   32 1
    34   35   32 1
    35   14   16 ar
@<TRIPOS>SUBSTRUCTURE
     1 RES1 1

@<TRIPOS>CRYSIN
   7.5450    9.2400   11.0550 103.5980 101.8980 105.8760   2 1

