# MOL2 file generated by ConQuest
# Please check atom types

@<TRIPOS>MOLECULE
TIHBES
    38    40     1
SMALL
NO_CHARGES
****
Generated from CSD

@<TRIPOS>ATOM
      1 O1         3.6860    7.3947   30.0233 O.2       1 RES1    0.0000
      2 O2         2.9042    6.5312   31.8633 O.2       1 RES1    0.0000
      3 O3         4.1127    5.0265   28.9970 O.3       1 RES1    0.0000
      4 O4         5.6020    3.6907   24.5787 O.2       1 RES1    0.0000
      5 N1         3.3660    6.4359   30.7290 N.pl3     1 RES1    0.0000
      6 N2         4.7236    2.0606   27.1257 N.2       1 RES1    0.0000
      7 N3         6.0023    1.5324   23.7932 N.am      1 RES1    0.0000
      8 N4         5.7231    0.2243   24.2500 N.3       1 RES1    0.0000
      9 C1         3.5456    5.1231   30.2208 C.2       1 RES1    0.0000
     10 C2         3.2259    3.9165   30.7326 C.2       1 RES1    0.0000
     11 H1         2.8322    3.7438   31.5566 H         1 RES1    0.0000
     12 C3         3.6069    2.9772   29.7666 C.2       1 RES1    0.0000
     13 H2         3.5110    2.0544   29.8238 H         1 RES1    0.0000
     14 C4         4.1473    3.6774   28.7213 C.2       1 RES1    0.0000
     15 C5         4.6871    3.3062   27.4411 C.2       1 RES1    0.0000
     16 H3         5.0035    3.9540   26.8548 H         1 RES1    0.0000
     17 C6         5.2097    1.6574   25.8907 C.2       1 RES1    0.0000
     18 C7         5.3166    0.3274   25.5400 C.2       1 RES1    0.0000
     19 C8         5.6049    2.4615   24.7620 C.2       1 RES1    0.0000
     20 C9         5.0841   -0.8697   26.3919 C.3       1 RES1    0.0000
     21 H4         4.6602   -1.5558   25.8698 H         1 RES1    0.0000
     22 H5         4.5184   -0.6330   27.1310 H         1 RES1    0.0000
     23 H6         5.9247   -1.1940   26.7236 H         1 RES1    0.0000
     24 C10        6.4989   -0.8994   23.7181 C.3       1 RES1    0.0000
     25 H7         7.4321   -0.7549   23.8914 H         1 RES1    0.0000
     26 H8         6.3574   -0.9666   22.7696 H         1 RES1    0.0000
     27 H9         6.2165   -1.7129   24.1425 H         1 RES1    0.0000
     28 C11        6.1241    1.7949   22.3977 C.ar      1 RES1    0.0000
     29 C12        5.3833    1.0940   21.4607 C.ar      1 RES1    0.0000
     30 H10        4.7738    0.4470   21.7344 H         1 RES1    0.0000
     31 C13        5.5554    1.3644   20.1076 C.ar      1 RES1    0.0000
     32 H11        5.0776    0.8799   19.4742 H         1 RES1    0.0000
     33 C14        6.4263    2.3435   19.7044 C.ar      1 RES1    0.0000
     34 H12        6.5382    2.5209   18.7989 H         1 RES1    0.0000
     35 C15        7.1388    3.0679   20.6442 C.ar      1 RES1    0.0000
     36 H13        7.7095    3.7485   20.3671 H         1 RES1    0.0000
     37 C16        7.0071    2.7850   21.9914 C.ar      1 RES1    0.0000
     38 H14        7.5063    3.2554   22.6190 H         1 RES1    0.0000
@<TRIPOS>BOND
     1    1    5 2
     2    2    5 2
     3    3    9 1
     4    4   19 2
     5    5    9 1
     6    6   15 2
     7    7    8 1
     8    8   18 1
     9    9   10 2
    10   10   11 1
    11   12   10 1
    12   13   12 1
    13   14    3 1
    14   15   14 1
    15   16   15 1
    16   17    6 1
    17   18   17 2
    18   19    7 1
    19   20   18 1
    20   21   20 1
    21   22   20 1
    22   23   20 1
    23   24    8 1
    24   25   24 1
    25   26   24 1
    26   27   24 1
    27   28    7 1
    28   29   28 ar
    29   30   29 1
    30   31   29 ar
    31   32   31 1
    32   33   31 ar
    33   34   33 1
    34   35   33 ar
    35   36   35 1
    36   37   28 ar
    37   38   37 1
    38   12   14 2
    39   17   19 1
    40   35   37 ar
@<TRIPOS>SUBSTRUCTURE
     1 RES1 1

@<TRIPOS>CRYSIN
   7.0722    7.8143   27.9170  90.0000  91.7500  90.0000 231 1

