# MOL2 file generated by ConQuest
# Please check atom types

@<TRIPOS>MOLECULE
TIHMII
    38    39     1
SMALL
NO_CHARGES
****
Generated from CSD

@<TRIPOS>ATOM
      1 O1         5.2043    0.8516   -2.0211 O.3       1 RES1    0.0000
      2 O2         2.5234    3.0085   -3.5141 O.2       1 RES1    0.0000
      3 N1         3.9482    0.5776   -1.3422 N.3       1 RES1    0.0000
      4 N2         2.5222    0.7223   -3.6163 N.am      1 RES1    0.0000
      5 C1         3.1489    1.7886   -1.5468 C.3       1 RES1    0.0000
      6 C2         4.2580    0.4240    0.0853 C.3       1 RES1    0.0000
      7 C3         2.9806    0.0036    0.7819 C.3       1 RES1    0.0000
      8 C4         1.8428    0.9361    0.4647 C.ar      1 RES1    0.0000
      9 C5         1.9183    1.7913   -0.6367 C.ar      1 RES1    0.0000
     10 C6         0.8619    2.6771   -0.8836 C.ar      1 RES1    0.0000
     11 C7        -0.2492    2.6977   -0.0521 C.ar      1 RES1    0.0000
     12 C8        -0.3349    1.8344    1.0251 C.ar      1 RES1    0.0000
     13 C9         0.7062    0.9603    1.2758 C.ar      1 RES1    0.0000
     14 C10        2.7128    1.8955   -3.0079 C.2       1 RES1    0.0000
     15 C11        2.0107    0.4941   -4.9871 C.3       1 RES1    0.0000
     16 C12        2.2209   -0.9882   -5.2572 C.3       1 RES1    0.0000
     17 C13        0.5321    0.8606   -5.0336 C.3       1 RES1    0.0000
     18 C14        2.7963    1.3259   -5.9951 C.3       1 RES1    0.0000
     19 H1         3.7086    2.6330   -1.3357 H         1 RES1    0.0000
     20 H2         4.5602    1.3026    0.4972 H         1 RES1    0.0000
     21 H3         4.9843   -0.2336    0.1892 H         1 RES1    0.0000
     22 H4         3.1629   -0.0099    1.7586 H         1 RES1    0.0000
     23 H5         2.7338   -0.9145    0.5510 H         1 RES1    0.0000
     24 H6         0.9748    3.3275   -1.6121 H         1 RES1    0.0000
     25 H7        -0.9124    3.3760   -0.2430 H         1 RES1    0.0000
     26 H8        -1.1737    1.8263    1.6529 H         1 RES1    0.0000
     27 H9         0.5967    0.3548    2.0536 H         1 RES1    0.0000
     28 H10        5.2802   -0.0341   -2.4803 H         1 RES1    0.0000
     29 H11        2.6812   -0.0952   -3.1166 H         1 RES1    0.0000
     30 H12        3.2516   -1.2451   -5.2499 H         1 RES1    0.0000
     31 H13        1.7113   -1.5775   -4.6081 H         1 RES1    0.0000
     32 H14        1.9086   -1.1750   -6.0513 H         1 RES1    0.0000
     33 H15        0.4192    1.8515   -4.8270 H         1 RES1    0.0000
     34 H16        0.0115    0.2641   -4.4059 H         1 RES1    0.0000
     35 H17        0.1578    0.7717   -5.8770 H         1 RES1    0.0000
     36 H18        3.7711    1.0825   -5.9178 H         1 RES1    0.0000
     37 H19        2.6730    2.3150   -5.8417 H         1 RES1    0.0000
     38 H20        2.5332    1.1121   -6.9232 H         1 RES1    0.0000
@<TRIPOS>BOND
     1    1    3 1
     2    2   14 2
     3    3    5 1
     4    4   14 1
     5    5    9 1
     6    6    3 1
     7    7    6 1
     8    8    7 1
     9    9    8 ar
    10   10    9 ar
    11   11   10 ar
    12   12   11 ar
    13   13    8 ar
    14   14    5 1
    15   15    4 1
    16   16   15 1
    17   17   15 1
    18   18   15 1
    19   19    5 1
    20   20    6 1
    21   21    6 1
    22   22    7 1
    23   23    7 1
    24   24   10 1
    25   25   11 1
    26   26   12 1
    27   27   13 1
    28   28    1 1
    29   29    4 1
    30   30   16 1
    31   31   16 1
    32   32   16 1
    33   33   17 1
    34   34   17 1
    35   35   17 1
    36   36   18 1
    37   37   18 1
    38   38   18 1
    39   12   13 ar
@<TRIPOS>SUBSTRUCTURE
     1 RES1 1

@<TRIPOS>CRYSIN
  16.4390    8.9834   18.5510  90.0000  90.0000  90.0000  61 1

