# MOL2 file generated by ConQuest
# Please check atom types

@<TRIPOS>MOLECULE
TIJBEV
    25    25     1
SMALL
NO_CHARGES
****
Generated from CSD

@<TRIPOS>ATOM
      1 O1         2.5994    3.1874   13.3033 O.3       1 RES1    0.0000
      2 O2         1.3335    2.8960   10.0818 O.2       1 RES1    0.0000
      3 N1         1.7611    3.4023   12.2185 N.am      1 RES1    0.0000
      4 C1         3.2951    3.5951   15.5429 C.ar      1 RES1    0.0000
      5 C2         3.0982    4.3417   16.6805 C.ar      1 RES1    0.0000
      6 H1         2.4046    4.9607   16.7057 H         1 RES1    0.0000
      7 C3         3.9109    4.1894   17.7866 C.ar      1 RES1    0.0000
      8 H2         3.7597    4.7019   18.5481 H         1 RES1    0.0000
      9 C4         4.9388    3.2851   17.7641 C.ar      1 RES1    0.0000
     10 H3         5.4927    3.1865   18.5048 H         1 RES1    0.0000
     11 C5         5.1449    2.5262   16.6397 C.ar      1 RES1    0.0000
     12 H4         5.8350    1.9036   16.6232 H         1 RES1    0.0000
     13 C6         4.3317    2.6838   15.5324 C.ar      1 RES1    0.0000
     14 H5         4.4845    2.1696   14.7725 H         1 RES1    0.0000
     15 C7         2.0316    2.7260   11.0711 C.2       1 RES1    0.0000
     16 C8         0.7233    4.3972   12.2843 C.3       1 RES1    0.0000
     17 H6         0.2762    4.4492   11.4363 H         1 RES1    0.0000
     18 H7         1.1106    5.2495   12.4947 H         1 RES1    0.0000
     19 H8         0.0912    4.1551   12.9651 H         1 RES1    0.0000
     20 C9         2.4191    3.8311   14.4184 C.3       1 RES1    0.0000
     21 H9         1.7246    4.4448   14.4919 H         1 RES1    0.0000
     22 C10        3.2070    1.7971   11.0622 C.3       1 RES1    0.0000
     23 H10        3.2097    1.2776   11.8696 H         1 RES1    0.0000
     24 H11        4.0179    2.3087   11.0072 H         1 RES1    0.0000
     25 H12        3.1470    1.2116   10.3036 H         1 RES1    0.0000
@<TRIPOS>BOND
     1    1    3 1
     2    2   15 2
     3    3   15 1
     4    4    5 ar
     5    5    6 1
     6    7    5 ar
     7    8    7 1
     8    9    7 ar
     9   10    9 1
    10   11    9 ar
    11   12   11 1
    12   13    4 ar
    13   14   13 1
    14   15   22 1
    15   16    3 1
    16   17   16 1
    17   18   16 1
    18   19   16 1
    19   20    1 1
    20   21   20 1
    21   22   23 1
    22   24   22 1
    23   25   22 1
    24    4   20 1
    25   11   13 ar
@<TRIPOS>SUBSTRUCTURE
     1 RES1 1

@<TRIPOS>CRYSIN
   5.3172    8.8050   20.6410  90.0000  91.6950  90.0000  14 1

