# MOL2 file generated by ConQuest
# Please check atom types

@<TRIPOS>MOLECULE
TIJGIE
    44    45     1
SMALL
NO_CHARGES
****
Generated from CSD

@<TRIPOS>ATOM
      1 C1         5.9074    1.9276    9.6166 C.2       1 RES1    0.0000
      2 C2         4.5276    1.8953   10.1632 C.2       1 RES1    0.0000
      3 C3         4.4965    1.0195   11.1621 C.2       1 RES1    0.0000
      4 C4         5.8215    0.4200   11.3741 C.2       1 RES1    0.0000
      5 C5         6.2003   -0.4933   12.2646 C.2       1 RES1    0.0000
      6 H1         7.0642   -0.8363   12.2426 H         1 RES1    0.0000
      7 H2         5.5998   -0.7884   12.9117 H         1 RES1    0.0000
      8 C6         3.3011    2.5604    9.6669 C.3       1 RES1    0.0000
      9 H3         3.3019    3.5013    9.9386 H         1 RES1    0.0000
     10 C7         2.0808    1.8563   10.2464 C.3       1 RES1    0.0000
     11 C8         2.2935    1.6002   11.7259 C.3       1 RES1    0.0000
     12 H4         2.4858    2.4584   12.1578 H         1 RES1    0.0000
     13 C9         0.8365    2.7004    9.9889 C.3       1 RES1    0.0000
     14 H5         0.8338    2.9959    9.0748 H         1 RES1    0.0000
     15 H6         0.8401    3.4627   10.5716 H         1 RES1    0.0000
     16 H7         0.0513    2.1732   10.1569 H         1 RES1    0.0000
     17 C10        1.1441    0.9450   12.4657 C.3       1 RES1    0.0000
     18 H8         0.3506    1.4811   12.3133 H         1 RES1    0.0000
     19 H9         0.9861    0.0786   12.0589 H         1 RES1    0.0000
     20 C11        8.3938   -0.0286    9.3826 C.3       1 RES1    0.0000
     21 H10        7.9516   -0.8706    9.5177 H         1 RES1    0.0000
     22 H11        9.3429   -0.1499    9.4596 H         1 RES1    0.0000
     23 H12        8.1828    0.3070    8.5078 H         1 RES1    0.0000
     24 N1         6.5736    0.9731   10.3470 N.am      1 RES1    0.0000
     25 O1         6.3831    2.5604    8.7167 O.2       1 RES1    0.0000
     26 O2         7.9613    0.8831   10.3485 O.3       1 RES1    0.0000
     27 O3         3.4608    0.7124   11.9285 O.3       1 RES1    0.0000
     28 O4         3.2222    2.4703    8.2550 O.3       1 RES1    0.0000
     29 H13        3.5834    3.1255    7.9188 H         1 RES1    0.0000
     30 O5         1.9461    0.5865    9.6543 O.3       1 RES1    0.0000
     31 H14        1.7878    0.6724    8.8549 H         1 RES1    0.0000
     32 C12        1.2746    0.7442   13.8918 C.3       1 RES1    0.0000
     33 H15        1.4659    1.5935   14.3237 H         1 RES1    0.0000
     34 H16        2.0122    0.1421   14.0708 H         1 RES1    0.0000
     35 C13        0.0019    0.1717   14.4446 C.3       1 RES1    0.0000
     36 H17       -0.6543    0.8118   14.3629 H         1 RES1    0.0000
     37 H18       -0.2435   -0.5360   13.8996 H         1 RES1    0.0000
     38 C14       -0.0131   -0.2758   15.7545 C.3       1 RES1    0.0000
     39 H19        0.2089    0.4548   16.3497 H         1 RES1    0.0000
     40 H20        0.6548   -0.9721   15.8675 H         1 RES1    0.0000
     41 C15       -1.3044   -0.7962   16.0890 C.3       1 RES1    0.0000
     42 H21       -1.3156   -1.0585   17.0125 H         1 RES1    0.0000
     43 H22       -1.4996   -1.5555   15.5377 H         1 RES1    0.0000
     44 H23       -1.9696   -0.1166   15.9445 H         1 RES1    0.0000
@<TRIPOS>BOND
     1    1    2 1
     2    2    3 2
     3    3    4 1
     4    4    5 2
     5    5    6 1
     6    7    5 1
     7    8    2 1
     8    9    8 1
     9   10    8 1
    10   11   10 1
    11   12   11 1
    12   13   10 1
    13   14   13 1
    14   15   13 1
    15   16   13 1
    16   17   11 1
    17   18   17 1
    18   19   17 1
    19   20   21 1
    20   22   20 1
    21   23   20 1
    22   24    1 1
    23   25    1 2
    24   26   20 1
    25   27    3 1
    26   28    8 1
    27   29   28 1
    28   30   10 1
    29   31   30 1
    30   32   17 1
    31   33   32 1
    32   34   32 1
    33   35   32 1
    34   36   35 1
    35   37   35 1
    36   38   35 1
    37   39   38 1
    38   40   38 1
    39   41   38 1
    40   42   41 1
    41   43   41 1
    42   44   41 1
    43    4   24 1
    44   11   27 1
    45   24   26 1
@<TRIPOS>SUBSTRUCTURE
     1 RES1 1

@<TRIPOS>CRYSIN
  10.2130    5.2040   15.9620  90.0000 100.2800  90.0000   4 1

