# MOL2 file generated by ConQuest
# Please check atom types

@<TRIPOS>MOLECULE
TIJJOM
    96   106     2
SMALL
NO_CHARGES
****
Generated from CSD

@<TRIPOS>ATOM
      1 C1         5.9005    4.0271    2.2204 C.ar      1 RES1    0.0000
      2 C2         5.7029    4.1407    3.6934 C.ar      1 RES1    0.0000
      3 C3         5.2777    5.3560    4.3288 C.ar      1 RES1    0.0000
      4 C4         5.3278    5.4616    5.7564 C.ar      1 RES1    0.0000
      5 C5         5.7012    4.2919    6.4600 C.ar      1 RES1    0.0000
      6 C6         5.8892    3.0850    5.8568 C.ar      1 RES1    0.0000
      7 C7         5.8651    3.0040    4.4484 C.ar      1 RES1    0.0000
      8 C8         6.0323    1.6673    3.7762 C.3       1 RES1    0.0000
      9 C9         5.1425    1.6721    2.5149 C.3       1 RES1    0.0000
     10 C10        5.5325    2.8141    1.6292 C.ar      1 RES1    0.0000
     11 C11        5.5910    2.6910    0.2371 C.ar      1 RES1    0.0000
     12 C12        5.9645    3.7555   -0.5360 C.ar      1 RES1    0.0000
     13 C13        6.4035    4.9402    0.0200 C.ar      1 RES1    0.0000
     14 C14        6.4796    5.0337    1.4266 C.ar      1 RES1    0.0000
     15 C15        7.2658    6.1711    1.9537 C.ar      1 RES1    0.0000
     16 C16        7.3279    7.3560    1.2328 C.ar      1 RES1    0.0000
     17 C17        6.5712    7.3949   -0.0856 C.3       1 RES1    0.0000
     18 C18        6.8310    6.1000   -0.8221 C.3       1 RES1    0.0000
     19 C19        8.1001    8.4124    1.6767 C.ar      1 RES1    0.0000
     20 C20        8.8655    8.2831    2.8371 C.ar      1 RES1    0.0000
     21 C21        8.8478    7.0996    3.5303 C.ar      1 RES1    0.0000
     22 C22        8.0626    6.0432    3.1019 C.ar      1 RES1    0.0000
     23 N1         5.9293    4.3175    7.9291 N.pl3     1 RES1    0.0000
     24 O1         6.3909    5.3314    8.4184 O.2       1 RES1    0.0000
     25 O2         5.7002    3.3039    8.5540 O.2       1 RES1    0.0000
     26 C23        4.8956    6.6602    6.3650 C.ar      1 RES1    0.0000
     27 C24        4.4414    7.7078    5.6308 C.ar      1 RES1    0.0000
     28 C25        4.3613    7.6009    4.2268 C.ar      1 RES1    0.0000
     29 C26        4.7749    6.4578    3.6151 C.ar      1 RES1    0.0000
     30 C27        1.5788    3.0491    9.2096 C.ar      2 RES2    0.0000
     31 C28        1.0264    1.8737    8.5820 C.ar      2 RES2    0.0000
     32 C29        1.1242    1.7177    7.1651 C.ar      2 RES2    0.0000
     33 C30        1.6705    2.7998    6.4548 C.ar      2 RES2    0.0000
     34 C31        1.9780    4.0029    7.0317 C.ar      2 RES2    0.0000
     35 C32        1.9064    4.1365    8.4313 C.ar      2 RES2    0.0000
     36 C33        2.1874    5.4705    9.0825 C.3       2 RES2    0.0000
     37 N2         1.9461    2.7085    5.0092 N.pl3     2 RES2    0.0000
     38 O3         2.2267    1.5923    4.5441 O.2       2 RES2    0.0000
     39 O4         2.0373    3.7348    4.3677 O.2       2 RES2    0.0000
     40 C34        0.5752    0.5518    6.5754 C.ar      2 RES2    0.0000
     41 C35       -0.0262   -0.4014    7.3236 C.ar      2 RES2    0.0000
     42 C36       -0.1439   -0.2303    8.7221 C.ar      2 RES2    0.0000
     43 C37        0.3859    0.8620    9.3165 C.ar      2 RES2    0.0000
     44 C38        1.7529    3.1715   10.6756 C.ar      2 RES2    0.0000
     45 C39        2.1937    2.1267   11.4980 C.ar      2 RES2    0.0000
     46 C40        2.8756    0.8978   11.0139 C.ar      2 RES2    0.0000
     47 C41        3.6866    0.9160    9.8691 C.ar      2 RES2    0.0000
     48 C42        4.3516   -0.2238    9.4781 C.ar      2 RES2    0.0000
     49 C43        4.2334   -1.3961   10.1773 C.ar      2 RES2    0.0000
     50 C44        3.4536   -1.3997   11.3317 C.ar      2 RES2    0.0000
     51 C45        2.7895   -0.2982   11.7502 C.ar      2 RES2    0.0000
     52 C46        2.1241    2.2850   12.9067 C.ar      2 RES2    0.0000
     53 C47        1.8124    3.5301   13.4201 C.ar      2 RES2    0.0000
     54 C48        1.5687    4.6080   12.6288 C.ar      2 RES2    0.0000
     55 C49        1.5190    4.4419   11.2383 C.ar      2 RES2    0.0000
     56 C50        2.3956    1.0541   13.7729 C.3       2 RES2    0.0000
     57 C51        2.0294   -0.2192   13.0698 C.3       2 RES2    0.0000
     58 C52        1.2728    5.5827   10.3148 C.3       2 RES2    0.0000
     59 H1         6.0302    2.3022    6.3896 H         1 RES1    0.0000
     60 H2         6.9828    1.5585    3.5152 H         1 RES1    0.0000
     61 H3         5.7574    0.9336    4.3947 H         1 RES1    0.0000
     62 H4         5.2783    0.8127    2.0469 H         1 RES1    0.0000
     63 H5         4.1904    1.7727    2.8018 H         1 RES1    0.0000
     64 H6         5.4137    1.8490   -0.1738 H         1 RES1    0.0000
     65 H7         5.9201    3.6897   -1.4761 H         1 RES1    0.0000
     66 H8         6.8551    8.1760   -0.6330 H         1 RES1    0.0000
     67 H9         5.6081    7.4551    0.1193 H         1 RES1    0.0000
     68 H10        7.7989    6.0388   -1.0377 H         1 RES1    0.0000
     69 H11        6.3071    6.0821   -1.6577 H         1 RES1    0.0000
     70 H12        8.1094    9.2404    1.1960 H         1 RES1    0.0000
     71 H13        9.3730    9.0198    3.1520 H         1 RES1    0.0000
     72 H14        9.3996    6.9884    4.3065 H         1 RES1    0.0000
     73 H15        8.0731    5.2103    3.5853 H         1 RES1    0.0000
     74 H16        4.9252    6.7211    7.3236 H         1 RES1    0.0000
     75 H17        4.1929    8.5085    6.0628 H         1 RES1    0.0000
     76 H18        4.0319    8.3416    3.7098 H         1 RES1    0.0000
     77 H19        4.7294    6.3854    2.6643 H         1 RES1    0.0000
     78 H20        2.2302    4.7462    6.4882 H         2 RES2    0.0000
     79 H21        3.1151    5.4839    9.4016 H         2 RES2    0.0000
     80 H22        2.0507    6.1951    8.4391 H         2 RES2    0.0000
     81 H23        0.6631    0.4569    5.6217 H         2 RES2    0.0000
     82 H24       -0.3478   -1.1849    6.9111 H         2 RES2    0.0000
     83 H25       -0.5939   -0.8847    9.2433 H         2 RES2    0.0000
     84 H26        0.3381    0.9561   10.2551 H         2 RES2    0.0000
     85 H27        3.7954    1.7173    9.3886 H         2 RES2    0.0000
     86 H28        4.9241   -0.1904    8.7193 H         2 RES2    0.0000
     87 H29        4.6654   -2.1758    9.8737 H         2 RES2    0.0000
     88 H30        3.3582   -2.1869   11.8298 H         2 RES2    0.0000
     89 H31        1.7614    3.6371   14.3436 H         2 RES2    0.0000
     90 H32        1.4678    5.4626   13.0283 H         2 RES2    0.0000
     91 H33        1.8745    1.1363   14.5927 H         2 RES2    0.0000
     92 H34        3.3539    1.0377   13.9960 H         2 RES2    0.0000
     93 H35        2.2137   -1.0114   13.6276 H         2 RES2    0.0000
     94 H36        1.0826   -0.1977   12.8545 H         2 RES2    0.0000
     95 H37        1.4481    6.4406   10.7687 H         2 RES2    0.0000
     96 H38        0.3319    5.5600    9.9853 H         2 RES2    0.0000
@<TRIPOS>BOND
     1    1    2 1
     2    2    3 ar
     3    3    4 ar
     4    4    5 ar
     5    5    6 ar
     6    6    7 ar
     7    7    2 ar
     8    8    7 1
     9    9    8 1
    10   10    1 ar
    11   11   10 ar
    12   12   11 ar
    13   13   12 ar
    14   14    1 ar
    15   15   14 1
    16   16   15 ar
    17   17   16 1
    18   18   13 1
    19   19   16 ar
    20   20   19 ar
    21   21   20 ar
    22   22   15 ar
    23   23    5 1
    24   24   23 2
    25   25   23 2
    26   26    4 ar
    27   27   26 ar
    28   28   27 ar
    29   29    3 ar
    30   30   31 ar
    31   31   32 ar
    32   32   33 ar
    33   33   34 ar
    34   34   35 ar
    35   35   30 ar
    36   36   35 1
    37   37   33 1
    38   38   37 2
    39   39   37 2
    40   40   32 ar
    41   41   40 ar
    42   42   41 ar
    43   43   31 ar
    44   44   30 1
    45   45   44 ar
    46   46   45 1
    47   47   46 ar
    48   48   47 ar
    49   49   48 ar
    50   50   49 ar
    51   51   46 ar
    52   52   45 ar
    53   53   52 ar
    54   54   53 ar
    55   55   44 ar
    56   56   52 1
    57   57   51 1
    58   58   36 1
    59   59    6 1
    60   60    8 1
    61   61    8 1
    62   62    9 1
    63   63    9 1
    64   64   11 1
    65   65   12 1
    66   66   17 1
    67   67   17 1
    68   68   18 1
    69   69   18 1
    70   70   19 1
    71   71   20 1
    72   72   21 1
    73   73   22 1
    74   74   26 1
    75   75   27 1
    76   76   28 1
    77   77   29 1
    78   78   34 1
    79   79   36 1
    80   80   36 1
    81   81   40 1
    82   82   41 1
    83   83   42 1
    84   84   43 1
    85   85   47 1
    86   86   48 1
    87   87   49 1
    88   88   50 1
    89   89   53 1
    90   90   54 1
    91   91   56 1
    92   92   56 1
    93   93   57 1
    94   94   57 1
    95   95   58 1
    96   96   58 1
    97    9   10 1
    98   13   14 ar
    99   17   18 1
   100   21   22 ar
   101   28   29 ar
   102   42   43 ar
   103   50   51 ar
   104   54   55 ar
   105   55   58 1
   106   56   57 1
@<TRIPOS>SUBSTRUCTURE
     1 RES1 1
     2 RES2 30

@<TRIPOS>CRYSIN
   8.0168    9.2014   26.3482  79.9470  89.9860  86.8990   2 1

