# MOL2 file generated by ConQuest
# Please check atom types

@<TRIPOS>MOLECULE
TIJLIH
    40    42     2
SMALL
NO_CHARGES
****
Generated from CSD

@<TRIPOS>ATOM
      1 N1         0.2417    2.6991    9.0755 N.pl3     1 RES1    0.0000
      2 N2        -0.0436    1.4221    8.7607 N.2       1 RES1    0.0000
      3 N3        -0.1048    0.7866    9.8819 N.2       1 RES1    0.0000
      4 N4         0.1324    1.6135   10.9225 N.2       1 RES1    0.0000
      5 C1         0.3340    2.7844   10.3965 C.2       1 RES1    0.0000
      6 H1         0.5261    3.5452   10.8804 H         1 RES1    0.0000
      7 C2         0.4341    3.6722    8.0492 C.ar      1 RES1    0.0000
      8 C3         0.1128    5.0121    8.3041 C.ar      1 RES1    0.0000
      9 C4         0.3206    5.9571    7.2989 C.ar      1 RES1    0.0000
     10 H2         0.0712    6.8821    7.5046 H         1 RES1    0.0000
     11 C5         0.8141    5.5746    6.0711 C.ar      1 RES1    0.0000
     12 H3         0.9756    6.2445    5.3683 H         1 RES1    0.0000
     13 C6         1.0917    4.2372    5.8496 C.ar      1 RES1    0.0000
     14 C7         0.9132    3.2695    6.8219 C.ar      1 RES1    0.0000
     15 H4         1.1613    2.3326    6.6534 H         1 RES1    0.0000
     16 N5         1.6409    3.8255    4.5629 N.pl3     1 RES1    0.0000
     17 O1        -0.3920    5.3089    9.5059 O.3       1 RES1    0.0000
     18 H5        -0.4169    6.2088    9.5912 H         1 RES1    0.0000
     19 O2         1.9508    4.7039    3.7642 O.2       1 RES1    0.0000
     20 O3         1.8051    2.6487    4.3512 O.2       1 RES1    0.0000
     21 N6         3.4523    0.7113   11.5496 N.pl3     2 RES2    0.0000
     22 N7         3.6678    1.1649   10.2968 N.2       2 RES2    0.0000
     23 N8         3.4325    0.1845    9.4977 N.2       2 RES2    0.0000
     24 N9         3.0705   -0.9100   10.1869 N.2       2 RES2    0.0000
     25 C8         3.0776   -0.5647   11.4475 C.2       2 RES2    0.0000
     26 H6         2.8001   -1.1491   12.1613 H         2 RES2    0.0000
     27 C9         3.6955    1.5651   12.6714 C.ar      2 RES2    0.0000
     28 C10        3.3967    1.1278   13.9726 C.ar      2 RES2    0.0000
     29 C11        3.6466    1.9909   15.0425 C.ar      2 RES2    0.0000
     30 H7         3.4415    1.7167   15.9613 H         2 RES2    0.0000
     31 C12        4.2048    3.2312   14.8326 C.ar      2 RES2    0.0000
     32 H8         4.3874    3.8209   15.5703 H         2 RES2    0.0000
     33 C13        4.5054    3.6187   13.5389 C.ar      2 RES2    0.0000
     34 C14        4.2519    2.8095   12.4494 C.ar      2 RES2    0.0000
     35 H9         4.4211    3.0872   11.5658 H         2 RES2    0.0000
     36 N10        5.1197    4.9238   13.3084 N.pl3     2 RES2    0.0000
     37 O4         2.8951   -0.1014   14.1300 O.3       2 RES2    0.0000
     38 H10        2.8453   -0.2803   15.0452 H         2 RES2    0.0000
     39 O5         5.3088    5.6563   14.2680 O.2       2 RES2    0.0000
     40 O6         5.4160    5.2299   12.1655 O.2       2 RES2    0.0000
@<TRIPOS>BOND
     1    1    2 1
     2    2    3 2
     3    3    4 1
     4    4    5 2
     5    5    1 1
     6    6    5 1
     7    7    1 1
     8    8    7 ar
     9    9    8 ar
    10   10    9 1
    11   11    9 ar
    12   12   11 1
    13   13   11 ar
    14   14    7 ar
    15   15   14 1
    16   16   13 1
    17   17    8 1
    18   18   17 1
    19   19   16 2
    20   20   16 2
    21   21   22 1
    22   22   23 2
    23   23   24 1
    24   24   25 2
    25   25   21 1
    26   26   25 1
    27   27   21 1
    28   28   27 ar
    29   29   28 ar
    30   30   29 1
    31   31   29 ar
    32   32   31 1
    33   33   31 ar
    34   34   27 ar
    35   35   34 1
    36   36   33 1
    37   37   28 1
    38   38   37 1
    39   39   36 2
    40   40   36 2
    41   13   14 ar
    42   33   34 ar
@<TRIPOS>SUBSTRUCTURE
     1 RES1 1
     2 RES2 21

@<TRIPOS>CRYSIN
   7.1160    9.4520   13.8950  86.4300  84.1700  68.4200   2 1

