# MOL2 file generated by ConQuest
# Please check atom types

@<TRIPOS>MOLECULE
TIJPIM
    54    57     1
SMALL
NO_CHARGES
****
Generated from CSD

@<TRIPOS>ATOM
      1 O1        -0.5272    4.1537    7.4013 O.2       1 RES1    0.0000
      2 O2        -1.2981    5.9756    8.0553 O.2       1 RES1    0.0000
      3 O3        -1.1634    7.2203   12.6890 O.2       1 RES1    0.0000
      4 O4        -0.8980    5.7210   14.1914 O.2       1 RES1    0.0000
      5 O5        -4.2111   -0.1260   11.3759 O.2       1 RES1    0.0000
      6 O6        -4.1504    1.5954   12.7584 O.2       1 RES1    0.0000
      7 O7        -7.1131    4.9723   10.9933 O.2       1 RES1    0.0000
      8 O8        -7.0211    5.4384    8.9037 O.2       1 RES1    0.0000
      9 N1        -0.0477   -0.0383    9.8999 N.ar      1 RES1    0.0000
     10 N2        -1.0202    4.8563    8.2522 N.pl3     1 RES1    0.0000
     11 N3        -1.0101    6.0521   13.0235 N.pl3     1 RES1    0.0000
     12 N4        -2.7578    0.3722    6.7207 N.ar      1 RES1    0.0000
     13 N5        -4.2343    1.0930   11.6296 N.pl3     1 RES1    0.0000
     14 N6        -6.6834    4.8077    9.8658 N.pl3     1 RES1    0.0000
     15 C1         1.0160   -0.8125    9.9757 C.ar      1 RES1    0.0000
     16 H1         1.0401   -1.4700   10.6335 H         1 RES1    0.0000
     17 C2         2.0888   -0.6928    9.1297 C.ar      1 RES1    0.0000
     18 H2         2.8267   -1.2499    9.2270 H         1 RES1    0.0000
     19 C3         2.0638    0.2489    8.1449 C.ar      1 RES1    0.0000
     20 H3         2.7754    0.3296    7.5515 H         1 RES1    0.0000
     21 C4         0.9887    1.0653    8.0427 C.ar      1 RES1    0.0000
     22 H4         0.9504    1.7241    7.3874 H         1 RES1    0.0000
     23 C5        -0.0542    0.8927    8.9416 C.ar      1 RES1    0.0000
     24 C6        -1.2448    1.7930    8.8936 C.3       1 RES1    0.0000
     25 C7        -1.0728    2.9594    9.9315 C.ar      1 RES1    0.0000
     26 C8        -1.0544    4.3442    9.6423 C.ar      1 RES1    0.0000
     27 C9        -1.0425    5.3552   10.6398 C.ar      1 RES1    0.0000
     28 H5        -1.0559    6.2541   10.4024 H         1 RES1    0.0000
     29 C10       -1.0106    4.9812   11.9592 C.ar      1 RES1    0.0000
     30 C11       -0.9719    3.6383   12.3127 C.ar      1 RES1    0.0000
     31 H6        -0.9180    3.3846   13.2066 H         1 RES1    0.0000
     32 C12       -1.0166    2.6619   11.2862 C.ar      1 RES1    0.0000
     33 H7        -1.0077    1.7661   11.5362 H         1 RES1    0.0000
     34 C13       -3.1521   -0.4940    5.7157 C.ar      1 RES1    0.0000
     35 H8        -3.0172   -0.2071    4.8420 H         1 RES1    0.0000
     36 C14       -3.7314   -1.7515    5.8773 C.ar      1 RES1    0.0000
     37 H9        -3.9865   -2.2669    5.1463 H         1 RES1    0.0000
     38 C15       -3.9093   -2.1963    7.1664 C.ar      1 RES1    0.0000
     39 H10       -4.2942   -3.0249    7.3419 H         1 RES1    0.0000
     40 C16       -3.4870   -1.3464    8.2181 C.ar      1 RES1    0.0000
     41 H11       -3.5755   -1.6407    9.0956 H         1 RES1    0.0000
     42 C17       -2.9340   -0.0659    7.9795 C.ar      1 RES1    0.0000
     43 C18       -2.5861    0.9474    9.1310 C.3       1 RES1    0.0000
     44 C19       -3.7347    1.8973    9.3204 C.ar      1 RES1    0.0000
     45 C20       -4.4555    2.0043   10.4996 C.ar      1 RES1    0.0000
     46 C21       -5.4023    2.9606   10.7080 C.ar      1 RES1    0.0000
     47 H12       -5.8333    3.0561   11.5261 H         1 RES1    0.0000
     48 C22       -5.6801    3.7717    9.6449 C.ar      1 RES1    0.0000
     49 C23       -5.0469    3.6712    8.4328 C.ar      1 RES1    0.0000
     50 H13       -5.2834    4.2264    7.7257 H         1 RES1    0.0000
     51 C24       -4.0768    2.7536    8.2889 C.ar      1 RES1    0.0000
     52 H14       -3.6261    2.6913    7.4783 H         1 RES1    0.0000
     53 H15       -2.4483    0.4570   10.0868 H         1 RES1    0.0000
     54 H16       -1.3199    2.1209    7.9063 H         1 RES1    0.0000
@<TRIPOS>BOND
     1    1   10 2
     2    2   10 2
     3    3   11 2
     4    4   11 2
     5    5   13 2
     6    6   13 2
     7    7   14 2
     8    8   14 2
     9    9   15 ar
    10   10   26 1
    11   11   29 1
    12   12   34 ar
    13   13   45 1
    14   14   48 1
    15   15   16 1
    16   17   15 ar
    17   18   17 1
    18   19   17 ar
    19   20   19 1
    20   21   19 ar
    21   22   21 1
    22   23    9 ar
    23   24   23 1
    24   25   24 1
    25   26   25 ar
    26   27   26 ar
    27   28   27 1
    28   29   27 ar
    29   30   29 ar
    30   31   30 1
    31   32   25 ar
    32   33   32 1
    33   34   35 1
    34   36   34 ar
    35   37   36 1
    36   38   36 ar
    37   39   38 1
    38   40   38 ar
    39   41   40 1
    40   42   12 ar
    41   43   24 1
    42   44   43 1
    43   45   44 ar
    44   46   45 ar
    45   47   46 1
    46   48   46 ar
    47   49   48 ar
    48   50   49 1
    49   51   44 ar
    50   52   51 1
    51   53   43 1
    52   54   24 1
    53   21   23 ar
    54   30   32 ar
    55   40   42 ar
    56   42   43 1
    57   49   51 ar
@<TRIPOS>SUBSTRUCTURE
     1 RES1 1

@<TRIPOS>CRYSIN
   9.1260   10.9272   13.8930 101.4370 107.1560 106.6390   2 1

