# MOL2 file generated by ConQuest
# Please check atom types

@<TRIPOS>MOLECULE
TIJPOS
    30    31     1
SMALL
NO_CHARGES
****
Generated from CSD

@<TRIPOS>ATOM
      1 O1         5.7650    4.7795    1.5785 O.3       1 RES1    0.0000
      2 H1         5.4831    5.4597    1.1747 H         1 RES1    0.0000
      3 N1         4.6894    3.8748    1.7887 N.2       1 RES1    0.0000
      4 N2         5.7304    2.1977    5.0170 N.3       1 RES1    0.0000
      5 C1         5.0893    2.8289    2.3989 C.2       1 RES1    0.0000
      6 H2         5.9827    2.7514    2.7119 H         1 RES1    0.0000
      7 C2         4.1099    1.7412    2.5993 C.ar      1 RES1    0.0000
      8 C3         3.2744    1.4741    1.5417 C.ar      1 RES1    0.0000
      9 H3         3.3408    2.0094    0.7604 H         1 RES1    0.0000
     10 C4         2.3281    0.4393    1.5725 C.ar      1 RES1    0.0000
     11 H4         1.7362    0.3089    0.8414 H         1 RES1    0.0000
     12 C5         2.2654   -0.3691    2.6541 C.ar      1 RES1    0.0000
     13 H5         1.6427   -1.0853    2.6654 H         1 RES1    0.0000
     14 C6         3.1082   -0.1686    3.7628 C.ar      1 RES1    0.0000
     15 C7         3.0713   -1.0816    4.8451 C.ar      1 RES1    0.0000
     16 H6         2.4524   -1.8027    4.8294 H         1 RES1    0.0000
     17 C8         3.9068   -0.9401    5.9042 C.ar      1 RES1    0.0000
     18 H7         3.8945   -1.5775    6.6083 H         1 RES1    0.0000
     19 C9         4.7940    0.1526    5.9605 C.ar      1 RES1    0.0000
     20 H8         5.3662    0.2461    6.7134 H         1 RES1    0.0000
     21 C10        4.8531    1.0841    4.9540 C.ar      1 RES1    0.0000
     22 C11        4.0323    0.9204    3.7785 C.ar      1 RES1    0.0000
     23 C12        5.0598    3.4343    5.4223 C.3       1 RES1    0.0000
     24 H9         5.6222    4.2022    5.1896 H         1 RES1    0.0000
     25 H10        4.9085    3.4220    6.3906 H         1 RES1    0.0000
     26 H11        4.1997    3.5069    4.9577 H         1 RES1    0.0000
     27 C13        6.9646    1.9860    5.7488 C.3       1 RES1    0.0000
     28 H12        6.7813    2.0045    6.7111 H         1 RES1    0.0000
     29 H13        7.6033    2.6936    5.5237 H         1 RES1    0.0000
     30 H14        7.3424    1.1148    5.5057 H         1 RES1    0.0000
@<TRIPOS>BOND
     1    1    2 1
     2    3    1 1
     3    4   21 1
     4    5    3 2
     5    6    5 1
     6    7    5 1
     7    8    7 ar
     8    9    8 1
     9   10    8 ar
    10   11   10 1
    11   12   10 ar
    12   13   12 1
    13   14   12 ar
    14   15   14 ar
    15   16   15 1
    16   17   15 ar
    17   18   17 1
    18   19   17 ar
    19   20   19 1
    20   21   19 ar
    21   22    7 ar
    22   23    4 1
    23   24   23 1
    24   25   23 1
    25   26   23 1
    26   27    4 1
    27   28   27 1
    28   29   27 1
    29   30   27 1
    30   14   22 ar
    31   21   22 ar
@<TRIPOS>SUBSTRUCTURE
     1 RES1 1

@<TRIPOS>CRYSIN
  12.3050   12.3050    7.5060  90.0000  90.0000  90.0000  76 1

