# MOL2 file generated by ConQuest
# Please check atom types

@<TRIPOS>MOLECULE
TIJPEI
    25    27     1
SMALL
USER_CHARGES
****
Generated from CSD

@<TRIPOS>ATOM
      1 O1        -3.6290   12.3252   19.1163 O.2       1 RES1    0.0000
      2 O2        -3.5397   10.2436   19.6364 O.2       1 RES1    0.0000
      3 O3         0.5375   11.1195   13.6628 O.2       1 RES1    0.0000
      4 N1        -3.2289   11.1837   18.9297 N.pl3     1 RES1    0.0000
      5 N2        -0.4060    8.1946   16.4574 N.2       1 RES1   -1.0000
      6 N3         0.4011    7.9660   15.3870 N.pl3     1 RES1    1.0000
      7 C1         0.7385    8.8939   14.4188 C.ar      1 RES1    0.0000
      8 C2         1.5769    8.4844   13.3671 C.ar      1 RES1    0.0000
      9 H1         1.8222    9.1062   12.7067 H         1 RES1    0.0000
     10 C3         2.0443    7.2000   13.2844 C.ar      1 RES1    0.0000
     11 H2         2.5981    6.9347   12.5736 H         1 RES1    0.0000
     12 C4         1.6789    6.2925   14.2797 C.ar      1 RES1    0.0000
     13 H3         1.9831    5.4041   14.2394 H         1 RES1    0.0000
     14 C5         0.8893    6.6885   15.3045 C.ar      1 RES1    0.0000
     15 H4         0.6696    6.0708   15.9771 H         1 RES1    0.0000
     16 C6         0.2222   10.2545   14.5022 C.2       1 RES1    0.0000
     17 C7        -0.6644   10.5062   15.6283 C.ar      1 RES1    0.0000
     18 C8        -1.2623   11.7715   15.8315 C.ar      1 RES1    0.0000
     19 H5        -1.0792   12.4654   15.2239 H         1 RES1    0.0000
     20 C9        -2.0964   12.0150   16.8827 C.ar      1 RES1    0.0000
     21 H6        -2.5004   12.8558   17.0053 H         1 RES1    0.0000
     22 C10       -2.3252   10.9443   17.7785 C.ar      1 RES1    0.0000
     23 C11       -1.7812    9.7075   17.6389 C.ar      1 RES1    0.0000
     24 H7        -1.9703    9.0286   18.2613 H         1 RES1    0.0000
     25 C12       -0.9125    9.4545   16.5266 C.ar      1 RES1    0.0000
@<TRIPOS>BOND
     1    1    4 2
     2    2    4 2
     3    3   16 2
     4    4   22 1
     5    5    6 1
     6    6    7 ar
     7    7    8 ar
     8    8    9 1
     9   10    8 ar
    10   11   10 1
    11   12   10 ar
    12   13   12 1
    13   14    6 ar
    14   15   14 1
    15   16    7 1
    16   17   16 1
    17   18   17 ar
    18   19   18 1
    19   20   18 ar
    20   21   20 1
    21   22   20 ar
    22   23   22 ar
    23   24   23 1
    24   25    5 1
    25   12   14 ar
    26   17   25 ar
    27   23   25 ar
@<TRIPOS>SUBSTRUCTURE
     1 RES1 1

@<TRIPOS>CRYSIN
   4.2493   13.6055   17.5911  90.0000  95.2670  90.0000 231 1

