# MOL2 file generated by ConQuest
# Please check atom types

@<TRIPOS>MOLECULE
TIJRUA
    31    31     1
SMALL
NO_CHARGES
****
Generated from CSD

@<TRIPOS>ATOM
      1 O1         3.5336    6.9984    1.4430 O.2       1 RES1    0.0000
      2 O2         2.2112   10.4113   -0.3977 O.2       1 RES1    0.0000
      3 O3        -2.2305    7.5170    0.1039 O.2       1 RES1    0.0000
      4 O4        -1.4624    7.5029    2.1380 O.2       1 RES1    0.0000
      5 O5         2.6391    4.0756    1.3017 O.2       1 RES1    0.0000
      6 O6         1.8681    2.0988    0.8981 O.2       1 RES1    0.0000
      7 N1         0.8552    7.4093    0.5542 N.2       1 RES1    0.0000
      8 N2         1.1249    6.1648    0.9469 N.pl3     1 RES1    0.0000
      9 H1         1.8742    5.9294    1.0708 H         1 RES1    0.0000
     10 N3        -1.6647    6.9831    1.0453 N.pl3     1 RES1    0.0000
     11 N4         1.7109    3.3054    1.0445 N.pl3     1 RES1    0.0000
     12 C1         3.9701    9.3285    1.5573 C.3       1 RES1    0.0000
     13 H2         4.6958    9.0545    2.1568 H         1 RES1    0.0000
     14 H3         3.4068    9.9927    2.0082 H         1 RES1    0.0000
     15 H4         4.3503    9.7214    0.7437 H         1 RES1    0.0000
     16 C2         3.1437    8.1348    1.1975 C.2       1 RES1    0.0000
     17 C3         1.7855    8.3266    0.6038 C.2       1 RES1    0.0000
     18 C4         1.3682    9.6479    0.0335 C.2       1 RES1    0.0000
     19 C5        -0.0933    9.9726   -0.0102 C.3       1 RES1    0.0000
     20 H5        -0.2107   10.9226   -0.2200 H         1 RES1    0.0000
     21 H6        -0.4967    9.7794    0.8617 H         1 RES1    0.0000
     22 H7        -0.5278    9.4294   -0.7000 H         1 RES1    0.0000
     23 C6         0.1056    5.2256    0.9375 C.ar      1 RES1    0.0000
     24 C7        -1.2514    5.5827    0.8930 C.ar      1 RES1    0.0000
     25 C8        -2.2823    4.6725    0.7947 C.ar      1 RES1    0.0000
     26 H8        -3.1829    4.9725    0.7437 H         1 RES1    0.0000
     27 C9        -1.9927    3.3110    0.7707 C.ar      1 RES1    0.0000
     28 H9        -2.6900    2.6716    0.6869 H         1 RES1    0.0000
     29 C10       -0.6838    2.9042    0.8697 C.ar      1 RES1    0.0000
     30 H10       -0.4810    1.9758    0.8850 H         1 RES1    0.0000
     31 C11        0.3525    3.8391    0.9477 C.ar      1 RES1    0.0000
@<TRIPOS>BOND
     1    1   16 2
     2    2   18 2
     3    3   10 2
     4    4   10 2
     5    5   11 2
     6    6   11 2
     7    7    8 1
     8    8    9 1
     9   10   24 1
    10   11   31 1
    11   12   13 1
    12   14   12 1
    13   15   12 1
    14   16   12 1
    15   17    7 2
    16   18   17 1
    17   19   18 1
    18   20   19 1
    19   21   19 1
    20   22   19 1
    21   23    8 1
    22   24   23 ar
    23   25   24 ar
    24   26   25 1
    25   27   25 ar
    26   28   27 1
    27   29   27 ar
    28   30   29 1
    29   31   23 ar
    30   16   17 1
    31   29   31 ar
@<TRIPOS>SUBSTRUCTURE
     1 RES1 1

@<TRIPOS>CRYSIN
   8.2901   20.7103    7.5758  90.0000 105.9530  90.0000   9 1

