# MOL2 file generated by ConQuest
# Please check atom types

@<TRIPOS>MOLECULE
TIJROU
    29    29     1
SMALL
NO_CHARGES
****
Generated from CSD

@<TRIPOS>ATOM
      1 O1         5.8262    8.8625    1.6944 O.2       1 RES1    0.0000
      2 O2         4.3576    7.5110    5.3546 O.2       1 RES1    0.0000
      3 O3         5.7340    7.9531   -1.2455 O.2       1 RES1    0.0000
      4 O4         5.6247    7.1380   -3.2152 O.2       1 RES1    0.0000
      5 N1         4.4573    6.4308    2.0788 N.2       1 RES1    0.0000
      6 N2         4.7806    6.6713    0.8277 N.pl3     1 RES1    0.0000
      7 H1         5.1539    7.3261    0.5768 H         1 RES1    0.0000
      8 N3         5.4181    7.0589   -2.0153 N.pl3     1 RES1    0.0000
      9 C1         5.7857    9.4696    3.9703 C.3       1 RES1    0.0000
     10 H2         6.2911   10.2197    3.6493 H         1 RES1    0.0000
     11 H3         6.3004    8.9940    4.6269 H         1 RES1    0.0000
     12 H4         4.9694    9.7805    4.3678 H         1 RES1    0.0000
     13 C2         5.4713    8.5588    2.8307 C.2       1 RES1    0.0000
     14 C3         4.7476    7.2795    3.0385 C.2       1 RES1    0.0000
     15 C4         4.2641    6.8166    4.3663 C.2       1 RES1    0.0000
     16 C5         3.6463    5.4506    4.4556 C.3       1 RES1    0.0000
     17 H5         3.4607    5.2435    5.3742 H         1 RES1    0.0000
     18 H6         4.2550    4.7996    4.0971 H         1 RES1    0.0000
     19 H7         2.8287    5.4351    3.9521 H         1 RES1    0.0000
     20 C6         4.4433    5.7144   -0.1332 C.ar      1 RES1    0.0000
     21 C7         3.7658    4.5526    0.2421 C.ar      1 RES1    0.0000
     22 H8         3.5195    4.4335    1.1311 H         1 RES1    0.0000
     23 C8         3.4564    3.5781   -0.6843 C.ar      1 RES1    0.0000
     24 H9         3.0085    2.8101   -0.4115 H         1 RES1    0.0000
     25 C9         3.8064    3.7300   -2.0222 C.ar      1 RES1    0.0000
     26 H10        3.6041    3.0636   -2.6386 H         1 RES1    0.0000
     27 C10        4.4525    4.8705   -2.4252 C.ar      1 RES1    0.0000
     28 H11        4.6815    4.9826   -3.3199 H         1 RES1    0.0000
     29 C11        4.7669    5.8637   -1.4934 C.ar      1 RES1    0.0000
@<TRIPOS>BOND
     1    1   13 2
     2    2   15 2
     3    3    8 2
     4    4    8 2
     5    5    6 1
     6    6    7 1
     7    8   29 1
     8    9   10 1
     9   11    9 1
    10   12    9 1
    11   13    9 1
    12   14    5 2
    13   15   14 1
    14   16   15 1
    15   17   16 1
    16   18   16 1
    17   19   16 1
    18   20    6 1
    19   21   20 ar
    20   22   21 1
    21   23   21 ar
    22   24   23 1
    23   25   23 ar
    24   26   25 1
    25   27   25 ar
    26   28   27 1
    27   29   20 ar
    28   13   14 1
    29   27   29 ar
@<TRIPOS>SUBSTRUCTURE
     1 RES1 1

@<TRIPOS>CRYSIN
   7.2182    8.2163   11.4241  70.0590  87.6630  65.1290   2 1

