# MOL2 file generated by ConQuest
# Please check atom types

@<TRIPOS>MOLECULE
TIKRIP
    22    25     1
SMALL
NO_CHARGES
****
Generated from CSD

@<TRIPOS>ATOM
      1 O1         4.2002    2.8911   -1.9606 O.3       1 RES1    0.0000
      2 O2         7.7480    5.9085    0.7266 O.3       1 RES1    0.0000
      3 O3         8.9139    7.0489   -1.3178 O.3       1 RES1    0.0000
      4 N1         2.9169    2.3396   -1.6536 N.2       1 RES1    0.0000
      5 C1         4.0012    4.3488   -2.1467 C.3       1 RES1    0.0000
      6 C2         2.8399    4.6346   -1.2282 C.3       1 RES1    0.0000
      7 C3         1.8583    5.7319   -1.6037 C.3       1 RES1    0.0000
      8 C4         0.6525    5.6730   -0.6944 C.3       1 RES1    0.0000
      9 C5         0.0405    4.2942   -0.5456 C.ar      1 RES1    0.0000
     10 C6         0.7612    3.1352   -0.8780 C.ar      1 RES1    0.0000
     11 C7         2.1573    3.2961   -1.2637 C.2       1 RES1    0.0000
     12 C8         0.1371    1.8814   -0.7807 C.ar      1 RES1    0.0000
     13 C9        -1.1374    1.7780   -0.3104 C.ar      1 RES1    0.0000
     14 C10       -1.8444    2.9227    0.0634 C.ar      1 RES1    0.0000
     15 C11       -1.2613    4.1607   -0.0719 C.ar      1 RES1    0.0000
     16 C12        5.3120    5.0526   -1.9268 C.ar      1 RES1    0.0000
     17 C13        5.8967    5.1201   -0.6420 C.ar      1 RES1    0.0000
     18 C14        7.1020    5.7764   -0.4686 C.ar      1 RES1    0.0000
     19 C15        7.7478    6.3968   -1.5580 C.ar      1 RES1    0.0000
     20 C16        7.1723    6.3035   -2.8056 C.ar      1 RES1    0.0000
     21 C17        5.9583    5.6299   -2.9993 C.ar      1 RES1    0.0000
     22 C18        7.1485    5.3039    1.8685 C.3       1 RES1    0.0000
@<TRIPOS>BOND
     1    1    4 1
     2    2   18 1
     3    3   19 1
     4    4   11 2
     5    5    1 1
     6    6    5 1
     7    7    6 1
     8    8    7 1
     9    9    8 1
    10   10    9 ar
    11   11    6 1
    12   12   10 ar
    13   13   12 ar
    14   14   13 ar
    15   15    9 ar
    16   16    5 1
    17   17   16 ar
    18   18   17 ar
    19   19   18 ar
    20   20   19 ar
    21   21   16 ar
    22   22    2 1
    23   10   11 1
    24   14   15 ar
    25   20   21 ar
@<TRIPOS>SUBSTRUCTURE
     1 RES1 1

@<TRIPOS>CRYSIN
  11.7920   14.3620    8.4650  90.0000  92.2700  90.0000  14 1

