# MOL2 file generated by ConQuest
# Please check atom types

@<TRIPOS>MOLECULE
TILBAT
    36    39     1
SMALL
NO_CHARGES
****
Generated from CSD

@<TRIPOS>ATOM
      1 C1         1.3206    2.2688   16.0494 C.2       1 RES1    0.0000
      2 H1         1.7277    2.2360   15.2129 H         1 RES1    0.0000
      3 C2         0.7706    1.2016   16.6891 C.2       1 RES1    0.0000
      4 C3         0.2601    1.6883   17.9480 C.ar      1 RES1    0.0000
      5 C4        -0.4362    1.1084   19.0216 C.ar      1 RES1    0.0000
      6 H2        -0.6160    0.1962   19.0278 H         1 RES1    0.0000
      7 C5        -0.8498    1.9092   20.0668 C.ar      1 RES1    0.0000
      8 H3        -1.3179    1.5317   20.7759 H         1 RES1    0.0000
      9 C6        -0.5733    3.2911   20.0757 C.ar      1 RES1    0.0000
     10 H4        -0.8687    3.8103   20.7893 H         1 RES1    0.0000
     11 C7         0.1272    3.8915   19.0466 C.ar      1 RES1    0.0000
     12 H5         0.3194    4.8018   19.0595 H         1 RES1    0.0000
     13 C8         0.5373    3.0786   17.9827 C.ar      1 RES1    0.0000
     14 C9         0.7628   -0.2208   16.1942 C.3       1 RES1    0.0000
     15 H6         0.0132   -0.7014   16.6024 H         1 RES1    0.0000
     16 C10        2.0782   -0.9740   16.4968 C.3       1 RES1    0.0000
     17 H7         2.8202   -0.3374   16.4289 H         1 RES1    0.0000
     18 C11        2.2558   -2.0504   15.3885 C.3       1 RES1    0.0000
     19 H8         3.2062   -2.1952   15.1979 H         1 RES1    0.0000
     20 C12        1.5843   -1.3643   14.2312 C.ar      1 RES1    0.0000
     21 C13        1.7082   -1.6625   12.8762 C.ar      1 RES1    0.0000
     22 H9         2.3121   -2.3061   12.5823 H         1 RES1    0.0000
     23 C14        0.9067   -0.9754   11.9745 C.ar      1 RES1    0.0000
     24 H10        0.9749   -1.1545   11.0644 H         1 RES1    0.0000
     25 C15       -0.0018   -0.0161   12.4270 C.ar      1 RES1    0.0000
     26 H11       -0.5458    0.4246   11.8150 H         1 RES1    0.0000
     27 C16       -0.1042    0.2894   13.7777 C.ar      1 RES1    0.0000
     28 H12       -0.7037    0.9365   14.0719 H         1 RES1    0.0000
     29 C17        0.7015   -0.3856   14.6789 C.ar      1 RES1    0.0000
     30 N1         2.1430   -1.6280   17.8448 N.pl3     1 RES1    0.0000
     31 N2         1.1889    3.4015   16.8151 N.pl3     1 RES1    0.0000
     32 O1         1.1105   -1.9607   18.3926 O.2       1 RES1    0.0000
     33 O2         3.2517   -1.8480   18.3118 O.2       1 RES1    0.0000
     34 O3         1.6179   -3.2878   15.7412 O.3       1 RES1    0.0000
     35 H13        0.8073   -3.2151   15.6433 H         1 RES1    0.0000
     36 H14        1.5092    4.1515   16.6191 H         1 RES1    0.0000
@<TRIPOS>BOND
     1    1    2 1
     2    3    1 2
     3    4    3 1
     4    5    4 ar
     5    6    5 1
     6    7    5 ar
     7    8    7 1
     8    9    7 ar
     9   10    9 1
    10   11    9 ar
    11   12   11 1
    12   13    4 ar
    13   14    3 1
    14   15   14 1
    15   16   14 1
    16   17   16 1
    17   18   16 1
    18   19   18 1
    19   20   18 1
    20   21   20 ar
    21   22   21 1
    22   23   21 ar
    23   24   23 1
    24   25   23 ar
    25   26   25 1
    26   27   25 ar
    27   28   27 1
    28   29   14 1
    29   30   16 1
    30   31    1 1
    31   32   30 2
    32   33   30 2
    33   34   18 1
    34   35   34 1
    35   36   31 1
    36   11   13 ar
    37   13   31 1
    38   20   29 ar
    39   27   29 ar
@<TRIPOS>SUBSTRUCTURE
     1 RES1 1

@<TRIPOS>CRYSIN
   8.7746    9.4784   16.6808  90.0000  90.0000  90.0000  19 1

