# MOL2 file generated by ConQuest
# Please check atom types

@<TRIPOS>MOLECULE
TILJOP
    30    16     2
SMALL
NO_CHARGES
****
Generated from CSD

@<TRIPOS>ATOM
      1 O1         4.4505    1.6156    5.8132 O.3       1 RES1    0.0000
      2 O2         5.8292    3.3444    5.1596 O.2       1 RES1    0.0000
      3 O3         5.8736    1.3847    9.9490 O.2       1 RES1    0.0000
      4 O4         4.4209   -0.1454    9.4247 O.2       1 RES1    0.0000
      5 N1         8.3076    2.3980    8.1236 N.2       1 RES1    0.0000
      6 N2         9.1921    3.3499    8.4080 N.2       1 RES1    0.0000
      7 N3         8.5163    4.4760    8.2395 N.pl3     1 RES1    0.0000
      8 H1         8.8896    5.2646    8.3545 H         1 RES1    0.0000
      9 N4         7.2580    4.3481    7.8912 N.2       1 RES1    0.0000
     10 N5         5.5275    2.5777    6.0649 N.pl3     1 RES1    0.0000
     11 N6         4.2510    0.8973    6.9698 N.2       1 RES1    0.0000
     12 N7         5.1431    0.8198    9.1698 N.pl3     1 RES1    0.0000
     13 C1         7.1567    3.0399    7.8004 C.2       1 RES1    0.0000
     14 C2         5.9585    2.3549    7.3099 C.2       1 RES1    0.0000
     15 C3         5.1196    1.3377    7.8095 C.2       1 RES1    0.0000
     16 O5         4.5461    0.4890    8.7370 Du        2 SUP2    0.0000
     17 O6         6.1468    1.1736   10.2464 Du        2 SUP2    0.0000
     18 O7         5.6160    3.2833    5.5318 Du        2 SUP2    0.0000
     19 O8         4.2102    1.7347    4.9375 Du        2 SUP2    0.0000
     20 N8         7.1947    4.2690    7.9317 Du        2 SUP2    0.0000
     21 N9         8.4468    4.6550    8.1651 Du        2 SUP2    0.0000
     22 H2         8.7646    5.4750    8.1955 Du        2 SUP2    0.0000
     23 N10        9.1030    3.5188    8.3409 Du        2 SUP2    0.0000
     24 N11        8.3784    2.4253    8.3281 Du        2 SUP2    0.0000
     25 N12        5.6784    1.3339    9.1275 Du        2 SUP2    0.0000
     26 N13        4.1965    0.8292    7.4506 Du        2 SUP2    0.0000
     27 N14        4.9327    2.3117    5.7528 Du        2 SUP2    0.0000
     28 C4         7.1836    2.9219    8.0927 Du        2 SUP2    0.0000
     29 C5         5.9631    2.1105    8.0765 Du        2 SUP2    0.0000
     30 C6         5.0456    1.7222    7.0794 Du        2 SUP2    0.0000
@<TRIPOS>BOND
     1    1   10 1
     2    2   10 1
     3    3   12 2
     4    4   12 2
     5    5    6 2
     6    6    7 1
     7    7    8 1
     8    9    7 1
     9   10   14 2
    10   11    1 1
    11   12   15 1
    12   13    5 1
    13   14   13 1
    14   15   11 2
    15    9   13 2
    16   14   15 1
@<TRIPOS>SUBSTRUCTURE
     1 RES1 1
     2 SUP2 16

@<TRIPOS>CRYSIN
  13.5140    5.0446   20.9930  90.0000  90.0000  90.0000  61 1

