# MOL2 file generated by ConQuest
# Please check atom types

@<TRIPOS>MOLECULE
TIMGOM
    46    48     1
SMALL
NO_CHARGES
****
Generated from CSD

@<TRIPOS>ATOM
      1 C1         1.5882    1.7669    7.9982 C.ar      1 RES1    0.0000
      2 H1         0.6301    1.7573    8.0577 H         1 RES1    0.0000
      3 C2         2.2385    2.0885    6.8229 C.ar      1 RES1    0.0000
      4 H2         1.7248    2.3670    6.1255 H         1 RES1    0.0000
      5 C3         3.6148    2.0371    6.7356 C.ar      1 RES1    0.0000
      6 H3         4.0347    2.2714    5.8453 H         1 RES1    0.0000
      7 C4         4.3771    1.6796    7.8298 C.ar      1 RES1    0.0000
      8 H4         5.3713    1.6019    7.8083 H         1 RES1    0.0000
      9 C5         3.7273    1.4106    9.0303 C.ar      1 RES1    0.0000
     10 C6         2.3376    1.4325    9.1398 C.ar      1 RES1    0.0000
     11 O1         4.5198    1.0979   10.1051 O.3       1 RES1    0.0000
     12 C7         3.9964    0.7615   11.3321 C.2       1 RES1    0.0000
     13 C8         2.5394    0.8234   11.5030 C.2       1 RES1    0.0000
     14 C9         1.7731    1.1298   10.4392 C.2       1 RES1    0.0000
     15 O2         0.4036    1.2824   10.6135 O.3       1 RES1    0.0000
     16 C10       -0.4318    0.3419   10.0230 C.2       1 RES1    0.0000
     17 C11       -1.8494    0.6993   10.3300 C.3       1 RES1    0.0000
     18 H5        -2.4229    0.2032    9.8474 H         1 RES1    0.0000
     19 H6        -1.9843    0.1913   11.1593 H         1 RES1    0.0000
     20 H7        -1.9872    1.5661   10.6734 H         1 RES1    0.0000
     21 O3        -0.0265   -0.5589    9.3565 O.2       1 RES1    0.0000
     22 C12        1.9921    0.6623   12.9119 C.3       1 RES1    0.0000
     23 H8         1.0278    0.7770   12.8729 H         1 RES1    0.0000
     24 O4         4.7887    0.4575   12.1915 O.2       1 RES1    0.0000
     25 C13        2.5025    1.8434   13.7360 C.ar      1 RES1    0.0000
     26 C14        2.0291    3.1213   13.4433 C.ar      1 RES1    0.0000
     27 H9         1.3696    3.2158   12.8162 H         1 RES1    0.0000
     28 C15        2.5369    4.2415   14.0694 C.ar      1 RES1    0.0000
     29 H10        2.2230    5.0807   13.8787 H         1 RES1    0.0000
     30 C16        3.5308    4.0574   15.0155 C.ar      1 RES1    0.0000
     31 C17        4.0006    2.8141   15.3645 C.ar      1 RES1    0.0000
     32 H11        4.7009    2.7137   16.0231 H         1 RES1    0.0000
     33 C18        3.4761    1.7035   14.7201 C.ar      1 RES1    0.0000
     34 H12        3.8118    0.8368   14.9411 H         1 RES1    0.0000
     35 C19        2.2786   -0.7161   13.5285 C.3       1 RES1    0.0000
     36 H13        3.2466   -0.9444   13.5029 H         1 RES1    0.0000
     37 H14        2.0170   -0.6934   14.5006 H         1 RES1    0.0000
     38 C20        1.4931   -1.8506   12.9009 C.2       1 RES1    0.0000
     39 O5         0.5339   -1.6447   12.1850 O.2       1 RES1    0.0000
     40 C21        1.9675   -3.2445   13.2146 C.3       1 RES1    0.0000
     41 H15        2.8834   -3.4190   12.7789 H         1 RES1    0.0000
     42 H16        2.2237   -3.2756   14.0908 H         1 RES1    0.0000
     43 H17        1.2884   -3.9331   12.9247 H         1 RES1    0.0000
     44 N1         4.1449    5.2385   15.6467 N.pl3     1 RES1    0.0000
     45 O6         4.9354    5.0436   16.5634 O.2       1 RES1    0.0000
     46 O7         3.8430    6.3512   15.2340 O.2       1 RES1    0.0000
@<TRIPOS>BOND
     1    1    2 1
     2    3    1 ar
     3    4    3 1
     4    5    3 ar
     5    6    5 1
     6    7    5 ar
     7    8    7 1
     8    9    7 ar
     9   10    1 ar
    10   11    9 1
    11   12   11 1
    12   13   12 1
    13   14   10 1
    14   15   14 1
    15   16   15 1
    16   17   16 1
    17   18   17 1
    18   19   17 1
    19   20   17 1
    20   21   16 2
    21   22   13 1
    22   23   22 1
    23   24   12 2
    24   25   22 1
    25   26   25 ar
    26   27   26 1
    27   28   26 ar
    28   29   28 1
    29   30   28 ar
    30   31   30 ar
    31   32   31 1
    32   33   25 ar
    33   34   33 1
    34   35   22 1
    35   36   35 1
    36   37   35 1
    37   38   35 1
    38   39   38 2
    39   40   38 1
    40   41   40 1
    41   42   40 1
    42   43   40 1
    43   44   30 1
    44   45   44 2
    45   46   44 2
    46    9   10 ar
    47   13   14 2
    48   31   33 ar
@<TRIPOS>SUBSTRUCTURE
     1 RES1 1

@<TRIPOS>CRYSIN
   9.5505   11.9546   16.3360  90.0000  97.4970  90.0000  14 2

