# MOL2 file generated by ConQuest
# Please check atom types

@<TRIPOS>MOLECULE
TIMKIL
    37    39     1
SMALL
NO_CHARGES
****
Generated from CSD

@<TRIPOS>ATOM
      1 N1         2.2100    9.3934    3.6252 N.2       1 RES1    0.0000
      2 N2         2.3855    8.5397    4.7128 N.3       1 RES1    0.0000
      3 N3        -0.0685   12.4761    0.3659 N.pl3     1 RES1    0.0000
      4 O1         3.5260    6.8144    5.8112 O.3       1 RES1    0.0000
      5 H1         3.0933    6.2439    5.4133 H         1 RES1    0.0000
      6 O2        -0.8190   12.3774    1.3263 O.2       1 RES1    0.0000
      7 O3        -0.3674   13.0644   -0.6505 O.2       1 RES1    0.0000
      8 C1         3.7215    7.9291    4.9686 C.3       1 RES1    0.0000
      9 C2         4.6933    8.8463    5.6980 C.3       1 RES1    0.0000
     10 H2         5.4994    8.3500    5.9086 H         1 RES1    0.0000
     11 H3         4.2922    9.1296    6.5346 H         1 RES1    0.0000
     12 C3         5.0672   10.0793    4.8832 C.3       1 RES1    0.0000
     13 H4         4.3075   10.6812    4.8483 H         1 RES1    0.0000
     14 H5         5.7957   10.5434    5.3230 H         1 RES1    0.0000
     15 C4         5.4856    9.7204    3.4667 C.3       1 RES1    0.0000
     16 H6         6.3428    9.2676    3.4892 H         1 RES1    0.0000
     17 H7         5.5884   10.5319    2.9459 H         1 RES1    0.0000
     18 C5         4.4467    8.8103    2.7912 C.3       1 RES1    0.0000
     19 H8         4.7506    8.5777    1.8893 H         1 RES1    0.0000
     20 C6         4.2748    7.5393    3.6149 C.3       1 RES1    0.0000
     21 H9         3.6642    6.9329    3.1677 H         1 RES1    0.0000
     22 H10        5.1286    7.0918    3.7204 H         1 RES1    0.0000
     23 C7         3.1075    9.4946    2.7116 C.2       1 RES1    0.0000
     24 C8         2.7922   10.4119    1.5865 C.ar      1 RES1    0.0000
     25 C9         3.7442   10.7574    0.6333 C.ar      1 RES1    0.0000
     26 H11        4.5949   10.3853    0.6852 H         1 RES1    0.0000
     27 C10        3.4541   11.6411   -0.3891 C.ar      1 RES1    0.0000
     28 H12        4.1098   11.8518   -1.0152 H         1 RES1    0.0000
     29 C11        2.2124   12.2109   -0.4918 C.ar      1 RES1    0.0000
     30 H13        2.0109   12.8061   -1.1778 H         1 RES1    0.0000
     31 C12        1.2731   11.8711    0.4572 C.ar      1 RES1    0.0000
     32 C13        1.5250   10.9840    1.4787 C.ar      1 RES1    0.0000
     33 H14        0.8584   10.7685    2.0905 H         1 RES1    0.0000
     34 C14        1.6844    9.0881    5.8736 C.3       1 RES1    0.0000
     35 H15        2.0980    9.9125    6.1370 H         1 RES1    0.0000
     36 H16        1.7282    8.4618    6.5995 H         1 RES1    0.0000
     37 H17        0.7654    9.2495    5.6454 H         1 RES1    0.0000
@<TRIPOS>BOND
     1    1    2 1
     2    2    8 1
     3    3    6 2
     4    4    5 1
     5    7    3 2
     6    8    4 1
     7    9    8 1
     8   10    9 1
     9   11    9 1
    10   12    9 1
    11   13   12 1
    12   14   12 1
    13   15   12 1
    14   16   15 1
    15   17   15 1
    16   18   15 1
    17   19   18 1
    18   20    8 1
    19   21   20 1
    20   22   20 1
    21   23    1 2
    22   24   23 1
    23   25   24 ar
    24   26   25 1
    25   27   25 ar
    26   28   27 1
    27   29   27 ar
    28   30   29 1
    29   31    3 1
    30   32   24 ar
    31   33   32 1
    32   34    2 1
    33   35   34 1
    34   36   34 1
    35   37   34 1
    36   18   20 1
    37   18   23 1
    38   29   31 ar
    39   31   32 ar
@<TRIPOS>SUBSTRUCTURE
     1 RES1 1

@<TRIPOS>CRYSIN
   7.3334    9.7725   10.3443  67.4480  76.5390  79.3850   2 1

