# MOL2 file generated by ConQuest
# Please check atom types

@<TRIPOS>MOLECULE
TIMTAK
    60    63     1
SMALL
NO_CHARGES
****
Generated from CSD

@<TRIPOS>ATOM
      1 C1         8.7639    3.1091   10.3413 C.ar      1 RES1    0.0000
      2 C2         9.3763    3.6743   11.4507 C.ar      1 RES1    0.0000
      3 C3        10.3786    4.5925   11.2650 C.ar      1 RES1    0.0000
      4 C4        10.7857    4.9949   10.0178 C.ar      1 RES1    0.0000
      5 C5        10.1459    4.4344    8.9392 C.ar      1 RES1    0.0000
      6 C6         9.1509    3.5060    9.0708 C.ar      1 RES1    0.0000
      7 N1        11.0256    5.1963   12.4347 N.pl3     1 RES1    0.0000
      8 O1        10.7413    4.7676   13.5367 O.2       1 RES1    0.0000
      9 O2        11.8368    6.0705   12.2416 O.2       1 RES1    0.0000
     10 N2        10.5455    4.8737    7.5924 N.pl3     1 RES1    0.0000
     11 O3         9.9084    4.4841    6.6441 O.2       1 RES1    0.0000
     12 O4        11.4890    5.6141    7.5063 O.2       1 RES1    0.0000
     13 C7         7.6953    2.1003   10.5676 C.2       1 RES1    0.0000
     14 O5         7.2907    1.8010   11.6610 O.2       1 RES1    0.0000
     15 O6         7.2922    1.5553    9.4152 O.3       1 RES1    0.0000
     16 C8         6.3695    0.4195    9.5062 C.3       1 RES1    0.0000
     17 C9         4.9422    0.8974    9.5394 C.3       1 RES1    0.0000
     18 C10        4.4755    1.6545    8.2566 C.3       1 RES1    0.0000
     19 C11        3.3828    0.8164    7.6047 C.2       1 RES1    0.0000
     20 C12        2.4964    1.2504    6.7278 C.2       1 RES1    0.0000
     21 C13        3.5031   -0.5599    8.1631 C.3       1 RES1    0.0000
     22 C14        4.5683   -1.3135    7.3403 C.3       1 RES1    0.0000
     23 C15        2.3193   -1.4850    8.4165 C.3       1 RES1    0.0000
     24 C16        2.7978   -2.3426    9.5947 C.3       1 RES1    0.0000
     25 C17        3.9650   -1.5841   10.2761 C.3       1 RES1    0.0000
     26 C18        3.9084   -0.2413    9.6095 C.3       1 RES1    0.0000
     27 O7         3.7243   -1.5669   11.6869 O.3       1 RES1    0.0000
     28 C19        4.8381   -1.1838   12.4273 C.3       1 RES1    0.0000
     29 C20        4.6218   -1.3954   13.9044 C.ar      1 RES1    0.0000
     30 C21        3.6805   -2.2710   14.3915 C.ar      1 RES1    0.0000
     31 C22        3.5382   -2.4415   15.7740 C.ar      1 RES1    0.0000
     32 C23        4.3538   -1.7283   16.6374 C.ar      1 RES1    0.0000
     33 C24        5.2926   -0.8864   16.1282 C.ar      1 RES1    0.0000
     34 C25        5.4213   -0.7200   14.7875 C.ar      1 RES1    0.0000
     35 H1         9.1035    3.4253   12.3363 H         1 RES1    0.0000
     36 H2        11.4884    5.6393    9.9035 H         1 RES1    0.0000
     37 H3         8.7255    3.1344    8.2935 H         1 RES1    0.0000
     38 H4         6.4952   -0.1502    8.7436 H         1 RES1    0.0000
     39 H5         6.5555   -0.0745   10.3081 H         1 RES1    0.0000
     40 H6         4.9295    1.4573   10.3425 H         1 RES1    0.0000
     41 H7         5.2139    1.7599    7.6514 H         1 RES1    0.0000
     42 H8         4.1297    2.5180    8.4927 H         1 RES1    0.0000
     43 H9         1.8326    0.6506    6.3785 H         1 RES1    0.0000
     44 H10        2.5163    2.1655    6.4387 H         1 RES1    0.0000
     45 H11        4.8083   -2.1359    7.7732 H         1 RES1    0.0000
     46 H12        5.3576   -0.7849    7.1964 H         1 RES1    0.0000
     47 H13        4.1533   -1.5043    6.4965 H         1 RES1    0.0000
     48 H14        1.5340   -0.9848    8.6489 H         1 RES1    0.0000
     49 H15        2.1372   -2.0285    7.6478 H         1 RES1    0.0000
     50 H16        2.0805   -2.4691   10.2208 H         1 RES1    0.0000
     51 H17        3.1012   -3.1971    9.2786 H         1 RES1    0.0000
     52 H18        4.8425   -2.0007   10.1458 H         1 RES1    0.0000
     53 H19        3.0948    0.1577    9.9822 H         1 RES1    0.0000
     54 H20        5.5937   -1.7042   12.1456 H         1 RES1    0.0000
     55 H21        5.0129   -0.2529   12.2686 H         1 RES1    0.0000
     56 H22        3.1226   -2.7651   13.7864 H         1 RES1    0.0000
     57 H23        2.8807   -3.0487   16.1208 H         1 RES1    0.0000
     58 H24        4.2550   -1.8255   17.5869 H         1 RES1    0.0000
     59 H25        5.8724   -0.4073   16.7235 H         1 RES1    0.0000
     60 H26        6.0875   -0.1162   14.4518 H         1 RES1    0.0000
@<TRIPOS>BOND
     1    1    2 ar
     2    2    3 ar
     3    3    4 ar
     4    4    5 ar
     5    5    6 ar
     6    6    1 ar
     7    7    3 1
     8    8    7 2
     9    9    7 2
    10   10    5 1
    11   11   10 2
    12   12   10 2
    13   13    1 1
    14   14   13 2
    15   15   13 1
    16   16   15 1
    17   17   16 1
    18   18   17 1
    19   19   18 1
    20   20   19 2
    21   21   19 1
    22   22   21 1
    23   23   21 1
    24   24   23 1
    25   25   24 1
    26   26   17 1
    27   27   25 1
    28   28   27 1
    29   29   28 1
    30   30   29 ar
    31   31   30 ar
    32   32   31 ar
    33   33   32 ar
    34   34   29 ar
    35   35    2 1
    36   36    4 1
    37   37    6 1
    38   38   16 1
    39   39   16 1
    40   40   17 1
    41   41   18 1
    42   42   18 1
    43   43   20 1
    44   44   20 1
    45   45   22 1
    46   46   22 1
    47   47   22 1
    48   48   23 1
    49   49   23 1
    50   50   24 1
    51   51   24 1
    52   52   25 1
    53   53   26 1
    54   54   28 1
    55   55   28 1
    56   56   30 1
    57   57   31 1
    58   58   32 1
    59   59   33 1
    60   60   34 1
    61   21   26 1
    62   25   26 1
    63   33   34 ar
@<TRIPOS>SUBSTRUCTURE
     1 RES1 1

@<TRIPOS>CRYSIN
   8.7730   10.9380   12.5880  79.0300  83.8800  86.6000   2 1

