# MOL2 file generated by ConQuest
# Please check atom types

@<TRIPOS>MOLECULE
TIMYUL
    52    55     1
SMALL
NO_CHARGES
****
Generated from CSD

@<TRIPOS>ATOM
      1 O1         8.0445    4.6616    2.5656 O.2       1 RES1    0.0000
      2 O2         8.6277    3.1940    0.9736 O.3       1 RES1    0.0000
      3 O3         5.8394    8.8473   -0.3042 O.2       1 RES1    0.0000
      4 O4         8.6834   13.6384    3.7300 O.2       1 RES1    0.0000
      5 O5         7.3133   13.1559    5.3183 O.2       1 RES1    0.0000
      6 N1         6.6564    4.2004    0.7729 N.am      1 RES1    0.0000
      7 N2         7.7438   13.0031    4.1825 N.pl3     1 RES1    0.0000
      8 C1         7.7799    4.0849    1.5371 C.2       1 RES1    0.0000
      9 C2         8.0101    2.6051   -0.1939 C.3       1 RES1    0.0000
     10 H1         7.7301    1.6742   -0.0081 H         1 RES1    0.0000
     11 H2         8.6390    2.6019   -0.9581 H         1 RES1    0.0000
     12 C3         6.7911    3.4859   -0.4993 C.3       1 RES1    0.0000
     13 H3         7.0224    4.1348   -1.2236 H         1 RES1    0.0000
     14 C4         5.5344    2.7000   -0.8988 C.3       1 RES1    0.0000
     15 H4         4.8282    3.3617   -1.1488 H         1 RES1    0.0000
     16 C5         5.8513    1.8659   -2.1411 C.3       1 RES1    0.0000
     17 H5         5.0283    1.4502   -2.4734 H         1 RES1    0.0000
     18 H6         6.5001    1.1677   -1.9105 H         1 RES1    0.0000
     19 H7         6.2277    2.4446   -2.8362 H         1 RES1    0.0000
     20 C6         4.9932    1.8565    0.2556 C.3       1 RES1    0.0000
     21 H8         4.2494    1.3036   -0.0642 H         1 RES1    0.0000
     22 H9         4.6778    2.4473    0.9711 H         1 RES1    0.0000
     23 H10        5.7054    1.2770    0.5990 H         1 RES1    0.0000
     24 C7         5.6814    5.2123    0.9793 C.2       1 RES1    0.0000
     25 C8         5.1151    5.9041    0.0012 C.2       1 RES1    0.0000
     26 H11        5.3629    5.8116   -0.9107 H         1 RES1    0.0000
     27 C9         4.0414    6.8521    0.4700 C.3       1 RES1    0.0000
     28 H12        3.6378    7.3419   -0.3023 H         1 RES1    0.0000
     29 C10        4.6313    7.8382    1.5010 C.3       1 RES1    0.0000
     30 H13        3.8707    8.3149    1.9417 H         1 RES1    0.0000
     31 C11        5.3941    7.0342    2.5980 C.3       1 RES1    0.0000
     32 H14        6.3622    7.2379    2.5550 H         1 RES1    0.0000
     33 H15        5.0622    7.2885    3.4956 H         1 RES1    0.0000
     34 C12        5.1636    5.5296    2.3606 C.3       1 RES1    0.0000
     35 H16        5.6331    4.9825    3.0531 H         1 RES1    0.0000
     36 C13        3.6435    5.2699    2.3898 C.3       1 RES1    0.0000
     37 H17        3.2659    5.5877    3.2482 H         1 RES1    0.0000
     38 H18        3.4671    4.2974    2.3138 H         1 RES1    0.0000
     39 C14        2.9729    6.0180    1.2130 C.3       1 RES1    0.0000
     40 H19        2.5616    5.3664    0.5903 H         1 RES1    0.0000
     41 H20        2.2598    6.6141    1.5552 H         1 RES1    0.0000
     42 C15        5.5276    8.8755    0.8752 C.2       1 RES1    0.0000
     43 C16        6.0594    9.9718    1.7653 C.ar      1 RES1    0.0000
     44 C17        5.5471   10.2250    3.0356 C.ar      1 RES1    0.0000
     45 H21        4.8259    9.7012    3.3629 H         1 RES1    0.0000
     46 C18        6.0733   11.2295    3.8279 C.ar      1 RES1    0.0000
     47 H22        5.7235   11.4020    4.6943 H         1 RES1    0.0000
     48 C19        7.1218   11.9776    3.3261 C.ar      1 RES1    0.0000
     49 C20        7.6351   11.7739    2.0557 C.ar      1 RES1    0.0000
     50 H23        8.3383   12.3191    1.7241 H         1 RES1    0.0000
     51 C21        7.1041   10.7670    1.2828 C.ar      1 RES1    0.0000
     52 H24        7.4509   10.6102    0.4126 H         1 RES1    0.0000
@<TRIPOS>BOND
     1    1    8 2
     2    2    8 1
     3    3   42 2
     4    4    7 2
     5    5    7 2
     6    6    8 1
     7    7   48 1
     8    9    2 1
     9   10    9 1
    10   11    9 1
    11   12    6 1
    12   13   12 1
    13   14   12 1
    14   15   14 1
    15   16   14 1
    16   17   16 1
    17   18   16 1
    18   19   16 1
    19   20   14 1
    20   21   20 1
    21   22   20 1
    22   23   20 1
    23   24    6 1
    24   25   24 2
    25   26   25 1
    26   27   25 1
    27   28   27 1
    28   29   27 1
    29   30   29 1
    30   31   29 1
    31   32   31 1
    32   33   31 1
    33   34   24 1
    34   35   34 1
    35   36   34 1
    36   37   36 1
    37   38   36 1
    38   39   27 1
    39   40   39 1
    40   41   39 1
    41   42   29 1
    42   43   42 1
    43   44   43 ar
    44   45   44 1
    45   46   44 ar
    46   47   46 1
    47   48   46 ar
    48   49   48 ar
    49   50   49 1
    50   51   43 ar
    51   52   51 1
    52    9   12 1
    53   31   34 1
    54   36   39 1
    55   49   51 ar
@<TRIPOS>SUBSTRUCTURE
     1 RES1 1

@<TRIPOS>CRYSIN
  11.3046   26.6589    6.2333  90.0000  90.0000  90.0000  18 1

