# MOL2 file generated by ConQuest
# Please check atom types

@<TRIPOS>MOLECULE
TIMZAQ
    29    27     2
SMALL
NO_CHARGES
****
Generated from CSD

@<TRIPOS>ATOM
      1 O1         4.5737    3.0627    7.9968 O.2       1 RES1    0.0000
      2 N1         4.8636    1.4057    6.5427 N.am      1 RES1    0.0000
      3 N2         5.3251    0.5930    7.4987 N.2       1 RES1    0.0000
      4 N3         6.8884   -3.0910    6.3931 N.pl3     1 RES1    0.0000
      5 N4         3.5970    5.1398    3.7147 N.ar      1 RES1    0.0000
      6 C1         4.5574    2.6460    6.8619 C.2       1 RES1    0.0000
      7 C2         5.6716   -0.5331    7.1210 C.2       1 RES1    0.0000
      8 C3         4.2181    3.4479    5.7347 C.ar      1 RES1    0.0000
      9 C4         3.6305    4.6088    6.0416 C.ar      1 RES1    0.0000
     10 C5         3.3275    5.4422    5.0192 C.ar      1 RES1    0.0000
     11 C6         4.1672    4.0028    3.4263 C.ar      1 RES1    0.0000
     12 C7         4.5027    3.1748    4.3901 C.ar      1 RES1    0.0000
     13 C8         6.1727   -1.3720    8.1032 C.ar      1 RES1    0.0000
     14 C9         6.6738   -2.5742    7.7994 C.ar      1 RES1    0.0000
     15 C10        7.0752   -3.5143    8.7447 C.ar      1 RES1    0.0000
     16 C11        6.9691   -3.0899   10.0785 C.ar      1 RES1    0.0000
     17 C12        6.5000   -1.8257   10.4316 C.ar      1 RES1    0.0000
     18 C13        6.1094   -1.0478    9.4463 C.ar      1 RES1    0.0000
     19 O2         7.3099   -2.2032    5.5527 O.2       1 RES1    0.0000
     20 O3         6.6622   -4.2759    6.1541 O.2       1 RES1    0.0000
     21 H1         5.0206    1.2186    5.8904 H         1 RES1    0.0000
     22 H2         5.8703   -0.6963    6.1217 H         1 RES1    0.0000
     23 H3         3.1883    3.7754    7.1395 Du        2 SUP2    0.0000
     24 H4         2.1878    6.2017    4.8573 Du        2 SUP2    0.0000
     25 H5         4.1423    3.6775    2.2976 H         1 RES1    0.0000
     26 H6         4.8248    2.5895    4.2405 H         1 RES1    0.0000
     27 H7         0.3629    4.6676    4.5643 Du        2 SUP2    0.0000
     28 H8         6.6254   -1.2077   11.5650 H         1 RES1    0.0000
     29 H9         5.8533   -0.2067    9.6375 H         1 RES1    0.0000
@<TRIPOS>BOND
     1    1    6 2
     2    2    3 1
     3    3    7 2
     4    4   14 1
     5    5   10 ar
     6    6    2 1
     7    7   13 1
     8    8    6 1
     9    9    8 ar
    10   10    9 ar
    11   11    5 ar
    12   12    8 ar
    13   13   14 ar
    14   14   15 ar
    15   15   16 ar
    16   16   17 ar
    17   17   18 ar
    18   18   13 ar
    19   19    4 2
    20   20    4 2
    21   21    2 1
    22   22    7 1
    23   25   11 1
    24   26   12 1
    25   28   17 1
    26   29   18 1
    27   11   12 ar
@<TRIPOS>SUBSTRUCTURE
     1 RES1 1
     2 SUP2 23

@<TRIPOS>CRYSIN
   7.4600   10.9200   15.4200  90.0000  90.0000  85.1000  14 3

