# MOL2 file generated by ConQuest
# Please check atom types

@<TRIPOS>MOLECULE
TIMZAQ01
    30    31     1
SMALL
NO_CHARGES
****
Generated from CSD

@<TRIPOS>ATOM
      1 O1         6.2770   -4.2238    9.2438 O.2       1 RES1    0.0000
      2 O2         6.6796   -2.2257    9.8538 O.2       1 RES1    0.0000
      3 O3         3.6897    3.0772    7.4172 O.2       1 RES1    0.0000
      4 N1         6.4139   -3.0511    9.0010 N.pl3     1 RES1    0.0000
      5 N2         4.6045    0.6076    7.9044 N.2       1 RES1    0.0000
      6 N3         4.0020    1.3764    8.8696 N.am      1 RES1    0.0000
      7 N4         2.1574    5.1690   11.6890 N.ar      1 RES1    0.0000
      8 C1         6.2801   -2.6090    7.6143 C.ar      1 RES1    0.0000
      9 C2         6.8205   -3.4551    6.6663 C.ar      1 RES1    0.0000
     10 C3         6.8045   -3.0696    5.3558 C.ar      1 RES1    0.0000
     11 C4         6.2584   -1.8609    5.0032 C.ar      1 RES1    0.0000
     12 C5         5.6956   -1.0475    5.9595 C.ar      1 RES1    0.0000
     13 C6         5.6843   -1.3949    7.3006 C.ar      1 RES1    0.0000
     14 C7         5.0237   -0.5238    8.2786 C.2       1 RES1    0.0000
     15 C8         3.6199    2.6330    8.5425 C.2       1 RES1    0.0000
     16 C9         3.1074    3.4725    9.6788 C.ar      1 RES1    0.0000
     17 C10        3.3005    3.1883   11.0196 C.ar      1 RES1    0.0000
     18 C11        2.8103    4.0453   11.9667 C.ar      1 RES1    0.0000
     19 C12        1.9813    5.4401   10.3944 C.ar      1 RES1    0.0000
     20 C13        2.4453    4.6398    9.3688 C.ar      1 RES1    0.0000
     21 H1         7.1997   -4.2402    6.9496 H         1 RES1    0.0000
     22 H2         7.1716   -3.6337    4.6998 H         1 RES1    0.0000
     23 H3         3.8568    1.0998    9.6260 H         1 RES1    0.0000
     24 H4         6.3063   -1.5811    4.0977 H         1 RES1    0.0000
     25 H5         5.3167   -0.2559    5.6992 H         1 RES1    0.0000
     26 H6         4.9185   -0.8319    9.1456 H         1 RES1    0.0000
     27 H7         3.6682    2.4119   11.3307 H         1 RES1    0.0000
     28 H8         2.9465    3.8645   12.8721 H         1 RES1    0.0000
     29 H9         1.6102    6.3080   10.1835 H         1 RES1    0.0000
     30 H10        2.2846    4.8478    8.4264 H         1 RES1    0.0000
@<TRIPOS>BOND
     1    1    4 2
     2    2    4 2
     3    3   15 2
     4    4    8 1
     5    5    6 1
     6    6   15 1
     7    7   18 ar
     8    8    9 ar
     9    9   10 ar
    10   10   11 ar
    11   11   12 ar
    12   12   13 ar
    13   13    8 ar
    14   14    5 2
    15   15   16 1
    16   16   17 ar
    17   17   18 ar
    18   18   28 1
    19   19    7 ar
    20   20   16 ar
    21   21    9 1
    22   22   10 1
    23   23    6 1
    24   24   11 1
    25   25   12 1
    26   26   14 1
    27   27   17 1
    28   29   19 1
    29   30   20 1
    30   13   14 1
    31   19   20 ar
@<TRIPOS>SUBSTRUCTURE
     1 RES1 1

@<TRIPOS>CRYSIN
   7.4860   10.8890   15.4560  90.0000  94.9160  90.0000  14 1

