# MOL2 file generated by ConQuest
# Please check atom types

@<TRIPOS>MOLECULE
TINCEY
    42    46     1
SMALL
NO_CHARGES
****
Generated from CSD

@<TRIPOS>ATOM
      1 O1         0.3967    2.1960    1.7583 O.3       1 RES1    0.0000
      2 O2         4.6849    1.4420    2.9885 O.3       1 RES1    0.0000
      3 O3         3.6475    2.9482   -1.1930 O.2       1 RES1    0.0000
      4 N1        -0.1038    2.3256    0.4286 N.2       1 RES1    0.0000
      5 C1         3.3817    2.5828   -0.0637 C.2       1 RES1    0.0000
      6 N2         4.3086    2.4944    0.9276 N.am      1 RES1    0.0000
      7 C2         4.0501    2.5614    2.3236 C.3       1 RES1    0.0000
      8 C3         2.5896    2.4578    2.7270 C.3       1 RES1    0.0000
      9 N3         3.9005    1.1184    4.1138 N.2       1 RES1    0.0000
     10 C4         0.6998    2.3438   -1.8140 C.ar      1 RES1    0.0000
     11 C5         1.4481    1.5142   -2.6381 C.ar      1 RES1    0.0000
     12 C6         1.1065    1.3617   -3.9665 C.ar      1 RES1    0.0000
     13 C7         0.0349    2.0497   -4.4827 C.ar      1 RES1    0.0000
     14 C8        -0.6993    2.8891   -3.6772 C.ar      1 RES1    0.0000
     15 C9        -0.3814    3.0391   -2.3448 C.ar      1 RES1    0.0000
     16 C10        0.9071    2.3462   -0.3623 C.2       1 RES1    0.0000
     17 N4         2.1122    2.1838    0.3211 N.am      1 RES1    0.0000
     18 C11        1.7991    0.2151    1.7371 C.3       1 RES1    0.0000
     19 C12        1.7572    1.7271    1.6667 C.3       1 RES1    0.0000
     20 C13        2.7518    1.6710    4.0089 C.2       1 RES1    0.0000
     21 C14        1.7289    1.4673    5.0427 C.ar      1 RES1    0.0000
     22 C15        0.4558    1.9888    4.8914 C.ar      1 RES1    0.0000
     23 C16       -0.5121    1.7965    5.8681 C.ar      1 RES1    0.0000
     24 C17       -0.2036    1.0831    6.9974 C.ar      1 RES1    0.0000
     25 C18        1.0374    0.5438    7.1540 C.ar      1 RES1    0.0000
     26 C19        2.0113    0.7258    6.1906 C.ar      1 RES1    0.0000
     27 H1         5.1172    2.6605    0.6701 H         1 RES1    0.0000
     28 H2         4.4685    3.3887    2.7031 H         1 RES1    0.0000
     29 H3         2.2273    3.3078    2.8358 H         1 RES1    0.0000
     30 H4         2.1751    1.0177   -2.2626 H         1 RES1    0.0000
     31 H5         1.6001    0.7725   -4.5331 H         1 RES1    0.0000
     32 H6        -0.2230    1.9420   -5.4249 H         1 RES1    0.0000
     33 H7        -1.4385    3.3572   -4.0487 H         1 RES1    0.0000
     34 H8        -0.8937    3.5667   -1.7596 H         1 RES1    0.0000
     35 H9         2.7614   -0.0830    1.6720 H         1 RES1    0.0000
     36 H10        1.3930   -0.1081    2.5426 H         1 RES1    0.0000
     37 H11        1.3081   -0.1341    0.9860 H         1 RES1    0.0000
     38 H12        0.2441    2.5065    4.0952 H         1 RES1    0.0000
     39 H13       -1.4585    2.1953    5.7115 H         1 RES1    0.0000
     40 H14       -0.8522    0.9307    7.7047 H         1 RES1    0.0000
     41 H15        1.3057   -0.0269    7.8812 H         1 RES1    0.0000
     42 H16        2.8729    0.3420    6.2450 H         1 RES1    0.0000
@<TRIPOS>BOND
     1    1    4 1
     2    2    7 1
     3    3    5 2
     4    4   16 2
     5    5    6 1
     6    6    7 1
     7    7    8 1
     8    8   19 1
     9    9    2 1
    10   10   11 ar
    11   11   12 ar
    12   12   13 ar
    13   13   14 ar
    14   14   15 ar
    15   15   10 ar
    16   16   10 1
    17   17    5 1
    18   18   19 1
    19   19    1 1
    20   20    8 1
    21   21   20 1
    22   22   21 ar
    23   23   22 ar
    24   24   23 ar
    25   25   24 ar
    26   26   21 ar
    27   27    6 1
    28   28    7 1
    29   29    8 1
    30   30   11 1
    31   31   12 1
    32   32   13 1
    33   33   14 1
    34   34   15 1
    35   35   18 1
    36   36   18 1
    37   37   18 1
    38   38   22 1
    39   39   23 1
    40   40   24 1
    41   41   25 1
    42   42   26 1
    43    9   20 2
    44   16   17 1
    45   17   19 1
    46   25   26 ar
@<TRIPOS>SUBSTRUCTURE
     1 RES1 1

@<TRIPOS>CRYSIN
   7.4575    8.4628   13.8348  99.9200 101.2600  98.7900   2 1

