# MOL2 file generated by ConQuest
# Please check atom types

@<TRIPOS>MOLECULE
TINCIC
    24    28     1
SMALL
NO_CHARGES
****
Generated from CSD

@<TRIPOS>ATOM
      1 O1         1.9420    8.6782    2.5402 O.3       1 RES1    0.0000
      2 O2         2.6924    5.2204    5.3131 O.3       1 RES1    0.0000
      3 N1         0.8550    9.6311    2.6882 N.2       1 RES1    0.0000
      4 N2         0.8385    8.2783    4.4333 N.3       1 RES1    0.0000
      5 N3         0.6467    7.9405    5.7270 N.2       1 RES1    0.0000
      6 N4         3.4683    4.9669    4.1562 N.2       1 RES1    0.0000
      7 C1        -0.8362   10.1667    4.3138 C.ar      1 RES1    0.0000
      8 C2        -0.8924   11.5168    3.9999 C.ar      1 RES1    0.0000
      9 C3        -1.9812   12.2599    4.3951 C.ar      1 RES1    0.0000
     10 C4        -3.0006   11.6780    5.1117 C.ar      1 RES1    0.0000
     11 C5        -2.9423   10.3618    5.4416 C.ar      1 RES1    0.0000
     12 C6        -1.8545    9.5930    5.0437 C.ar      1 RES1    0.0000
     13 C7         0.2897    9.3706    3.8090 C.2       1 RES1    0.0000
     14 C8         1.7660    7.6551    3.5131 C.3       1 RES1    0.0000
     15 C9         3.0596    7.2553    4.2041 C.3       1 RES1    0.0000
     16 C10        2.7468    6.6506    5.5624 C.3       1 RES1    0.0000
     17 C11        1.4947    7.1162    6.2124 C.2       1 RES1    0.0000
     18 C12        3.7017    6.0653    3.5402 C.2       1 RES1    0.0000
     19 C13        4.4686    6.0846    2.2868 C.ar      1 RES1    0.0000
     20 C14        5.0180    4.9142    1.7771 C.ar      1 RES1    0.0000
     21 C15        5.7667    4.9633    0.6132 C.ar      1 RES1    0.0000
     22 C16        5.9556    6.1527   -0.0549 C.ar      1 RES1    0.0000
     23 C17        5.4090    7.3011    0.4250 C.ar      1 RES1    0.0000
     24 C18        4.6679    7.2688    1.5944 C.ar      1 RES1    0.0000
@<TRIPOS>BOND
     1    1    3 1
     2    2    6 1
     3    3   13 2
     4    4    5 1
     5    5   17 2
     6    6   18 2
     7    7    8 ar
     8    8    9 ar
     9    9   10 ar
    10   10   11 ar
    11   11   12 ar
    12   12    7 ar
    13   13    4 1
    14   14    1 1
    15   15   14 1
    16   16    2 1
    17   17   16 1
    18   18   15 1
    19   19   18 1
    20   20   19 ar
    21   21   20 ar
    22   22   21 ar
    23   23   22 ar
    24   24   19 ar
    25    4   14 1
    26    7   13 1
    27   15   16 1
    28   23   24 ar
@<TRIPOS>SUBSTRUCTURE
     1 RES1 1

@<TRIPOS>CRYSIN
  12.2200    9.6950    6.9760  85.0300  86.1700  69.8300   2 1

