# MOL2 file generated by ConQuest
# Please check atom types

@<TRIPOS>MOLECULE
TINWUJ
    27    27     1
SMALL
NO_CHARGES
****
Generated from CSD

@<TRIPOS>ATOM
      1 O1         0.7234   10.2826   11.0656 O.3       1 RES1    0.0000
      2 O2         0.4515    8.1087   10.6147 O.2       1 RES1    0.0000
      3 O3         0.4659    8.7452    7.3403 O.2       1 RES1    0.0000
      4 O4         2.1417    2.7317    3.2525 O.2       1 RES1    0.0000
      5 O5         3.2143    4.5361    2.7704 O.2       1 RES1    0.0000
      6 N1        -0.6677    6.7679    7.1973 N.am      1 RES1    0.0000
      7 N2         2.3543    3.9315    3.4079 N.pl3     1 RES1    0.0000
      8 C1         0.1390    9.2748   10.4347 C.2       1 RES1    0.0000
      9 C2        -0.9571    9.6875    9.4913 C.3       1 RES1    0.0000
     10 C3        -1.4834    8.4976    8.7039 C.3       1 RES1    0.0000
     11 C4        -0.4576    8.0275    7.6916 C.2       1 RES1    0.0000
     12 C5         0.1171    6.0872    6.2583 C.ar      1 RES1    0.0000
     13 C6        -0.2012    4.7473    5.9843 C.ar      1 RES1    0.0000
     14 C7         0.5257    4.0249    5.0525 C.ar      1 RES1    0.0000
     15 C8         1.5725    4.6597    4.3935 C.ar      1 RES1    0.0000
     16 C9         1.9130    5.9734    4.6536 C.ar      1 RES1    0.0000
     17 C10        1.1902    6.6909    5.5889 C.ar      1 RES1    0.0000
     18 H1         1.3293    9.9473   11.5795 H         1 RES1    0.0000
     19 H2        -1.3281    6.3390    7.5250 H         1 RES1    0.0000
     20 H3        -1.6663   10.1047   10.0441 H         1 RES1    0.0000
     21 H4        -0.5893   10.3695    8.9161 H         1 RES1    0.0000
     22 H5        -2.2863    8.7566    8.2246 H         1 RES1    0.0000
     23 H6        -1.7238    7.7443    9.3052 H         1 RES1    0.0000
     24 H7        -0.9269    4.3351    6.4397 H         1 RES1    0.0000
     25 H8         0.2976    3.1064    4.8396 H         1 RES1    0.0000
     26 H9         2.6458    6.3788    4.2035 H         1 RES1    0.0000
     27 H10        1.4285    7.6006    5.7748 H         1 RES1    0.0000
@<TRIPOS>BOND
     1    1    8 1
     2    2    8 2
     3    3   11 2
     4    4    7 2
     5    5    7 2
     6    6   11 1
     7    7   15 1
     8    8    9 1
     9    9   10 1
    10   10   11 1
    11   12    6 1
    12   13   12 ar
    13   14   13 ar
    14   15   14 ar
    15   16   15 ar
    16   17   12 ar
    17   18    1 1
    18   19    6 1
    19   20    9 1
    20   21    9 1
    21   22   10 1
    22   23   10 1
    23   24   13 1
    24   25   14 1
    25   26   16 1
    26   27   17 1
    27   16   17 ar
@<TRIPOS>SUBSTRUCTURE
     1 RES1 1

@<TRIPOS>CRYSIN
   5.0179   17.3056   11.5804  90.0000  94.4870  90.0000  14 1

