# MOL2 file generated by ConQuest
# Please check atom types

@<TRIPOS>MOLECULE
TINXIY
    29    30     1
SMALL
NO_CHARGES
****
Generated from CSD

@<TRIPOS>ATOM
      1 O1         2.6641    3.9383    4.3905 O.2       1 RES1    0.0000
      2 O2         4.0171    2.4182    3.6435 O.2       1 RES1    0.0000
      3 O3         2.4422    1.0887    1.6960 O.3       1 RES1    0.0000
      4 O4         3.6522   -0.5938    2.5557 O.2       1 RES1    0.0000
      5 O5        -0.6391   -1.1149    5.7484 O.2       1 RES1    0.0000
      6 N1         1.1812    2.8577    6.7108 N.pl3     1 RES1    0.0000
      7 N2         0.3087    0.9327    6.0141 N.am      1 RES1    0.0000
      8 N3         2.9725    2.7532    4.2189 N.pl3     1 RES1    0.0000
      9 C1         2.2840    3.7164    7.1546 C.3       1 RES1    0.0000
     10 H1         3.1210    3.2815    6.9718 H         1 RES1    0.0000
     11 H2         2.2050    3.8764    8.0977 H         1 RES1    0.0000
     12 H3         2.2485    4.5518    6.6836 H         1 RES1    0.0000
     13 C2         0.0926    2.5760    7.6536 C.3       1 RES1    0.0000
     14 H4        -0.5904    3.2633    7.6041 H         1 RES1    0.0000
     15 H5         0.4297    2.5352    8.5623 H         1 RES1    0.0000
     16 C3        -0.4633    1.2413    7.2320 C.3       1 RES1    0.0000
     17 H6        -0.3198    0.5702    7.9171 H         1 RES1    0.0000
     18 H7        -1.4116    1.3025    7.0395 H         1 RES1    0.0000
     19 C4         1.2482    1.9067    5.7703 C.2       1 RES1    0.0000
     20 C5         2.0909    1.7239    4.6576 C.2       1 RES1    0.0000
     21 C6         2.0087    0.5047    3.9268 C.2       1 RES1    0.0000
     22 C7         1.1185   -0.4660    4.2629 C.2       1 RES1    0.0000
     23 H8         1.1004   -1.2574    3.7746 H         1 RES1    0.0000
     24 C8         0.2002   -0.2910    5.3658 C.2       1 RES1    0.0000
     25 C9         2.8258    0.2717    2.6702 C.2       1 RES1    0.0000
     26 C10        3.1117    0.9364    0.4151 C.3       1 RES1    0.0000
     27 H9         4.0276    1.2091    0.4990 H         1 RES1    0.0000
     28 H10        2.6734    1.4818   -0.2420 H         1 RES1    0.0000
     29 H11        3.0759    0.0161    0.1430 H         1 RES1    0.0000
@<TRIPOS>BOND
     1    1    8 2
     2    2    8 2
     3    3   25 1
     4    4   25 2
     5    5   24 2
     6    6    9 1
     7    7   16 1
     8    8   20 1
     9    9   10 1
    10   11    9 1
    11   12    9 1
    12   13    6 1
    13   14   13 1
    14   15   13 1
    15   16   13 1
    16   17   16 1
    17   18   16 1
    18   19    6 1
    19   20   19 2
    20   21   20 1
    21   22   21 2
    22   23   22 1
    23   24    7 1
    24   25   21 1
    25   26    3 1
    26   27   26 1
    27   28   26 1
    28   29   26 1
    29    7   19 1
    30   22   24 1
@<TRIPOS>SUBSTRUCTURE
     1 RES1 1

@<TRIPOS>CRYSIN
   9.8480   10.7380   11.3180  90.0000 108.1650  90.0000 231 1

