# MOL2 file generated by ConQuest
# Please check atom types

@<TRIPOS>MOLECULE
TIPHIL
    19    19     1
SMALL
NO_CHARGES
****
Generated from CSD

@<TRIPOS>ATOM
      1 O1         2.7645    7.9899    1.2132 O.3       1 RES1    0.0000
      2 H1         2.9540    8.3658    0.4891 H         1 RES1    0.0000
      3 O2         0.8925    9.2505    1.1636 O.2       1 RES1    0.0000
      4 O3         0.3674    6.4286    0.7711 O.2       1 RES1    0.0000
      5 O4        -1.0530    5.2598    1.9056 O.2       1 RES1    0.0000
      6 O5         2.9298    9.9430    3.2184 O.2       1 RES1    0.0000
      7 O6         3.3205    9.4989    5.3036 O.2       1 RES1    0.0000
      8 N1        -0.1566    6.0980    1.8264 N.pl3     1 RES1    0.0000
      9 N2         2.7215    9.3115    4.2511 N.pl3     1 RES1    0.0000
     10 C1         1.2309    7.7827    2.9915 C.ar      1 RES1    0.0000
     11 C2         0.3075    6.7370    3.0696 C.ar      1 RES1    0.0000
     12 C3        -0.1721    6.2288    4.2652 C.ar      1 RES1    0.0000
     13 H2        -0.8079    5.5234    4.2682 H         1 RES1    0.0000
     14 C4         0.2886    6.7643    5.4559 C.ar      1 RES1    0.0000
     15 H3        -0.0541    6.4486    6.2829 H         1 RES1    0.0000
     16 C5         1.2503    7.7624    5.4392 C.ar      1 RES1    0.0000
     17 H4         1.6008    8.1060    6.2523 H         1 RES1    0.0000
     18 C6         1.6955    8.2522    4.2192 C.ar      1 RES1    0.0000
     19 C7         1.6182    8.4180    1.6745 C.2       1 RES1    0.0000
@<TRIPOS>BOND
     1    1    2 1
     2    3   19 2
     3    4    8 2
     4    5    8 2
     5    6    9 2
     6    7    9 2
     7    8   11 1
     8    9   18 1
     9   10   11 ar
    10   11   12 ar
    11   12   13 1
    12   14   12 ar
    13   15   14 1
    14   16   14 ar
    15   17   16 1
    16   18   10 ar
    17   19    1 1
    18   10   19 1
    19   16   18 ar
@<TRIPOS>SUBSTRUCTURE
     1 RES1 1

@<TRIPOS>CRYSIN
   4.8347   12.1420   13.8940  90.0000  90.0000  90.0000  19 1

