# MOL2 file generated by ConQuest
# Please check atom types

@<TRIPOS>MOLECULE
TIPMIQ
    24    23     1
SMALL
NO_CHARGES
****
Generated from CSD

@<TRIPOS>ATOM
      1 O1         6.7742   -0.4002   12.8407 O.3       1 RES1    0.0000
      2 O2         3.4389   -0.6664   12.7348 O.2       1 RES1    0.0000
      3 N1         3.7471   -0.6874   11.5583 N.pl3     1 RES1    0.0000
      4 O3         6.7976   -0.6660    6.9124 O.2       1 RES1    0.0000
      5 O4         7.4287    1.0323    9.9994 O.2       1 RES1    0.0000
      6 C1         5.8846   -0.4216    9.0510 C.3       1 RES1    0.0000
      7 O5         3.2718   -1.4343   10.7034 O.2       1 RES1    0.0000
      8 O6         4.9888    0.5163    7.1160 O.2       1 RES1    0.0000
      9 O7         5.0567   -2.4816    8.3780 O.2       1 RES1    0.0000
     10 O8         6.0285    1.0639   14.3587 O.2       1 RES1    0.0000
     11 N2         4.7375    0.1708   11.1567 N.3       1 RES1    0.0000
     12 C2         4.8150    0.4179    9.7321 C.3       1 RES1    0.0000
     13 C3         5.1317    1.1551   12.1559 C.3       1 RES1    0.0000
     14 O9         6.0559   -2.3573   10.3084 O.2       1 RES1    0.0000
     15 N3         5.8964   -0.1686    7.5407 N.pl3     1 RES1    0.0000
     16 N4         7.2972   -0.0715    9.5221 N.pl3     1 RES1    0.0000
     17 C4         6.0195    0.5807   13.2426 C.2       1 RES1    0.0000
     18 N5         5.6664   -1.9048    9.2519 N.pl3     1 RES1    0.0000
     19 O10        8.1637   -0.8909    9.3280 O.2       1 RES1    0.0000
     20 H1         5.0577    1.3129    9.5873 H         1 RES1    0.0000
     21 H2         3.9803    0.2146    9.3226 H         1 RES1    0.0000
     22 H3         4.3702    1.5528   12.5673 H         1 RES1    0.0000
     23 H4         5.6613    1.8557   11.6801 H         1 RES1    0.0000
     24 H5         7.3150   -0.6186   13.4632 H         1 RES1    0.0000
@<TRIPOS>BOND
     1    1   17 1
     2    2    3 2
     3    3    7 2
     4    4   15 2
     5    5   16 2
     6    6   12 1
     7    8   15 2
     8    9   18 2
     9   10   17 2
    10   11    3 1
    11   12   11 1
    12   13   11 1
    13   14   18 2
    14   15    6 1
    15   16    6 1
    16   17   13 1
    17   18    6 1
    18   19   16 2
    19   20   12 1
    20   21   12 1
    21   22   13 1
    22   23   13 1
    23   24    1 1
@<TRIPOS>SUBSTRUCTURE
     1 RES1 1

@<TRIPOS>CRYSIN
  10.9200    6.3120   14.9880  90.0000 103.9840  90.0000  14 1

