# MOL2 file generated by ConQuest
# Please check atom types

@<TRIPOS>MOLECULE
TIPMEM
    38    37     1
SMALL
NO_CHARGES
****
Generated from CSD

@<TRIPOS>ATOM
      1 O1         0.1181   -0.9443    7.1740 O.3       1 RES1    0.0000
      2 O2         0.5462    0.7357    5.6979 O.2       1 RES1    0.0000
      3 N1         3.0971    2.1210    7.7122 N.3       1 RES1    0.0000
      4 O3         4.9040    1.1266    8.5854 O.2       1 RES1    0.0000
      5 N2         3.9054    4.1809    5.6059 N.pl3     1 RES1    0.0000
      6 O4         4.6609    5.1200    5.4610 O.2       1 RES1    0.0000
      7 N3         5.8432    3.0651    6.5538 N.pl3     1 RES1    0.0000
      8 O5         5.7015    3.6660    7.5963 O.2       1 RES1    0.0000
      9 O6         3.1398    1.4130    9.8387 O.2       1 RES1    0.0000
     10 N4         3.7522    1.5077    8.7837 N.pl3     1 RES1    0.0000
     11 O7         5.1328    1.1452    4.2668 O.2       1 RES1    0.0000
     12 O8         6.8766    2.6506    6.0693 O.2       1 RES1    0.0000
     13 N5         0.9843    0.9293    7.9307 N.am      1 RES1    0.0000
     14 N6        -2.0084   -3.6187    5.8002 N.pl3     1 RES1    0.0000
     15 C1         4.5490    2.8114    5.7867 C.3       1 RES1    0.0000
     16 O9         5.0281    3.1601    3.5031 O.2       1 RES1    0.0000
     17 O10       -2.4155   -2.3710    8.8227 O.2       1 RES1    0.0000
     18 O11       -1.6180   -3.6373    4.6514 O.2       1 RES1    0.0000
     19 C2        -1.6675   -2.3695    6.5930 C.3       1 RES1    0.0000
     20 N7        -1.5807   -2.8007    8.0562 N.pl3     1 RES1    0.0000
     21 O12        2.6893    4.1980    5.5765 O.2       1 RES1    0.0000
     22 N8         4.9371    2.3327    4.3756 N.pl3     1 RES1    0.0000
     23 O13       -3.8988   -1.8591    6.0812 O.2       1 RES1    0.0000
     24 C3        -0.3546   -1.7786    6.1270 C.3       1 RES1    0.0000
     25 O14       -0.6607   -3.5425    8.2985 O.2       1 RES1    0.0000
     26 C4         1.6282    2.2098    7.8809 C.3       1 RES1    0.0000
     27 C5         3.6339    1.7581    6.4080 C.3       1 RES1    0.0000
     28 C6         0.5506    0.2992    6.8255 C.2       1 RES1    0.0000
     29 N9        -2.8381   -1.4078    6.4538 N.pl3     1 RES1    0.0000
     30 O15       -2.6010   -0.2579    6.7380 O.2       1 RES1    0.0000
     31 O16       -2.6521   -4.4665    6.3746 O.2       1 RES1    0.0000
     32 H1         0.2744   -2.5156    6.0227 H         1 RES1    0.0000
     33 H2         2.9187    1.6633    5.8156 H         1 RES1    0.0000
     34 H3         1.3105    2.6883    7.0900 H         1 RES1    0.0000
     35 H4        -0.4988   -1.3122    5.3030 H         1 RES1    0.0000
     36 H5         1.4810    2.7165    8.6728 H         1 RES1    0.0000
     37 H6         4.1440    0.9537    6.4753 H         1 RES1    0.0000
     38 H7         1.0013    0.5294    8.6025 H         1 RES1    0.0000
@<TRIPOS>BOND
     1    1   24 1
     2    2   28 2
     3    3   10 1
     4    4   10 2
     5    5    6 2
     6    7    8 2
     7    9   10 2
     8   11   22 2
     9   12    7 2
    10   13   26 1
    11   14   18 2
    12   15    5 1
    13   16   22 2
    14   17   20 2
    15   19   14 1
    16   20   19 1
    17   21    5 2
    18   22   15 1
    19   23   29 2
    20   24   19 1
    21   25   20 2
    22   26    3 1
    23   27    3 1
    24   28    1 1
    25   29   19 1
    26   30   29 2
    27   31   14 2
    28   32   24 1
    29   33   27 1
    30   34   26 1
    31   35   24 1
    32   36   26 1
    33   37   27 1
    34   38   13 1
    35    7   15 1
    36   13   28 1
    37   15   27 1
@<TRIPOS>SUBSTRUCTURE
     1 RES1 1

@<TRIPOS>CRYSIN
   9.5960   18.7730    9.5200  90.0000 100.1540  90.0000  14 1

