# MOL2 file generated by ConQuest
# Please check atom types

@<TRIPOS>MOLECULE
TIPMUC
    25    24     1
SMALL
USER_CHARGES
****
Generated from CSD

@<TRIPOS>ATOM
      1 O1        -2.1475    2.3565    1.4907 O.2       1 RES1    0.0000
      2 O2        -1.3233    2.4609    4.9460 O.2       1 RES1    0.0000
      3 N1         1.2758    0.3038    2.3339 N.3       1 RES1    0.0000
      4 O3         0.2748   -1.6262    1.8410 O.2       1 RES1    0.0000
      5 O4         2.4339   -1.5823    2.0945 O.2       1 RES1    0.0000
      6 O5        -0.5947   -0.3702    4.7793 O.2       1 RES1    0.0000
      7 O6         0.6633    2.4579    4.1122 O.2       1 RES1    0.0000
      8 N2        -1.2556   -0.1596    3.7895 N.pl3     1 RES1    0.0000
      9 O7        -3.2755    1.5206    3.1339 O.2       1 RES1    0.0000
     10 N3        -0.4984    2.1209    4.1486 N.pl3     1 RES1    0.0000
     11 O8        -2.0670   -0.8881    3.2747 O.2       1 RES1    0.0000
     12 N4         4.3939    1.5828   -0.8312 N.1       1 RES1    1.0000
     13 O9         2.2119    0.4651   -0.1824 O.2       1 RES1    0.0000
     14 N5         1.3302   -1.0548    2.0547 N.pl3     1 RES1    0.0000
     15 N6        -2.2691    1.7151    2.5127 N.pl3     1 RES1    0.0000
     16 C1         0.0405    0.9564    1.9351 C.3       1 RES1    0.0000
     17 C2         2.9012    0.9830    0.6610 C.2       1 RES1    0.0000
     18 N7         4.1219    1.5716    0.4018 N.2       1 RES1    0.0000
     19 C3         2.5380    0.9949    2.1202 C.3       1 RES1    0.0000
     20 N8         4.6875    1.6606   -1.9021 N.2       1 RES1   -1.0000
     21 C4        -0.9577    1.1456    3.0587 C.3       1 RES1    0.0000
     22 H1        -0.4117    0.4390    1.2941 H         1 RES1    0.0000
     23 H2         0.2477    1.8213    1.6318 H         1 RES1    0.0000
     24 H3         3.2223    0.5577    2.6712 H         1 RES1    0.0000
     25 H4         2.4685    1.8569    2.3712 H         1 RES1    0.0000
@<TRIPOS>BOND
     1    1   15 2
     2    2   10 2
     3    3   14 1
     4    4   14 2
     5    5   14 2
     6    6    8 2
     7    7   10 2
     8    8   11 2
     9    9   15 2
    10   10   21 1
    11   12   18 2
    12   13   17 2
    13   15   21 1
    14   16    3 1
    15   17   18 1
    16   19    3 1
    17   20   12 2
    18   21    8 1
    19   22   16 1
    20   23   16 1
    21   24   19 1
    22   25   19 1
    23   16   21 1
    24   17   19 1
@<TRIPOS>SUBSTRUCTURE
     1 RES1 1

@<TRIPOS>CRYSIN
   9.9618    5.9327   19.1585  90.0000 100.0530  90.0000 231 1

