# MOL2 file generated by ConQuest
# Please check atom types

@<TRIPOS>MOLECULE
TIPNEN
    31    30     1
SMALL
NO_CHARGES
****
Generated from CSD

@<TRIPOS>ATOM
      1 O1         1.4899    1.3508    4.1740 O.3       1 RES1    0.0000
      2 O2         6.1151    0.3608    6.6363 O.3       1 RES1    0.0000
      3 O3         8.6237    2.0753    8.2957 O.2       1 RES1    0.0000
      4 O4         5.7742    1.8912    9.0182 O.2       1 RES1    0.0000
      5 O5         8.9173    0.3165    7.0475 O.2       1 RES1    0.0000
      6 O6         7.2685   -1.6212   10.1126 O.2       1 RES1    0.0000
      7 O7         6.8847    1.1945   10.7647 O.2       1 RES1    0.0000
      8 C1         7.2994    0.1909    8.6898 C.3       1 RES1    0.0000
      9 N1         6.5877    1.1820    9.5817 N.pl3     1 RES1    0.0000
     10 N2         8.3756    0.9433    7.9412 N.pl3     1 RES1    0.0000
     11 O8         9.1921   -0.6893    9.7568 O.2       1 RES1    0.0000
     12 O9         3.8808    0.1756    6.9655 O.2       1 RES1    0.0000
     13 N3         4.7486    1.7326    5.5575 N.am      1 RES1    0.0000
     14 N4         7.9957   -0.8001    9.6016 N.pl3     1 RES1    0.0000
     15 O10        3.3541    0.2455    3.6547 O.2       1 RES1    0.0000
     16 C2         3.4507    2.1730    5.1185 C.3       1 RES1    0.0000
     17 H1         3.5451    3.0203    4.6153 H         1 RES1    0.0000
     18 H2         2.8800    2.3486    5.9080 H         1 RES1    0.0000
     19 C3         2.7877    1.1428    4.2411 C.2       1 RES1    0.0000
     20 C4         6.3605   -0.5308    7.7273 C.3       1 RES1    0.0000
     21 H3         6.7787   -1.3661    7.4014 H         1 RES1    0.0000
     22 H4         5.5121   -0.7598    8.1819 H         1 RES1    0.0000
     23 C5         0.7209    0.4188    3.3501 C.3       1 RES1    0.0000
     24 H5         0.7493   -0.4898    3.7431 H         1 RES1    0.0000
     25 H6         1.0972    0.3785    2.4348 H         1 RES1    0.0000
     26 C6        -0.6700    0.9177    3.3105 C.3       1 RES1    0.0000
     27 H7        -1.2198    0.3103    2.7740 H         1 RES1    0.0000
     28 H8        -0.6859    1.8122    2.9107 H         1 RES1    0.0000
     29 H9        -1.0270    0.9621    4.2225 H         1 RES1    0.0000
     30 C7         4.8089    0.7296    6.4394 C.2       1 RES1    0.0000
     31 H10        5.4140    2.0798    5.3386 H         1 RES1    0.0000
@<TRIPOS>BOND
     1    1   19 1
     2    2   20 1
     3    3   10 2
     4    4    9 2
     5    5   10 2
     6    6   14 2
     7    7    9 2
     8    8    9 1
     9   10    8 1
    10   11   14 2
    11   12   30 2
    12   13   16 1
    13   14    8 1
    14   15   19 2
    15   16   17 1
    16   18   16 1
    17   19   16 1
    18   20    8 1
    19   21   20 1
    20   22   20 1
    21   23    1 1
    22   24   23 1
    23   25   23 1
    24   26   23 1
    25   27   26 1
    26   28   26 1
    27   29   26 1
    28   30    2 1
    29   31   13 1
    30   13   30 1
@<TRIPOS>SUBSTRUCTURE
     1 RES1 1

@<TRIPOS>CRYSIN
  13.1320    5.6826   18.0280  90.0000 106.2800  90.0000  14 1

