# MOL2 file generated by ConQuest
# Please check atom types

@<TRIPOS>MOLECULE
TIPNAJ
    39    32     2
SMALL
NO_CHARGES
****
Generated from CSD

@<TRIPOS>ATOM
      1 O1         3.5109    1.9700    0.9899 O.2       1 RES1    0.0000
      2 O2         2.3850    5.3697   -0.6578 O.2       1 RES1    0.0000
      3 O3         3.6795    5.4711    3.0724 O.2       1 RES1    0.0000
      4 N1         2.6993    2.7857    0.8750 N.pl3     1 RES1    0.0000
      5 N2         2.9985    4.4079    2.6903 N.pl3     1 RES1    0.0000
      6 O4         2.4570    3.5684    3.3266 O.2       1 RES1    0.0000
      7 N3         2.1200    5.1391    0.5159 N.pl3     1 RES1    0.0000
      8 O5         1.1738    5.4971    1.1711 O.2       1 RES1    0.0000
      9 O6         1.5410    2.5982    0.6224 O.2       1 RES1    0.0000
     10 O7         5.4942    3.8386    1.5506 O.3       1 RES1    0.0000
     11 O8         6.7555    5.6993    1.7580 O.2       1 RES1    0.0000
     12 O9        10.6708    3.9689    3.4292 O.3       1 RES1    0.0000
     13 C1         6.4358    4.6044    2.1132 C.2       1 RES1    0.0000
     14 C2         3.1844    4.2391    1.1881 C.3       1 RES1    0.0000
     15 N4         7.0867    3.9530    3.1706 N.am      1 RES1    0.0000
     16 N5         6.6633    2.7149    3.7097 N.pl3     1 RES1    0.0000
     17 C3         4.5838    4.4911    0.6586 C.3       1 RES1    0.0000
     18 H1         4.6762    4.1235   -0.2570 H         1 RES1    0.0000
     19 H2         4.7694    5.4631    0.6286 H         1 RES1    0.0000
     20 O10        9.3455    2.9714    1.9078 O.2       1 RES1    0.0000
     21 C4         8.4060    4.4101    3.5857 C.3       1 RES1    0.0000
     22 H3         8.5063    4.2719    4.5600 H         1 RES1    0.0000
     23 H4         8.4862    5.3810    3.4057 H         1 RES1    0.0000
     24 C5         9.5125    3.6789    2.8633 C.2       1 RES1    0.0000
     25 O11        5.4942    2.4141    3.6243 O.2       1 RES1    0.0000
     26 O12        7.5377    2.0737    4.2710 O.2       1 RES1    0.0000
     27 C6        11.8633    3.3260    2.8838 C.3       1 RES1    0.0000
     28 H5        12.6504    3.9066    3.0341 H         1 RES1    0.0000
     29 H6        11.7544    3.1997    1.9074 H         1 RES1    0.0000
     30 C7        12.0855    2.0097    3.5343 C.3       1 RES1    0.0000
     31 H7        12.8895    1.5922    3.1625 H         1 RES1    0.0000
     32 H8        11.3113    1.4302    3.3721 H         1 RES1    0.0000
     33 H9        12.1996    2.1371    4.4987 H         1 RES1    0.0000
     34 N6         3.0340    2.8531    1.7275 Du        2 SUP2    0.0000
     35 N7         2.9036    5.2043    2.3705 Du        2 SUP2    0.0000
     36 N8         2.1691    4.5013    0.1502 Du        2 SUP2    0.0000
     37 O13        1.7515    5.5747    2.4595 Du        2 SUP2    0.0000
     38 O14        1.1816    3.7690    0.1945 Du        2 SUP2    0.0000
     39 O15        2.5460    2.7420    2.8526 Du        2 SUP2    0.0000
@<TRIPOS>BOND
     1    1    4 2
     2    2    7 2
     3    3    5 2
     4    4    9 2
     5    5    6 2
     6    7    8 2
     7   10   13 1
     8   11   13 2
     9   12   24 1
    10   13   15 1
    11   14    4 1
    12   15   16 1
    13   16   25 2
    14   17   10 1
    15   18   17 1
    16   19   17 1
    17   20   24 2
    18   21   15 1
    19   22   21 1
    20   23   21 1
    21   24   21 1
    22   26   16 2
    23   27   12 1
    24   28   27 1
    25   29   27 1
    26   30   27 1
    27   31   30 1
    28   32   30 1
    29   33   30 1
    30    5   14 1
    31    7   14 1
    32   14   17 1
@<TRIPOS>SUBSTRUCTURE
     1 RES1 1
     2 SUP2 34

@<TRIPOS>CRYSIN
  12.8990    5.6642   19.7870  90.0000  92.6470  90.0000  14 1

