# MOL2 file generated by ConQuest
# Please check atom types

@<TRIPOS>MOLECULE
TIPVAR
    20    21     1
SMALL
NO_CHARGES
****
Generated from CSD

@<TRIPOS>ATOM
      1 O1         9.8783    5.9089    0.1288 O.3       1 RES1    0.0000
      2 H1         9.8433    6.6127   -0.2915 H         1 RES1    0.0000
      3 N1         8.8691    5.8997    1.1178 N.2       1 RES1    0.0000
      4 N2         9.1588    3.5430    0.9008 N.pl3     1 RES1    0.0000
      5 H2         9.7810    3.5430    0.3067 H         1 RES1    0.0000
      6 C1         8.5934    4.6848    1.4411 C.2       1 RES1    0.0000
      7 C2         7.6081    4.2461    2.4371 C.ar      1 RES1    0.0000
      8 C3         6.7462    4.9608    3.2556 C.ar      1 RES1    0.0000
      9 H3         6.7433    5.8913    3.2528 H         1 RES1    0.0000
     10 C4         5.8847    4.2428    4.0810 C.ar      1 RES1    0.0000
     11 H4         5.2997    4.7009    4.6411 H         1 RES1    0.0000
     12 O1F        9.8783    1.1771    0.1288 O.3       1 RES1    0.0000
     13 H1F        9.8433    0.4733   -0.2915 H         1 RES1    0.0000
     14 N1F        8.8691    1.1863    1.1178 N.2       1 RES1    0.0000
     15 C1F        8.5934    2.4012    1.4411 C.2       1 RES1    0.0000
     16 C2F        7.6081    2.8399    2.4371 C.ar      1 RES1    0.0000
     17 C3F        6.7462    2.1252    3.2556 C.ar      1 RES1    0.0000
     18 H3F        6.7433    1.1947    3.2528 H         1 RES1    0.0000
     19 C4F        5.8847    2.8432    4.0810 C.ar      1 RES1    0.0000
     20 H4F        5.2997    2.3851    4.6411 H         1 RES1    0.0000
@<TRIPOS>BOND
     1    1    2 1
     2    3    1 1
     3    4    5 1
     4    6    3 2
     5    7    6 1
     6    8    7 ar
     7    9    8 1
     8   10    8 ar
     9   11   10 1
    10   12   13 1
    11   14   12 1
    12   15    4 1
    13   16    7 ar
    14   17   16 ar
    15   18   17 1
    16   19   10 ar
    17   20   19 1
    18    4    6 1
    19   14   15 2
    20   15   16 1
    21   17   19 ar
@<TRIPOS>SUBSTRUCTURE
     1 RES1 1

@<TRIPOS>CRYSIN
  12.2140   14.1720    4.5983  90.0000  90.0000  90.0000  62 1

