# MOL2 file generated by ConQuest
# Please check atom types

@<TRIPOS>MOLECULE
TIQHOQ
    71    66     2
SMALL
NO_CHARGES
****
Generated from CSD

@<TRIPOS>ATOM
      1 N1        -7.7272   -4.5797   -0.9628 N.ar      1 RES1    0.0000
      2 C1        -7.3800   -4.0100    0.2019 C.ar      1 RES1    0.0000
      3 C2        -8.0556   -4.6006    1.4183 C.3       1 RES1    0.0000
      4 H1        -8.6864   -5.2648    1.1295 H         1 RES1    0.0000
      5 H2        -7.4034   -5.0070    1.9936 H         1 RES1    0.0000
      6 H3        -8.5162   -3.9069    1.8950 H         1 RES1    0.0000
      7 H4        -7.9789   -5.7025    1.6508 Du        2 SUP2    0.0000
      8 H5        -8.0002   -3.9050    2.3576 Du        2 SUP2    0.0000
      9 H6        -9.2483   -4.5042    1.1553 Du        2 SUP2    0.0000
     10 C3        -6.4073   -3.0302    0.3006 C.ar      1 RES1    0.0000
     11 C4        -6.0085   -2.4789    1.6297 C.2       1 RES1    0.0000
     12 O1        -6.7209   -1.8589    2.3506 O.2       1 RES1    0.0000
     13 O2        -4.7509   -2.7840    1.9161 O.3       1 RES1    0.0000
     14 C5        -5.7586   -2.5722   -0.8829 C.ar      1 RES1    0.0000
     15 C6        -6.1597   -3.1702   -2.0829 C.ar      1 RES1    0.0000
     16 C7        -5.5715   -2.6570   -3.3720 C.2       1 RES1    0.0000
     17 O3        -5.8135   -1.5961   -3.8370 O.2       1 RES1    0.0000
     18 O4        -4.7440   -3.5551   -3.8957 O.3       1 RES1    0.0000
     19 C8        -7.1308   -4.1469   -2.0852 C.ar      1 RES1    0.0000
     20 C9        -7.6081   -4.8240   -3.3439 C.3       1 RES1    0.0000
     21 H7        -8.2770   -5.4840   -3.1466 H         1 RES1    0.0000
     22 H8        -7.9795   -4.1579   -3.9262 H         1 RES1    0.0000
     23 H9        -6.8589   -5.2445   -3.7712 H         1 RES1    0.0000
     24 H10       -7.2108   -4.3495   -4.0718 Du        2 SUP2    0.0000
     25 H11       -8.4844   -4.9787   -3.3274 Du        2 SUP2    0.0000
     26 H12       -7.1939   -5.6896   -3.3415 Du        2 SUP2    0.0000
     27 C10       -4.6921   -1.5630   -0.8313 C.ar      1 RES1    0.0000
     28 C11       -4.8715   -0.3401   -0.2301 C.ar      1 RES1    0.0000
     29 H13       -5.7249   -0.1479    0.1691 H         1 RES1    0.0000
     30 C12       -3.8607    0.5992   -0.1714 C.ar      1 RES1    0.0000
     31 H14       -4.0114    1.4359    0.2747 H         1 RES1    0.0000
     32 C13       -2.6282    0.3321   -0.7233 C.ar      1 RES1    0.0000
     33 H15       -1.9076    0.9675   -0.7092 H         1 RES1    0.0000
     34 C14       -2.4783   -0.8816   -1.3479 C.ar      1 RES1    0.0000
     35 C15       -3.4458   -1.8454   -1.4089 C.ar      1 RES1    0.0000
     36 H16       -3.2840   -2.6846   -1.8457 H         1 RES1    0.0000
     37 C16       -4.2301   -2.1904    3.1349 C.3       1 RES1    0.0000
     38 H17       -4.7639   -2.4630    3.8840 H         1 RES1    0.0000
     39 H18       -4.2550   -1.2327    3.0715 H         1 RES1    0.0000
     40 C17       -2.7982   -2.6527    3.3298 C.3       1 RES1    0.0000
     41 C18       -1.9651   -2.2297    2.1251 C.3       1 RES1    0.0000
     42 H19       -2.2537   -2.6797    1.3267 H         1 RES1    0.0000
     43 H20       -2.0780   -1.2824    2.0171 H         1 RES1    0.0000
     44 H21       -1.0394   -2.4261    2.2848 H         1 RES1    0.0000
     45 C19       -2.7316   -4.1162    3.4754 C.3       1 RES1    0.0000
     46 H22       -3.0340   -4.5349    2.6652 H         1 RES1    0.0000
     47 H23       -1.8312   -4.3949    3.6632 H         1 RES1    0.0000
     48 H24       -3.3037   -4.3722    4.2010 H         1 RES1    0.0000
     49 C20       -2.2912   -1.9510    4.5790 C.3       1 RES1    0.0000
     50 H25       -2.8099   -2.2463    5.3305 H         1 RES1    0.0000
     51 H26       -1.3631   -2.1474    4.7317 H         1 RES1    0.0000
     52 H27       -2.4018   -1.0043    4.4640 H         1 RES1    0.0000
     53 C21       -4.0174   -3.0953   -5.0839 C.3       1 RES1    0.0000
     54 H28       -3.3753   -2.4249   -4.8397 H         1 RES1    0.0000
     55 H29       -4.6256   -2.7208   -5.7273 H         1 RES1    0.0000
     56 C22       -3.3070   -4.2777   -5.6874 C.3       1 RES1    0.0000
     57 C23       -4.3081   -5.2353   -6.2533 C.3       1 RES1    0.0000
     58 H30       -4.8369   -5.6203   -5.5512 H         1 RES1    0.0000
     59 H31       -4.8772   -4.7491   -6.8544 H         1 RES1    0.0000
     60 H32       -3.8583   -5.9340   -6.7347 H         1 RES1    0.0000
     61 C24       -2.4423   -4.9750   -4.6964 C.3       1 RES1    0.0000
     62 H33       -2.9881   -5.3422   -3.9967 H         1 RES1    0.0000
     63 H34       -1.9521   -5.6804   -5.1238 H         1 RES1    0.0000
     64 H35       -1.8282   -4.3397   -4.3207 H         1 RES1    0.0000
     65 C25       -2.4400   -3.6951   -6.8286 C.3       1 RES1    0.0000
     66 H36       -1.7855   -3.0953   -6.4623 H         1 RES1    0.0000
     67 H37       -1.9963   -4.3986   -7.3077 H         1 RES1    0.0000
     68 H38       -3.0152   -3.2138   -7.4274 H         1 RES1    0.0000
     69 N2        -1.1555   -1.1713   -1.9631 N.pl3     1 RES1    0.0000
     70 O5        -0.2779   -0.3984   -1.8293 O.2       1 RES1    0.0000
     71 O6        -1.1135   -2.1180   -2.6840 O.2       1 RES1    0.0000
@<TRIPOS>BOND
     1    1    2 ar
     2    2    3 1
     3    3    4 1
     4    5    3 1
     5    6    3 1
     6   10    2 ar
     7   11   10 1
     8   12   11 2
     9   13   11 1
    10   14   10 ar
    11   15   14 ar
    12   16   15 1
    13   17   16 2
    14   18   16 1
    15   19    1 ar
    16   20   19 1
    17   21   20 1
    18   22   20 1
    19   23   20 1
    20   27   14 1
    21   28   27 ar
    22   29   28 1
    23   30   28 ar
    24   31   30 1
    25   32   30 ar
    26   33   32 1
    27   34   32 ar
    28   35   27 ar
    29   36   35 1
    30   37   13 1
    31   38   37 1
    32   39   37 1
    33   40   37 1
    34   41   40 1
    35   42   41 1
    36   43   41 1
    37   44   41 1
    38   45   40 1
    39   46   45 1
    40   47   45 1
    41   48   45 1
    42   49   40 1
    43   50   49 1
    44   51   49 1
    45   52   49 1
    46   53   18 1
    47   54   53 1
    48   55   53 1
    49   56   53 1
    50   57   56 1
    51   58   57 1
    52   59   57 1
    53   60   57 1
    54   61   56 1
    55   62   61 1
    56   63   61 1
    57   64   61 1
    58   65   56 1
    59   66   65 1
    60   67   65 1
    61   68   65 1
    62   69   34 1
    63   70   69 2
    64   71   69 2
    65   15   19 ar
    66   34   35 ar
@<TRIPOS>SUBSTRUCTURE
     1 RES1 1
     2 SUP2 7

@<TRIPOS>CRYSIN
  17.7360    6.1390   24.7560  90.0000 108.4600  90.0000  14 1

