# MOL2 file generated by ConQuest
# Please check atom types

@<TRIPOS>MOLECULE
TIQHUW
    73    71     2
SMALL
NO_CHARGES
****
Generated from CSD

@<TRIPOS>ATOM
      1 N1         6.6422    8.8879    8.3000 N.ar      1 RES1    0.0000
      2 C1         6.2450    9.5724    7.2071 C.ar      1 RES1    0.0000
      3 C2         5.9035   10.9952    7.4979 C.3       1 RES1    0.0000
      4 H1         5.9439   11.1468    8.4454 H         1 RES1    0.0000
      5 H2         5.0168   11.1822    7.1806 H         1 RES1    0.0000
      6 H3         6.5299   11.5708    7.0543 H         1 RES1    0.0000
      7 C3         6.3070    8.9760    6.0083 C.ar      1 RES1    0.0000
      8 C4         5.8831    9.7729    4.8023 C.2       1 RES1    0.0000
      9 O1         4.9242   10.4788    4.7626 O.2       1 RES1    0.0000
     10 O2         6.7805    9.7112    3.8283 O.3       1 RES1    0.0000
     11 C5         6.6768    7.6417    5.8335 C.ar      1 RES1    0.0000
     12 C6         7.0294    6.9384    7.0381 C.ar      1 RES1    0.0000
     13 C7         7.4241    5.5044    6.9764 C.2       1 RES1    0.0000
     14 O3         8.3742    5.0506    7.5361 O.2       1 RES1    0.0000
     15 O4         6.5273    4.7684    6.3271 O.3       1 RES1    0.0000
     16 C8         7.0130    7.6024    8.2427 C.ar      1 RES1    0.0000
     17 C9         7.3890    6.9479    9.5340 C.3       1 RES1    0.0000
     18 H4         7.3067    7.5802   10.2494 H         1 RES1    0.0000
     19 H5         8.2959    6.6375    9.4840 H         1 RES1    0.0000
     20 H6         6.8053    6.2035    9.6971 H         1 RES1    0.0000
     21 C10        6.7111    6.9773    4.5364 C.ar      1 RES1    0.0000
     22 C11        5.5806    6.7670    3.8533 C.ar      1 RES1    0.0000
     23 H7         4.7912    7.0547    4.2514 H         1 RES1    0.0000
     24 C12        5.4613    6.1252    2.5341 C.ar      1 RES1    0.0000
     25 C13        6.7913    5.8450    2.1286 C.ar      1 RES1    0.0000
     26 H8         6.8403    5.4665    1.2825 H         1 RES1    0.0000
     27 C14        8.0229    6.0175    2.7265 C.ar      1 RES1    0.0000
     28 C15        7.9270    6.5898    3.9590 C.ar      1 RES1    0.0000
     29 H9         8.7095    6.7329    4.4423 H         1 RES1    0.0000
     30 C16        6.4411   10.4119    2.6016 C.3       1 RES1    0.0000
     31 H10        6.6466   11.3555    2.6839 H         1 RES1    0.0000
     32 H11        5.4949   10.3176    2.4092 H         1 RES1    0.0000
     33 C17        7.2536    9.7952    1.5072 C.3       1 RES1    0.0000
     34 H12        6.9866    8.8670    1.4294 H         1 RES1    0.0000
     35 H13        7.0077   10.2321    0.6772 H         1 RES1    0.0000
     36 C18        8.7205    9.8226    1.5983 C.3       1 RES1    0.0000
     37 H14        8.9699    9.3249    2.3916 H         1 RES1    0.0000
     38 H15        8.9833   10.7430    1.7437 H         1 RES1    0.0000
     39 C19        9.5252    9.2994    0.4686 C.3       1 RES1    0.0000
     40 H16        9.2829    8.3723    0.3114 H         1 RES1    0.0000
     41 H17        9.3091    9.8024   -0.3320 H         1 RES1    0.0000
     42 C20       10.9652    9.3837    0.7169 C.3       1 RES1    0.0000
     43 H18       11.1743   10.2968    0.9740 H         1 RES1    0.0000
     44 H19       11.1748    8.8170    1.4764 H         1 RES1    0.0000
     45 C21       11.8042    9.0280   -0.3217 C.3       1 RES1    0.0000
     46 H20       12.7167    9.1165   -0.0411 H         1 RES1    0.0000
     47 H21       11.6431    9.6084   -1.0724 H         1 RES1    0.0000
     48 H22       11.6302    8.1206   -0.5759 H         1 RES1    0.0000
     49 C22        6.8441    3.3622    6.1141 C.3       1 RES1    0.0000
     50 H23        6.6578    2.8522    6.9177 H         1 RES1    0.0000
     51 H24        7.7844    3.2613    5.8981 H         1 RES1    0.0000
     52 C23        6.0098    2.8647    4.9918 C.3       1 RES1    0.0000
     53 H25        6.2554    1.9454    4.8125 H         1 RES1    0.0000
     54 H26        6.2218    3.3837    4.2000 H         1 RES1    0.0000
     55 C24        4.5358    2.9220    5.2077 C.3       1 RES1    0.0000
     56 H27        4.2841    3.8272    5.4530 H         1 RES1    0.0000
     57 H28        4.2996    2.3417    5.9496 H         1 RES1    0.0000
     58 C25        3.7264    2.5023    3.9752 C.3       1 RES1    0.0000
     59 H29        3.9637    3.0741    3.2289 H         1 RES1    0.0000
     60 H30        3.9602    1.5919    3.7372 H         1 RES1    0.0000
     61 C26        2.2536    2.5802    4.1911 C.3       1 RES1    0.0000
     62 H31        2.0106    3.4982    4.3880 H         1 RES1    0.0000
     63 H32        2.0174    2.0392    4.9609 H         1 RES1    0.0000
     64 C27        1.4611    2.1045    2.9865 C.3       1 RES1    0.0000
     65 H33        0.5224    2.1639    3.1775 H         1 RES1    0.0000
     66 H34        1.6907    1.1923    2.7926 H         1 RES1    0.0000
     67 H35        1.6688    2.6546    2.2285 H         1 RES1    0.0000
     68 O5        10.4482    5.9256    2.9395 Du        2 SUP2    0.0000
     69 O6         9.5904    5.2094    1.1973 Du        2 SUP2    0.0000
     70 N2         9.4179    5.7563    2.2741 Du        2 SUP2    0.0000
     71 O7         3.5042    5.6269    1.1018 O.2       1 RES1    0.0000
     72 N3         4.0234    6.1232    2.1448 N.pl3     1 RES1    0.0000
     73 O8         2.6975    6.4369    2.7030 O.2       1 RES1    0.0000
@<TRIPOS>BOND
     1    1    2 ar
     2    2    3 1
     3    3    4 1
     4    5    3 1
     5    6    3 1
     6    7    2 ar
     7    8    7 1
     8    9    8 2
     9   10    8 1
    10   11    7 ar
    11   12   11 ar
    12   13   12 1
    13   14   13 2
    14   15   13 1
    15   16    1 ar
    16   17   16 1
    17   18   17 1
    18   19   17 1
    19   20   17 1
    20   21   11 1
    21   22   21 ar
    22   23   22 1
    23   24   22 ar
    24   25   24 ar
    25   26   25 1
    26   27   25 ar
    27   28   21 ar
    28   29   28 1
    29   30   10 1
    30   31   30 1
    31   32   30 1
    32   33   30 1
    33   34   33 1
    34   35   33 1
    35   36   33 1
    36   37   36 1
    37   38   36 1
    38   39   36 1
    39   40   39 1
    40   41   39 1
    41   42   39 1
    42   43   42 1
    43   44   42 1
    44   45   42 1
    45   46   45 1
    46   47   45 1
    47   48   45 1
    48   49   15 1
    49   50   49 1
    50   51   49 1
    51   52   49 1
    52   53   52 1
    53   54   52 1
    54   55   52 1
    55   56   55 1
    56   57   55 1
    57   58   55 1
    58   59   58 1
    59   60   58 1
    60   61   58 1
    61   62   61 1
    62   63   61 1
    63   64   61 1
    64   65   64 1
    65   66   64 1
    66   67   64 1
    67   71   72 2
    68   72   24 1
    69   73   72 2
    70   12   16 ar
    71   27   28 ar
@<TRIPOS>SUBSTRUCTURE
     1 RES1 1
     2 SUP2 68

@<TRIPOS>CRYSIN
   8.0890   11.4950   15.7070  69.2900  88.1200  87.0300   2 1

