# MOL2 file generated by ConQuest
# Please check atom types

@<TRIPOS>MOLECULE
TIQQAM
    54    57     1
SMALL
NO_CHARGES
****
Generated from CSD

@<TRIPOS>ATOM
      1 C1         1.2103   10.2365    4.9991 C.2       1 RES1    0.0000
      2 C2         0.6196   11.5931    5.0659 C.ar      1 RES1    0.0000
      3 C3         1.3354   12.7134    4.6295 C.ar      1 RES1    0.0000
      4 H1         2.2762   12.6315    4.2990 H         1 RES1    0.0000
      5 C4         0.7585   13.9787    4.7679 C.ar      1 RES1    0.0000
      6 H2         1.2050   14.7210    4.5024 H         1 RES1    0.0000
      7 C5        -0.4670   14.1414    5.3140 C.ar      1 RES1    0.0000
      8 H3        -0.8451   14.9520    5.4585 H         1 RES1    0.0000
      9 C6        -1.1727   13.0463    5.7463 C.ar      1 RES1    0.0000
     10 H4        -2.0524   13.1355    6.0959 H         1 RES1    0.0000
     11 C7        -0.6369   11.7747    5.6368 C.ar      1 RES1    0.0000
     12 H5        -1.1110   10.9305    5.8958 H         1 RES1    0.0000
     13 C8         2.2005    9.6463    4.3132 C.2       1 RES1    0.0000
     14 C9         3.1618   10.1304    3.3324 C.2       1 RES1    0.0000
     15 O1         4.2806    9.6401    3.3178 O.2       1 RES1    0.0000
     16 C10        2.7966   11.0891    2.2444 C.ar      1 RES1    0.0000
     17 C11        1.5710   11.0576    1.6362 C.ar      1 RES1    0.0000
     18 H6         0.9042   10.4685    1.9969 H         1 RES1    0.0000
     19 C12        1.3573   11.8346    0.5164 C.ar      1 RES1    0.0000
     20 H7         0.4873   11.7390    0.1865 H         1 RES1    0.0000
     21 C13        2.3353   12.6420    0.0271 C.ar      1 RES1    0.0000
     22 H8         2.1759   13.2090   -0.6747 H         1 RES1    0.0000
     23 C14        3.5423   12.7313    0.6577 C.ar      1 RES1    0.0000
     24 H9         4.3084   13.2615    0.4577 H         1 RES1    0.0000
     25 C15        3.8069   11.9375    1.7637 C.ar      1 RES1    0.0000
     26 H10        4.7368   11.9805    2.2851 H         1 RES1    0.0000
     27 C16        2.3456    8.2320    4.8143 C.3       1 RES1    0.0000
     28 H11        3.2265    8.0955    5.1330 H         1 RES1    0.0000
     29 O2         0.6423    9.4122    5.9226 O.3       1 RES1    0.0000
     30 C17        2.0932    7.2062    3.7209 C.ar      1 RES1    0.0000
     31 C18        3.0763    6.2916    3.3676 C.ar      1 RES1    0.0000
     32 H12        4.0165    6.3630    3.9565 H         1 RES1    0.0000
     33 C19        2.8403    5.3582    2.3699 C.ar      1 RES1    0.0000
     34 H13        3.5067    4.7775    2.0342 H         1 RES1    0.0000
     35 C20        1.6572    5.3361    1.7155 C.ar      1 RES1    0.0000
     36 H14        1.3726    4.8300    1.0171 H         1 RES1    0.0000
     37 C21        0.6650    6.2454    2.0447 C.ar      1 RES1    0.0000
     38 H15       -0.2282    6.3105    1.5155 H         1 RES1    0.0000
     39 C22        0.8945    7.1757    3.0523 C.ar      1 RES1    0.0000
     40 H16        0.2375    7.7490    3.2208 H         1 RES1    0.0000
     41 N1         1.3433    8.1071    5.8992 N.3       1 RES1    0.0000
     42 C23        1.9300    7.9296    7.2679 C.3       1 RES1    0.0000
     43 C24        2.5935    6.5520    7.2655 C.3       1 RES1    0.0000
     44 H17        1.8224    5.8695    7.1537 H         1 RES1    0.0000
     45 H18        3.0116    6.3315    8.2047 H         1 RES1    0.0000
     46 H19        3.3986    6.5940    6.7265 H         1 RES1    0.0000
     47 C25        2.8965    9.0353    7.6622 C.3       1 RES1    0.0000
     48 H20        2.4178    9.9540    7.6249 H         1 RES1    0.0000
     49 H21        3.6828    9.0300    7.0825 H         1 RES1    0.0000
     50 H22        3.1779    8.7990    8.5437 H         1 RES1    0.0000
     51 C26        0.7562    7.8866    8.2396 C.3       1 RES1    0.0000
     52 H23       -0.0360    7.2030    7.9165 H         1 RES1    0.0000
     53 H24        0.3320    8.7780    8.1843 H         1 RES1    0.0000
     54 H25        1.0683    7.6650    9.1268 H         1 RES1    0.0000
@<TRIPOS>BOND
     1    1    2 1
     2    2    3 ar
     3    3    4 1
     4    5    3 ar
     5    6    5 1
     6    7    5 ar
     7    8    7 1
     8    9    7 ar
     9   10    9 1
    10   11    2 ar
    11   12   11 1
    12   13    1 2
    13   14   13 1
    14   15   14 2
    15   16   14 1
    16   17   16 ar
    17   18   17 1
    18   19   17 ar
    19   20   19 1
    20   21   19 ar
    21   22   21 1
    22   23   21 ar
    23   24   23 1
    24   25   16 ar
    25   26   25 1
    26   27   13 1
    27   28   27 1
    28   29    1 1
    29   30   27 1
    30   31   30 ar
    31   32   31 1
    32   33   31 ar
    33   34   33 1
    34   35   33 ar
    35   36   35 1
    36   37   35 ar
    37   38   37 1
    38   39   30 ar
    39   40   39 1
    40   41   27 1
    41   42   41 1
    42   43   42 1
    43   44   43 1
    44   45   43 1
    45   46   43 1
    46   47   42 1
    47   48   47 1
    48   49   47 1
    49   50   47 1
    50   51   42 1
    51   52   51 1
    52   53   51 1
    53   54   51 1
    54    9   11 ar
    55   23   25 ar
    56   29   41 1
    57   37   39 ar
@<TRIPOS>SUBSTRUCTURE
     1 RES1 1

@<TRIPOS>CRYSIN
   5.9027   10.5000   33.9070  90.0000  90.8160  90.0000 231 1

