# MOL2 file generated by ConQuest
# Please check atom types

@<TRIPOS>MOLECULE
TISGUZ
    26    25     1
SMALL
NO_CHARGES
****
Generated from CSD

@<TRIPOS>ATOM
      1 O1         4.5391    5.9719    4.8426 O.3       1 RES1    0.0000
      2 O2         6.6539    6.9287    6.0552 O.2       1 RES1    0.0000
      3 O3         5.3866    8.3081    7.2916 O.3       1 RES1    0.0000
      4 N1         4.4153    7.1386    5.6480 N.am      1 RES1    0.0000
      5 C1         4.8505    6.3463    3.4942 C.3       1 RES1    0.0000
      6 H1         4.9354    5.5569    2.9542 H         1 RES1    0.0000
      7 H2         5.6769    6.8342    3.4798 H         1 RES1    0.0000
      8 H3         4.1479    6.8986    3.1441 H         1 RES1    0.0000
      9 C2         6.5770    8.7876    7.9684 C.3       1 RES1    0.0000
     10 H4         7.1636    9.2007    7.3298 H         1 RES1    0.0000
     11 H5         7.0272    8.0488    8.3850 H         1 RES1    0.0000
     12 H6         6.3286    9.4292    8.6366 H         1 RES1    0.0000
     13 C3         5.6015    7.4029    6.3592 C.2       1 RES1    0.0000
     14 O1A        3.1326    5.9719    7.1761 O.3       1 RES1    0.0000
     15 O2A        1.0179    6.9287    5.9634 O.2       1 RES1    0.0000
     16 O3A        2.2851    8.3081    4.7270 O.3       1 RES1    0.0000
     17 N1A        3.2565    7.1386    6.3706 N.am      1 RES1    0.0000
     18 C1A        2.8212    6.3463    8.5244 C.3       1 RES1    0.0000
     19 H1A        2.7363    5.5569    9.0645 H         1 RES1    0.0000
     20 H2A        1.9948    6.8342    8.5389 H         1 RES1    0.0000
     21 H3A        3.5238    6.8986    8.8746 H         1 RES1    0.0000
     22 C2A        1.0947    8.7876    4.0503 C.3       1 RES1    0.0000
     23 H4A        0.5081    9.2007    4.6889 H         1 RES1    0.0000
     24 H5A        0.6445    8.0488    3.6336 H         1 RES1    0.0000
     25 H6A        1.3431    9.4292    3.3820 H         1 RES1    0.0000
     26 C3A        2.0702    7.4029    5.6594 C.2       1 RES1    0.0000
@<TRIPOS>BOND
     1    1    4 1
     2    2   13 2
     3    3    9 1
     4    4   13 1
     5    5    1 1
     6    6    5 1
     7    7    5 1
     8    8    5 1
     9    9   10 1
    10   11    9 1
    11   12    9 1
    12   13    3 1
    13   14   17 1
    14   15   26 2
    15   16   22 1
    16   17    4 1
    17   18   14 1
    18   19   18 1
    19   20   18 1
    20   21   18 1
    21   22   23 1
    22   24   22 1
    23   25   22 1
    24   26   16 1
    25   17   26 1
@<TRIPOS>SUBSTRUCTURE
     1 RES1 1

@<TRIPOS>CRYSIN
  14.3113    8.5900    9.1538  90.0000 118.9180  90.0000  15 1

