# MOL2 file generated by ConQuest
# Please check atom types

@<TRIPOS>MOLECULE
TISJUB
    17    17     1
SMALL
NO_CHARGES
****
Generated from CSD

@<TRIPOS>ATOM
      1 C1         8.9663    2.5847    4.8064 C.ar      1 RES1    0.0000
      2 C2         8.6593    3.7922    5.3918 C.ar      1 RES1    0.0000
      3 H1         9.2456    4.1839    5.9981 H         1 RES1    0.0000
      4 C3         7.4799    4.4088    5.0724 C.ar      1 RES1    0.0000
      5 C4         6.5934    3.8516    4.1803 C.ar      1 RES1    0.0000
      6 H2         5.7876    4.2721    3.9812 H         1 RES1    0.0000
      7 C5         6.9285    2.6627    3.5939 C.ar      1 RES1    0.0000
      8 H3         6.3452    2.2692    2.9859 H         1 RES1    0.0000
      9 C6        10.2089    1.8301    5.2181 C.2       1 RES1    0.0000
     10 N1         8.0987    2.0533    3.8913 N.pl3     1 RES1    0.0000
     11 N2         7.1302    5.6745    5.7320 N.pl3     1 RES1    0.0000
     12 O1         8.3723    0.9076    3.2883 O.2       1 RES1    0.0000
     13 O2        10.4596    0.7216    4.5766 O.3       1 RES1    0.0000
     14 H4         9.6019    0.6058    3.9360 H         1 RES1    0.0000
     15 O3        10.8974    2.2626    6.1048 O.2       1 RES1    0.0000
     16 O4         6.0285    6.1460    5.5167 O.2       1 RES1    0.0000
     17 O5         7.9673    6.1897    6.4550 O.2       1 RES1    0.0000
@<TRIPOS>BOND
     1    1    2 ar
     2    2    3 1
     3    4    2 ar
     4    5    4 ar
     5    6    5 1
     6    7    5 ar
     7    8    7 1
     8    9    1 1
     9   10    1 ar
    10   11    4 1
    11   12   10 1
    12   13    9 1
    13   14   13 1
    14   15    9 2
    15   16   11 2
    16   17   11 2
    17    7   10 ar
@<TRIPOS>SUBSTRUCTURE
     1 RES1 1

@<TRIPOS>CRYSIN
  13.2440    5.9984    9.0482  90.0000  90.0000  90.0000  19 1

