# MOL2 file generated by ConQuest
# Please check atom types

@<TRIPOS>MOLECULE
TISNEP
   130   136     2
SMALL
NO_CHARGES
****
Generated from CSD

@<TRIPOS>ATOM
      1 O1         3.5404    7.3694   10.8286 O.2       1 RES1    0.0000
      2 O2         5.7761    1.1544   12.8518 O.2       1 RES1    0.0000
      3 O3         6.3665    2.9728   11.8369 O.2       1 RES1    0.0000
      4 O4         2.1942    4.2676   17.1016 O.2       1 RES1    0.0000
      5 O5         4.0428    3.0619   17.2207 O.3       1 RES1    0.0000
      6 N1         3.8009    3.8047   10.8889 N.pl3     1 RES1    0.0000
      7 N2         5.2601    6.0659   11.4903 N.am      1 RES1    0.0000
      8 N3         5.6115    2.3207   12.5503 N.pl3     1 RES1    0.0000
      9 C1         3.4453    5.0623   10.1994 C.3       1 RES1    0.0000
     10 C2         4.0730    6.2697   10.8891 C.2       1 RES1    0.0000
     11 C3         5.9195    7.1050   12.2705 C.3       1 RES1    0.0000
     12 C4         5.3708    7.2329   13.6556 C.ar      1 RES1    0.0000
     13 C5         4.4962    8.2233   13.9928 C.ar      1 RES1    0.0000
     14 C6         3.9965    8.3352   15.2571 C.ar      1 RES1    0.0000
     15 C7         4.3390    7.4407   16.2030 C.ar      1 RES1    0.0000
     16 C8         5.2052    6.4544   15.9151 C.ar      1 RES1    0.0000
     17 C9         5.7169    6.3430   14.6431 C.ar      1 RES1    0.0000
     18 C10        3.9352    5.0911    8.7647 C.ar      1 RES1    0.0000
     19 C11        5.2034    4.6691    8.4026 C.ar      1 RES1    0.0000
     20 C12        5.6374    4.8333    7.0860 C.ar      1 RES1    0.0000
     21 C13        4.7994    5.3873    6.1521 C.ar      1 RES1    0.0000
     22 C14        3.5575    5.8008    6.4963 C.ar      1 RES1    0.0000
     23 C15        3.1135    5.6517    7.7969 C.ar      1 RES1    0.0000
     24 C16        3.5651    2.5482   10.1713 C.3       1 RES1    0.0000
     25 C17        2.1492    2.3144    9.6741 C.ar      1 RES1    0.0000
     26 C18        1.0330    2.6119   10.4304 C.ar      1 RES1    0.0000
     27 C19       -0.2426    2.3200    9.9810 C.ar      1 RES1    0.0000
     28 C20       -0.4243    1.7260    8.7781 C.ar      1 RES1    0.0000
     29 C21        0.6539    1.4100    8.0249 C.ar      1 RES1    0.0000
     30 C22        1.9541    1.7135    8.4573 C.ar      1 RES1    0.0000
     31 C23        3.6026    3.7812   12.2836 C.ar      1 RES1    0.0000
     32 C24        2.6226    4.5332   12.9328 C.ar      1 RES1    0.0000
     33 C25        2.4694    4.4744   14.3040 C.ar      1 RES1    0.0000
     34 C26        3.2857    3.6754   15.0854 C.ar      1 RES1    0.0000
     35 C27        4.2846    2.9335   14.4754 C.ar      1 RES1    0.0000
     36 C28        4.4415    3.0125   13.1078 C.ar      1 RES1    0.0000
     37 C29        3.0943    3.6929   16.5549 C.2       1 RES1    0.0000
     38 C30        3.9483    3.0820   18.6553 C.3       1 RES1    0.0000
     39 H1         2.4707    5.1637   10.2057 H         1 RES1    0.0000
     40 H2         4.2347    8.8374   13.3456 H         1 RES1    0.0000
     41 H3         3.4171    9.0321   15.4651 H         1 RES1    0.0000
     42 H4         3.9755    7.5045   17.0569 H         1 RES1    0.0000
     43 H5         5.4575    5.8482   16.5730 H         1 RES1    0.0000
     44 H6         6.3076    5.6520   14.4491 H         1 RES1    0.0000
     45 H7         5.7628    4.2778    9.0343 H         1 RES1    0.0000
     46 H8         6.4947    4.5678    6.8425 H         1 RES1    0.0000
     47 H9         5.0869    5.4786    5.2725 H         1 RES1    0.0000
     48 H10        3.0016    6.1856    5.8572 H         1 RES1    0.0000
     49 H11        2.2565    5.9311    8.0249 H         1 RES1    0.0000
     50 H12        1.1408    3.0177   11.2611 H         1 RES1    0.0000
     51 H13       -0.9787    2.5327   10.5079 H         1 RES1    0.0000
     52 H14       -1.2831    1.5364    8.4737 H         1 RES1    0.0000
     53 H15        0.5311    0.9841    7.2060 H         1 RES1    0.0000
     54 H16        2.6832    1.5079    7.9176 H         1 RES1    0.0000
     55 H17        2.0629    5.0834   12.4347 H         1 RES1    0.0000
     56 H18        1.8044    4.9811   14.7097 H         1 RES1    0.0000
     57 H19        4.8418    2.3888   14.9834 H         1 RES1    0.0000
     58 H20        6.8646    6.8940   12.3296 H         1 RES1    0.0000
     59 H21        5.8064    7.9532   11.8129 H         1 RES1    0.0000
     60 H22        5.6404    5.2991   11.4122 H         1 RES1    0.0000
     61 H23        3.7926    1.8196   10.7684 H         1 RES1    0.0000
     62 H24        4.1552    2.5313    9.4021 H         1 RES1    0.0000
     63 H25        4.5833    2.4661   19.0276 H         1 RES1    0.0000
     64 H26        4.1368    3.9676   18.9750 H         1 RES1    0.0000
     65 H27        3.0620    2.8281   18.9203 H         1 RES1    0.0000
     66 O6         8.6017    1.0601   22.1629 O.2       2 RES2    0.0000
     67 O7        11.1691    6.5512   18.8831 O.2       2 RES2    0.0000
     68 O8        11.6423    4.8793   20.1598 O.2       2 RES2    0.0000
     69 O9         7.4532    2.9954   15.0946 O.2       2 RES2    0.0000
     70 O10        9.2313    4.3068   14.8439 O.3       2 RES2    0.0000
     71 N4         8.9885    4.4831   21.1863 N.3       2 RES2    0.0000
     72 N5        10.3315    2.1393   21.2156 N.am      2 RES2    0.0000
     73 N6        10.9244    5.4519   19.3508 N.pl3     2 RES2    0.0000
     74 C31        8.4699    3.4549   22.1099 C.3       2 RES2    0.0000
     75 C32        9.1368    2.1074   21.8200 C.2       2 RES2    0.0000
     76 C33       11.0448    0.9313   20.8565 C.3       2 RES2    0.0000
     77 C34       10.5504    0.2772   19.5945 C.ar      2 RES2    0.0000
     78 C35       10.3262   -1.0702   19.5242 C.ar      2 RES2    0.0000
     79 C36        9.9173   -1.6728   18.3291 C.ar      2 RES2    0.0000
     80 C37        9.7144   -0.9219   17.2234 C.ar      2 RES2    0.0000
     81 C38        9.9111    0.4092   17.2805 C.ar      2 RES2    0.0000
     82 C39       10.3431    1.0033   18.4568 C.ar      2 RES2    0.0000
     83 C40        8.7585    3.7897   23.5638 C.ar      2 RES2    0.0000
     84 C41        7.7596    3.6559   24.5114 C.ar      2 RES2    0.0000
     85 C42        8.0340    3.8609   25.8499 C.ar      2 RES2    0.0000
     86 C43        9.3095    4.1900   26.2521 C.ar      2 RES2    0.0000
     87 C44       10.2988    4.3384   25.3244 C.ar      2 RES2    0.0000
     88 C45       10.0278    4.1475   23.9857 C.ar      2 RES2    0.0000
     89 C46        8.6662    5.8930   21.5263 C.3       2 RES2    0.0000
     90 C47        7.3482    6.3663   20.9785 C.ar      2 RES2    0.0000
     91 C48        7.3154    7.1157   19.8112 C.ar      2 RES2    0.0000
     92 C49        6.1125    7.5579   19.2849 C.ar      2 RES2    0.0000
     93 C50        4.9526    7.2318   19.8947 C.ar      2 RES2    0.0000
     94 C51        4.9553    6.4860   21.0354 C.ar      2 RES2    0.0000
     95 C52        6.1538    6.0555   21.5756 C.ar      2 RES2    0.0000
     96 C53        8.8087    4.2191   19.8044 C.ar      2 RES2    0.0000
     97 C54        7.7493    3.4909   19.2835 C.ar      2 RES2    0.0000
     98 C55        7.6073    3.3223   17.9170 C.ar      2 RES2    0.0000
     99 C56        8.5021    3.9021   17.0245 C.ar      2 RES2    0.0000
    100 C57        9.5571    4.6401   17.5172 C.ar      2 RES2    0.0000
    101 C58        9.7121    4.7619   18.8861 C.ar      2 RES2    0.0000
    102 C59        8.3187    3.6690   15.5744 C.2       2 RES2    0.0000
    103 C60        9.1559    4.1542   13.4152 C.3       2 RES2    0.0000
    104 H28       10.4481   -1.5953   20.2822 H         2 RES2    0.0000
    105 H29        9.7832   -2.5922   18.2963 H         2 RES2    0.0000
    106 H30        9.4429   -1.3210   16.4307 H         2 RES2    0.0000
    107 H31        9.7561    0.9324   16.5271 H         2 RES2    0.0000
    108 H32       10.4952    1.9200   18.4714 H         2 RES2    0.0000
    109 H33        6.8975    3.4249   24.2454 H         2 RES2    0.0000
    110 H34        7.3554    3.7771   26.4810 H         2 RES2    0.0000
    111 H35        9.4965    4.3119   27.1554 H         2 RES2    0.0000
    112 H36       11.1581    4.5697   25.5942 H         2 RES2    0.0000
    113 H37       10.7050    4.2586   23.3586 H         2 RES2    0.0000
    114 H38        8.1103    7.3250   19.3779 H         2 RES2    0.0000
    115 H39        6.1031    8.0761   18.5130 H         2 RES2    0.0000
    116 H40        4.1457    7.5212   19.5356 H         2 RES2    0.0000
    117 H41        4.1519    6.2655   21.4471 H         2 RES2    0.0000
    118 H42        6.1481    5.5486   22.3558 H         2 RES2    0.0000
    119 H43        7.1258    3.1115   19.8596 H         2 RES2    0.0000
    120 H44        6.9019    2.8129   17.5912 H         2 RES2    0.0000
    121 H45       10.1556    5.0509   16.9365 H         2 RES2    0.0000
    122 H46        7.5024    3.3689   21.9857 H         2 RES2    0.0000
    123 H47       10.6868    2.9015   21.0354 H         2 RES2    0.0000
    124 H48       10.9529    0.2957   21.5850 H         2 RES2    0.0000
    125 H49       11.9813    1.1538   20.7377 H         2 RES2    0.0000
    126 H50        9.3666    6.4619   21.1690 H         2 RES2    0.0000
    127 H51        8.6435    5.9777   22.4915 H         2 RES2    0.0000
    128 H52        8.2719    4.3782   13.1157 H         2 RES2    0.0000
    129 H53        9.3515    3.2450   13.1792 H         2 RES2    0.0000
    130 H54        9.7927    4.7381   12.9974 H         2 RES2    0.0000
@<TRIPOS>BOND
     1    1   10 2
     2    2    8 2
     3    3    8 2
     4    4   37 2
     5    5   37 1
     6    6    9 1
     7    7   10 1
     8    8   36 1
     9    9   10 1
    10   11    7 1
    11   12   11 1
    12   13   12 ar
    13   14   13 ar
    14   15   14 ar
    15   16   15 ar
    16   17   12 ar
    17   18    9 1
    18   19   18 ar
    19   20   19 ar
    20   21   20 ar
    21   22   21 ar
    22   23   18 ar
    23   24    6 1
    24   25   24 1
    25   26   25 ar
    26   27   26 ar
    27   28   27 ar
    28   29   28 ar
    29   30   25 ar
    30   31    6 1
    31   32   31 ar
    32   33   32 ar
    33   34   33 ar
    34   35   34 ar
    35   36   31 ar
    36   37   34 1
    37   38    5 1
    38   39    9 1
    39   40   13 1
    40   41   14 1
    41   42   15 1
    42   43   16 1
    43   44   17 1
    44   45   19 1
    45   46   20 1
    46   47   21 1
    47   48   22 1
    48   49   23 1
    49   50   26 1
    50   51   27 1
    51   52   28 1
    52   53   29 1
    53   54   30 1
    54   55   32 1
    55   56   33 1
    56   57   35 1
    57   58   11 1
    58   59   11 1
    59   60    7 1
    60   61   24 1
    61   62   24 1
    62   63   38 1
    63   64   38 1
    64   65   38 1
    65   66   75 2
    66   67   73 2
    67   68   73 2
    68   69  102 2
    69   70  102 1
    70   71   74 1
    71   72   75 1
    72   73  101 1
    73   74   75 1
    74   76   72 1
    75   77   76 1
    76   78   77 ar
    77   79   78 ar
    78   80   79 ar
    79   81   80 ar
    80   82   77 ar
    81   83   74 1
    82   84   83 ar
    83   85   84 ar
    84   86   85 ar
    85   87   86 ar
    86   88   83 ar
    87   89   71 1
    88   90   89 1
    89   91   90 ar
    90   92   91 ar
    91   93   92 ar
    92   94   93 ar
    93   95   90 ar
    94   96   71 1
    95   97   96 ar
    96   98   97 ar
    97   99   98 ar
    98  100   99 ar
    99  101   96 ar
   100  102   99 1
   101  103   70 1
   102  104   78 1
   103  105   79 1
   104  106   80 1
   105  107   81 1
   106  108   82 1
   107  109   84 1
   108  110   85 1
   109  111   86 1
   110  112   87 1
   111  113   88 1
   112  114   91 1
   113  115   92 1
   114  116   93 1
   115  117   94 1
   116  118   95 1
   117  119   97 1
   118  120   98 1
   119  121  100 1
   120  122   74 1
   121  123   72 1
   122  124   76 1
   123  125   76 1
   124  126   89 1
   125  127   89 1
   126  128  103 1
   127  129  103 1
   128  130  103 1
   129   16   17 ar
   130   22   23 ar
   131   29   30 ar
   132   35   36 ar
   133   81   82 ar
   134   87   88 ar
   135   94   95 ar
   136  100  101 ar
@<TRIPOS>SUBSTRUCTURE
     1 RES1 1
     2 RES2 66

@<TRIPOS>CRYSIN
  10.3335   11.9020   22.0458  84.5543  85.2849  80.4532   2 1

