# MOL2 file generated by ConQuest
# Please check atom types

@<TRIPOS>MOLECULE
TITCUU
    18    18     1
SMALL
NO_CHARGES
****
Generated from CSD

@<TRIPOS>ATOM
      1 O1         3.0851    3.5817   15.5753 O.2       1 RES1    0.0000
      2 O2         4.2748    5.9075   14.8336 O.3       1 RES1    0.0000
      3 O3         5.8338    4.4306   14.5085 O.2       1 RES1    0.0000
      4 O4         3.2738    6.8030    8.1686 O.2       1 RES1    0.0000
      5 O5         4.8081    5.3145    7.6987 O.2       1 RES1    0.0000
      6 N1         4.2584    6.0820    8.4277 N.pl3     1 RES1    0.0000
      7 C1         3.4215    3.7562   17.9070 C.3       1 RES1    0.0000
      8 C2         3.5035    4.3376   16.4846 C.2       1 RES1    0.0000
      9 C3         4.2502    5.6284   16.2662 C.2       1 RES1    0.0000
     10 C4         4.6522    6.4308   17.1425 C.2       1 RES1    0.0000
     11 C5         5.2266    7.7333   16.7894 C.3       1 RES1    0.0000
     12 C6         5.0133    5.1516   14.0259 C.2       1 RES1    0.0000
     13 C7         4.7261    5.4540   12.7102 C.ar      1 RES1    0.0000
     14 C8         5.2922    4.5586   11.6992 C.ar      1 RES1    0.0000
     15 C9         5.1199    4.7563   10.3480 C.ar      1 RES1    0.0000
     16 C10        4.4881    5.8494   10.0000 C.ar      1 RES1    0.0000
     17 C11        3.8728    6.7099   10.8153 C.ar      1 RES1    0.0000
     18 C12        4.1271    6.5471   12.2250 C.ar      1 RES1    0.0000
@<TRIPOS>BOND
     1    1    8 2
     2    2    9 1
     3    3   12 2
     4    4    6 2
     5    5    6 2
     6    6   16 1
     7    7    8 1
     8    8    9 1
     9    9   10 2
    10   10   11 1
    11   12    2 1
    12   13   12 1
    13   14   13 ar
    14   15   14 ar
    15   16   15 ar
    16   17   16 ar
    17   18   13 ar
    18   17   18 ar
@<TRIPOS>SUBSTRUCTURE
     1 RES1 1

@<TRIPOS>CRYSIN
   8.2050   11.6290   25.4000  90.0000  90.0000  90.0000  19 1

