# MOL2 file generated by ConQuest
# Please check atom types

@<TRIPOS>MOLECULE
TITXAW
    29    30     1
SMALL
NO_CHARGES
****
Generated from CSD

@<TRIPOS>ATOM
      1 N1         4.3558    3.7234    4.6876 N.ar      1 RES1    0.0000
      2 C1         3.6847    2.6841    4.1733 C.ar      1 RES1    0.0000
      3 C2         4.0410    1.3755    4.4512 C.ar      1 RES1    0.0000
      4 N2         5.0610    1.0829    5.2620 N.ar      1 RES1    0.0000
      5 C3         5.7248    2.1271    5.7579 C.ar      1 RES1    0.0000
      6 C4         5.3784    3.4358    5.4722 C.ar      1 RES1    0.0000
      7 C5         2.5185    2.9924    3.2847 C.2       1 RES1    0.0000
      8 O1         1.9002    2.1190    2.6888 O.2       1 RES1    0.0000
      9 N3         2.2468    4.3175    3.2347 N.am      1 RES1    0.0000
     10 C6         1.2401    5.0096    2.5548 C.ar      1 RES1    0.0000
     11 C7         1.2067    6.4110    2.7111 C.ar      1 RES1    0.0000
     12 C8         2.2423    7.1243    3.5403 C.3       1 RES1    0.0000
     13 C9         0.2116    7.1250    2.0620 C.ar      1 RES1    0.0000
     14 C10       -0.7344    6.5067    1.2574 C.ar      1 RES1    0.0000
     15 C11       -0.6586    5.1426    1.1280 C.ar      1 RES1    0.0000
     16 N4        -1.6366    4.4706    0.2649 N.pl3     1 RES1    0.0000
     17 O2        -2.3673    5.1716   -0.4312 O.2       1 RES1    0.0000
     18 O3        -1.6870    3.2448    0.2795 O.2       1 RES1    0.0000
     19 C12        0.2949    4.3649    1.7586 C.ar      1 RES1    0.0000
     20 H1         3.5472    0.6669    4.0547 H         1 RES1    0.0000
     21 H2         6.4657    1.9657    6.3307 H         1 RES1    0.0000
     22 H3         5.8880    4.1430    5.8487 H         1 RES1    0.0000
     23 H4         2.8039    4.7632    3.7498 H         1 RES1    0.0000
     24 H5         2.0628    8.0874    3.5296 H         1 RES1    0.0000
     25 H6         3.1331    6.9536    3.1685 H         1 RES1    0.0000
     26 H7         2.2048    6.7960    4.4628 H         1 RES1    0.0000
     27 H8         0.1766    8.0685    2.1729 H         1 RES1    0.0000
     28 H9        -1.4076    7.0076    0.8131 H         1 RES1    0.0000
     29 H10        0.3052    3.4206    1.6531 H         1 RES1    0.0000
@<TRIPOS>BOND
     1    1    2 ar
     2    2    3 ar
     3    3    4 ar
     4    4    5 ar
     5    5    6 ar
     6    6    1 ar
     7    7    2 1
     8    8    7 2
     9    9    7 1
    10   10    9 1
    11   11   10 ar
    12   12   11 1
    13   13   11 ar
    14   14   13 ar
    15   15   14 ar
    16   16   15 1
    17   17   16 2
    18   18   16 2
    19   19   10 ar
    20   20    3 1
    21   21    5 1
    22   22    6 1
    23   23    9 1
    24   24   12 1
    25   25   12 1
    26   26   12 1
    27   27   13 1
    28   28   14 1
    29   29   19 1
    30   15   19 ar
@<TRIPOS>SUBSTRUCTURE
     1 RES1 1

@<TRIPOS>CRYSIN
  10.4767   14.5930    7.7136  90.0000  93.4330  90.0000  14 1

