# MOL2 file generated by ConQuest
# Please check atom types

@<TRIPOS>MOLECULE
TITZOM
    74    79     1
SMALL
NO_CHARGES
****
Generated from CSD

@<TRIPOS>ATOM
      1 C1         1.5578    3.1753    7.6715 C.3       1 RES1    0.0000
      2 H1         1.5693    3.8000    8.4132 H         1 RES1    0.0000
      3 H2         1.8577    2.3135    8.0000 H         1 RES1    0.0000
      4 C2         0.1410    3.0483    7.1391 C.3       1 RES1    0.0000
      5 H3        -0.4399    2.7074    7.8384 H         1 RES1    0.0000
      6 H4        -0.1860    3.9218    6.8715 H         1 RES1    0.0000
      7 C3         0.1160    2.1292    5.9788 C.2       1 RES1    0.0000
      8 C4         1.1158    2.4670    4.8821 C.3       1 RES1    0.0000
      9 C5         2.4845    2.6438    5.5205 C.3       1 RES1    0.0000
     10 H5         2.7823    1.7904    5.8755 H         1 RES1    0.0000
     11 H6         3.1187    2.9191    4.8397 H         1 RES1    0.0000
     12 C6         1.0709    1.5300    3.6397 C.3       1 RES1    0.0000
     13 H7         0.3364    0.8989    3.7881 H         1 RES1    0.0000
     14 C7         0.6196    2.4818    2.5192 C.3       1 RES1    0.0000
     15 H8         1.4084    2.9191    2.1351 H         1 RES1    0.0000
     16 C8         3.8428    3.8223    7.1655 C.3       1 RES1    0.0000
     17 H9         4.1259    2.9689    7.5549 H         1 RES1    0.0000
     18 C9         3.8699    4.8842    8.2728 C.3       1 RES1    0.0000
     19 H10        3.5523    5.7196    7.9205 H         1 RES1    0.0000
     20 H11        4.7685    4.9912    8.5907 H         1 RES1    0.0000
     21 H12        3.3047    4.6058    8.9960 H         1 RES1    0.0000
     22 C10       -0.4681    4.7148    2.6146 C.ar      1 RES1    0.0000
     23 C11       -1.4512    4.7297    1.6265 C.ar      1 RES1    0.0000
     24 H13       -1.8451    3.9303    1.3642 H         1 RES1    0.0000
     25 C12       -1.8472    5.8996    1.0358 C.ar      1 RES1    0.0000
     26 H14       -2.5023    5.8806    0.3762 H         1 RES1    0.0000
     27 C13       -1.2935    7.0929    1.4040 C.ar      1 RES1    0.0000
     28 H15       -1.5745    7.8891    1.0146 H         1 RES1    0.0000
     29 C14       -0.3166    7.0865    2.3576 C.ar      1 RES1    0.0000
     30 H16        0.0846    7.8902    2.5960 H         1 RES1    0.0000
     31 C15        0.1024    5.9018    2.9854 C.ar      1 RES1    0.0000
     32 H17        0.7585    5.9240    3.6450 H         1 RES1    0.0000
     33 C16        2.2630    0.7200    3.2556 C.ar      1 RES1    0.0000
     34 C17        3.3747    1.2017    2.5907 C.ar      1 RES1    0.0000
     35 H18        3.4552    2.1155    2.4397 H         1 RES1    0.0000
     36 C18        4.3767    0.3462    2.1377 C.ar      1 RES1    0.0000
     37 H19        5.1028    0.7009    1.6768 H         1 RES1    0.0000
     38 C19        4.3182   -1.0090    2.3550 C.ar      1 RES1    0.0000
     39 C20        3.2389   -1.5014    3.0331 C.ar      1 RES1    0.0000
     40 H20        3.1720   -2.4151    3.1973 H         1 RES1    0.0000
     41 C21        2.2484   -0.6522    3.4755 C.ar      1 RES1    0.0000
     42 H21        1.5327   -1.0164    3.9444 H         1 RES1    0.0000
     43 C22        5.4027   -1.9249    1.7854 C.3       1 RES1    0.0000
     44 H22        5.5583   -1.7026    0.8662 H         1 RES1    0.0000
     45 H23        5.1164   -2.8386    1.8517 H         1 RES1    0.0000
     46 H24        6.2145   -1.8074    2.2861 H         1 RES1    0.0000
     47 C23       -0.1442    1.8105    1.4225 C.ar      1 RES1    0.0000
     48 C24        0.3531    1.7587    0.1430 C.ar      1 RES1    0.0000
     49 H25        1.1618    2.1705   -0.0583 H         1 RES1    0.0000
     50 C25       -0.3594    1.0832   -0.8636 C.ar      1 RES1    0.0000
     51 H26       -0.0240    1.0503   -1.7324 H         1 RES1    0.0000
     52 C26       -1.5181    0.4892   -0.5722 C.ar      1 RES1    0.0000
     53 H27       -1.9611    0.0169   -1.2397 H         1 RES1    0.0000
     54 C27       -2.0729    0.5474    0.6649 C.ar      1 RES1    0.0000
     55 H28       -2.9045    0.1705    0.8371 H         1 RES1    0.0000
     56 C28       -1.3447    1.2017    1.6848 C.ar      1 RES1    0.0000
     57 H29       -1.6853    1.2187    2.5483 H         1 RES1    0.0000
     58 C29        4.8426    4.2077    6.1033 C.ar      1 RES1    0.0000
     59 C30        6.0651    3.6094    6.0397 C.ar      1 RES1    0.0000
     60 H30        6.2479    2.8916    6.6013 H         1 RES1    0.0000
     61 C31        7.0472    4.0467    5.1576 C.ar      1 RES1    0.0000
     62 H31        7.8788    3.6317    5.1338 H         1 RES1    0.0000
     63 C32        6.7703    5.1013    4.3205 C.ar      1 RES1    0.0000
     64 H32        7.4254    5.4179    3.7404 H         1 RES1    0.0000
     65 C33        5.5500    5.6783    4.3364 C.ar      1 RES1    0.0000
     66 H33        5.3567    6.3697    3.7483 H         1 RES1    0.0000
     67 C34        4.5877    5.2442    5.2291 C.ar      1 RES1    0.0000
     68 H34        3.7550    5.6572    5.2397 H         1 RES1    0.0000
     69 N1         2.4793    3.6476    6.6146 N.3       1 RES1    0.0000
     70 N2        -0.5945    1.0694    5.8569 N.2       1 RES1    0.0000
     71 N3        -0.1713    3.4909    3.2742 N.3       1 RES1    0.0000
     72 O1        -1.4397    0.9212    6.9714 O.3       1 RES1    0.0000
     73 H35       -1.8033    0.1874    6.9430 H         1 RES1    0.0000
     74 O2         0.7690    3.7831    4.3579 O.3       1 RES1    0.0000
@<TRIPOS>BOND
     1    1    2 1
     2    3    1 1
     3    4    1 1
     4    5    4 1
     5    6    4 1
     6    7    4 1
     7    8    7 1
     8    9    8 1
     9   10    9 1
    10   11    9 1
    11   12    8 1
    12   13   12 1
    13   14   12 1
    14   15   14 1
    15   16   17 1
    16   18   16 1
    17   19   18 1
    18   20   18 1
    19   21   18 1
    20   22   23 ar
    21   23   24 1
    22   25   23 ar
    23   26   25 1
    24   27   25 ar
    25   28   27 1
    26   29   27 ar
    27   30   29 1
    28   31   22 ar
    29   32   31 1
    30   33   12 1
    31   34   33 ar
    32   35   34 1
    33   36   34 ar
    34   37   36 1
    35   38   36 ar
    36   39   38 ar
    37   40   39 1
    38   41   33 ar
    39   42   41 1
    40   43   38 1
    41   44   43 1
    42   45   43 1
    43   46   43 1
    44   47   14 1
    45   48   47 ar
    46   49   48 1
    47   50   48 ar
    48   51   50 1
    49   52   50 ar
    50   53   52 1
    51   54   52 ar
    52   55   54 1
    53   56   47 ar
    54   57   56 1
    55   58   16 1
    56   59   58 ar
    57   60   59 1
    58   61   59 ar
    59   62   61 1
    60   63   61 ar
    61   64   63 1
    62   65   63 ar
    63   66   65 1
    64   67   58 ar
    65   68   67 1
    66   69    1 1
    67   70    7 2
    68   71   14 1
    69   72   70 1
    70   73   72 1
    71   74    8 1
    72    9   69 1
    73   16   69 1
    74   22   71 1
    75   29   31 ar
    76   39   41 ar
    77   54   56 ar
    78   65   67 ar
    79   71   74 1
@<TRIPOS>SUBSTRUCTURE
     1 RES1 1

@<TRIPOS>CRYSIN
  10.4480   10.5880   26.4900  90.0000  90.0000  90.0000  19 1

