# MOL2 file generated by ConQuest
# Please check atom types

@<TRIPOS>MOLECULE
TIVBOQ
    65    69     1
SMALL
NO_CHARGES
****
Generated from CSD

@<TRIPOS>ATOM
      1 C1        -0.8119    0.6859   14.9899 C.ar      1 RES1    0.0000
      2 H1        -1.2194    0.4526   14.1642 H         1 RES1    0.0000
      3 C2        -1.6004    0.7503   16.1594 C.ar      1 RES1    0.0000
      4 H2        -2.5300    0.5600   16.1150 H         1 RES1    0.0000
      5 C3         0.5131    0.9531   15.0292 C.ar      1 RES1    0.0000
      6 H3         1.0230    0.9130   14.2289 H         1 RES1    0.0000
      7 C4        -1.0366    1.0805   17.3415 C.ar      1 RES1    0.0000
      8 H4        -1.5802    1.1307   18.1190 H         1 RES1    0.0000
      9 C5         1.1563    1.2948   16.2608 C.ar      1 RES1    0.0000
     10 C6         0.3532    1.3560   17.4430 C.ar      1 RES1    0.0000
     11 C7         2.5228    1.5892   16.3458 C.ar      1 RES1    0.0000
     12 C8         0.9633    1.6868   18.6556 C.ar      1 RES1    0.0000
     13 H5         0.4316    1.7221   19.4420 H         1 RES1    0.0000
     14 C9         3.1257    1.9298   17.5609 C.ar      1 RES1    0.0000
     15 C10        2.3244    1.9695   18.7494 C.ar      1 RES1    0.0000
     16 C11        4.5107    2.2552   17.6891 C.ar      1 RES1    0.0000
     17 H6         5.0673    2.2399   16.9191 H         1 RES1    0.0000
     18 C12        2.9293    2.3197   19.9887 C.ar      1 RES1    0.0000
     19 H7         2.3992    2.3484   20.7763 H         1 RES1    0.0000
     20 C13        5.0429    2.5850   18.8890 C.ar      1 RES1    0.0000
     21 H8         5.9662    2.8023   18.9473 H         1 RES1    0.0000
     22 C14        4.2433    2.6121   20.0610 C.ar      1 RES1    0.0000
     23 H9         4.6350    2.8351   20.8981 H         1 RES1    0.0000
     24 C15        3.3309    1.5847   15.0812 C.2       1 RES1    0.0000
     25 C16        4.8571    0.3880   13.7266 C.3       1 RES1    0.0000
     26 H10        5.5715    1.0723   13.7697 H         1 RES1    0.0000
     27 H11        4.3099    0.5546   12.9186 H         1 RES1    0.0000
     28 C17        5.4656   -1.0031   13.6708 C.3       1 RES1    0.0000
     29 H12        6.3041   -0.9592   13.1457 H         1 RES1    0.0000
     30 H13        5.7048   -1.2781   14.5904 H         1 RES1    0.0000
     31 C18        3.8212   -2.8567   13.9942 C.3       1 RES1    0.0000
     32 H14        4.2442   -2.8409   14.8897 H         1 RES1    0.0000
     33 H15        3.8440   -3.7915   13.6695 H         1 RES1    0.0000
     34 C19        2.3722   -2.4233   14.1312 C.3       1 RES1    0.0000
     35 H16        2.3353   -1.5279   14.5282 H         1 RES1    0.0000
     36 H17        1.8941   -3.0557   14.7071 H         1 RES1    0.0000
     37 H18        1.9513   -2.4049   13.2459 H         1 RES1    0.0000
     38 C20        4.5507   -2.1954   11.7276 C.ar      1 RES1    0.0000
     39 C21        5.2761   -1.3456   10.8562 C.ar      1 RES1    0.0000
     40 H19        5.7564   -0.6120   11.2202 H         1 RES1    0.0000
     41 C22        5.3016   -1.5567    9.5003 C.ar      1 RES1    0.0000
     42 H20        5.8210   -0.9865    8.9460 H         1 RES1    0.0000
     43 C23        4.5758   -2.5971    8.9270 C.ar      1 RES1    0.0000
     44 C24        3.7999   -3.3983    9.7603 C.ar      1 RES1    0.0000
     45 H21        3.2756   -4.0927    9.3785 H         1 RES1    0.0000
     46 C25        3.7754   -3.2098   11.1226 C.ar      1 RES1    0.0000
     47 H22        3.2306   -3.7691   11.6629 H         1 RES1    0.0000
     48 C26        5.2159   -2.4116    5.4566 C.ar      1 RES1    0.0000
     49 C27        6.3625   -2.2958    4.6791 C.ar      1 RES1    0.0000
     50 H23        7.1910   -2.0698    5.0850 H         1 RES1    0.0000
     51 C28        6.2978   -2.5103    3.3156 C.ar      1 RES1    0.0000
     52 H24        7.0790   -2.4568    2.7778 H         1 RES1    0.0000
     53 C29        5.0683   -2.8033    2.7524 C.ar      1 RES1    0.0000
     54 C30        3.9111   -2.8795    3.4944 C.ar      1 RES1    0.0000
     55 H25        3.0784   -3.0683    3.0784 H         1 RES1    0.0000
     56 C31        3.9882   -2.6753    4.8567 C.ar      1 RES1    0.0000
     57 H26        3.2018   -2.7149    5.3856 H         1 RES1    0.0000
     58 N1         4.6082   -2.0265   13.0887 N.pl3     1 RES1    0.0000
     59 N2         4.5069   -2.8535    7.5344 N.2       1 RES1    0.0000
     60 N3         5.3730   -2.2095    6.8562 N.2       1 RES1    0.0000
     61 N4         4.9891   -3.0232    1.3076 N.pl3     1 RES1    0.0000
     62 O1         4.0249    0.4492   14.9214 O.3       1 RES1    0.0000
     63 O2         3.3595    2.4921   14.2848 O.2       1 RES1    0.0000
     64 O3         5.9757   -2.7684    0.6191 O.2       1 RES1    0.0000
     65 O4         3.9360   -3.4429    0.8333 O.2       1 RES1    0.0000
@<TRIPOS>BOND
     1    1    2 1
     2    3    1 ar
     3    4    3 1
     4    5    1 ar
     5    6    5 1
     6    7    3 ar
     7    8    7 1
     8    9    5 ar
     9   10    7 ar
    10   11    9 ar
    11   12   10 ar
    12   13   12 1
    13   14   11 ar
    14   15   12 ar
    15   16   14 ar
    16   17   16 1
    17   18   15 ar
    18   19   18 1
    19   20   16 ar
    20   21   20 1
    21   22   18 ar
    22   23   22 1
    23   24   11 1
    24   25   26 1
    25   27   25 1
    26   28   25 1
    27   29   28 1
    28   30   28 1
    29   31   32 1
    30   33   31 1
    31   34   31 1
    32   35   34 1
    33   36   34 1
    34   37   34 1
    35   38   39 ar
    36   39   40 1
    37   41   39 ar
    38   42   41 1
    39   43   41 ar
    40   44   43 ar
    41   45   44 1
    42   46   38 ar
    43   47   46 1
    44   48   49 ar
    45   49   50 1
    46   51   49 ar
    47   52   51 1
    48   53   51 ar
    49   54   53 ar
    50   55   54 1
    51   56   48 ar
    52   57   56 1
    53   58   28 1
    54   59   43 1
    55   60   48 1
    56   61   53 1
    57   62   24 1
    58   63   24 2
    59   64   61 2
    60   65   61 2
    61    9   10 ar
    62   14   15 ar
    63   20   22 ar
    64   25   62 1
    65   31   58 1
    66   38   58 1
    67   44   46 ar
    68   54   56 ar
    69   59   60 2
@<TRIPOS>SUBSTRUCTURE
     1 RES1 1

@<TRIPOS>CRYSIN
   9.3161   10.6586   13.5328 101.1340 104.6670  99.7790   2 1

