# MOL2 file generated by ConQuest
# Please check atom types

@<TRIPOS>MOLECULE
TIVMUH
    66    68     2
SMALL
NO_CHARGES
****
Generated from CSD

@<TRIPOS>ATOM
      1 O1         5.5118   11.9288    4.7853 O.2       1 RES1    0.0000
      2 N1         5.7562   13.9917    5.7408 N.am      1 RES1    0.0000
      3 N2         9.1124    6.5450   13.2386 N.am      2 RES2    0.0000
      4 O2         9.9642    8.4743   12.3605 O.2       2 RES2    0.0000
      5 O3        10.3855    3.0993    8.1678 O.2       2 RES2    0.0000
      6 O4         9.4062    1.6212    9.3822 O.2       2 RES2    0.0000
      7 N3         9.0271    8.4700   14.4398 N.am      2 RES2    0.0000
      8 C1         9.4176    7.8925   13.2733 C.2       2 RES2    0.0000
      9 N4         4.9742   12.2542    6.9778 N.am      1 RES1    0.0000
     10 N5         7.4197   17.2867    1.5560 N.pl3     1 RES1    0.0000
     11 C2         5.4157   12.6529    5.7525 C.2       1 RES1    0.0000
     12 C3         9.6739    3.7405   10.2543 C.ar      2 RES2    0.0000
     13 C4         9.1005    9.8283   14.8130 C.ar      2 RES2    0.0000
     14 O5         7.4301   18.5053    1.7297 O.2       1 RES1    0.0000
     15 O6         7.7273   16.7789    0.4834 O.2       1 RES1    0.0000
     16 C5         7.0135   15.0659    2.4460 C.ar      1 RES1    0.0000
     17 H1         7.2818   14.7127    1.6281 H         1 RES1    0.0000
     18 N6         9.8312    2.7544    9.2096 N.pl3     2 RES2    0.0000
     19 C6        10.1783    5.8943   11.1297 C.ar      2 RES2    0.0000
     20 H2        10.6384    6.7003   11.0724 H         2 RES2    0.0000
     21 C7         4.5616   10.9670    7.3860 C.ar      1 RES1    0.0000
     22 C8         9.3238    5.6468   12.2069 C.ar      2 RES2    0.0000
     23 C9         6.2370   16.1390    4.8510 C.ar      1 RES1    0.0000
     24 H3         5.9888   16.4995    5.6711 H         1 RES1    0.0000
     25 C10       10.3335    4.9402   10.1578 C.ar      2 RES2    0.0000
     26 H4        10.8875    5.1071    9.4292 H         2 RES2    0.0000
     27 C11        7.0239   16.4226    2.6429 C.ar      1 RES1    0.0000
     28 C12        6.6086   14.2296    3.4527 C.ar      1 RES1    0.0000
     29 H5         6.6135   13.3082    3.3225 H         1 RES1    0.0000
     30 C13        6.6429   16.9720    3.8456 C.ar      1 RES1    0.0000
     31 H6         6.6602   17.8937    3.9722 H         1 RES1    0.0000
     32 C14        8.8363    3.4624   11.3205 C.ar      2 RES2    0.0000
     33 H7         8.3971    2.6441   11.3799 H         2 RES2    0.0000
     34 C15        8.6676    4.4190   12.2871 C.ar      2 RES2    0.0000
     35 H8         8.1067    4.2464   13.0080 H         2 RES2    0.0000
     36 C16        9.5483   10.8320   13.9690 C.ar      2 RES2    0.0000
     37 H9         9.8403   10.6197   13.1120 H         2 RES2    0.0000
     38 C17        4.6250    9.8435    6.5756 C.ar      1 RES1    0.0000
     39 H10        4.9505    9.9202    5.7073 H         1 RES1    0.0000
     40 C18        8.6672   10.1507   16.0932 C.ar      2 RES2    0.0000
     41 H11        8.3607    9.4805   16.6606 H         2 RES2    0.0000
     42 C19        6.1903   14.7586    4.6679 C.ar      1 RES1    0.0000
     43 C20        4.0748   10.8478    8.6794 C.ar      1 RES1    0.0000
     44 H12        4.0253   11.5966    9.2287 H         1 RES1    0.0000
     45 C21        8.6903   11.4529   16.5243 C.ar      2 RES2    0.0000
     46 H13        8.4088   11.6620   17.3857 H         2 RES2    0.0000
     47 C22        9.5633   12.1583   14.3976 C.ar      2 RES2    0.0000
     48 C23        4.2057    8.6002    7.0492 C.ar      1 RES1    0.0000
     49 C24        3.7251    8.5066    8.3422 C.ar      1 RES1    0.0000
     50 H14        3.4406    7.6845    8.6695 H         1 RES1    0.0000
     51 C25        3.6644    9.6199    9.1499 C.ar      1 RES1    0.0000
     52 H15        3.3440    9.5430   10.0202 H         1 RES1    0.0000
     53 C26        4.2849    7.3887    6.1536 C.3       1 RES1    0.0000
     54 H16        5.1334    6.9558    6.2756 H         1 RES1    0.0000
     55 H17        4.1940    7.6609    5.2385 H         1 RES1    0.0000
     56 H18        3.5791    6.7775    6.3781 H         1 RES1    0.0000
     57 C27        9.1303   12.4487   15.6830 C.ar      2 RES2    0.0000
     58 H19        9.1370   13.3303   15.9807 H         2 RES2    0.0000
     59 C28       10.0164   13.2382   13.4465 C.3       2 RES2    0.0000
     60 H20        9.3015   13.4538   12.8421 H         2 RES2    0.0000
     61 H21       10.7746   12.9274   12.9462 H         2 RES2    0.0000
     62 H22       10.2609   14.0214   13.9441 H         2 RES2    0.0000
     63 H23        8.6954    6.2429   13.9456 H         2 RES2    0.0000
     64 H24        4.9052   12.8673    7.5841 H         1 RES1    0.0000
     65 H25        5.5916   14.4274    6.4686 H         1 RES1    0.0000
     66 H26        8.7055    7.9694   15.0431 H         2 RES2    0.0000
@<TRIPOS>BOND
     1    1   11 2
     2    2   11 1
     3    3    8 1
     4    4    8 2
     5    5   18 2
     6    6   18 2
     7    7    8 1
     8    9   11 1
     9   10   14 2
    10   12   18 1
    11   13    7 1
    12   15   10 2
    13   16   17 1
    14   19   20 1
    15   21    9 1
    16   22    3 1
    17   23   24 1
    18   25   12 ar
    19   26   25 1
    20   27   10 1
    21   28   16 ar
    22   29   28 1
    23   30   23 ar
    24   31   30 1
    25   32   12 ar
    26   33   32 1
    27   34   22 ar
    28   35   34 1
    29   36   13 ar
    30   37   36 1
    31   38   21 ar
    32   39   38 1
    33   40   13 ar
    34   41   40 1
    35   42    2 1
    36   43   21 ar
    37   44   43 1
    38   45   40 ar
    39   46   45 1
    40   47   36 ar
    41   48   38 ar
    42   49   48 ar
    43   50   49 1
    44   51   43 ar
    45   52   51 1
    46   53   48 1
    47   54   53 1
    48   55   53 1
    49   56   53 1
    50   57   45 ar
    51   58   57 1
    52   59   47 1
    53   60   59 1
    54   61   59 1
    55   62   59 1
    56   63    3 1
    57   64    9 1
    58   65    2 1
    59   66    7 1
    60   16   27 ar
    61   19   22 ar
    62   19   25 ar
    63   23   42 ar
    64   27   30 ar
    65   28   42 ar
    66   32   34 ar
    67   47   57 ar
    68   49   51 ar
@<TRIPOS>SUBSTRUCTURE
     1 RES1 1
     2 RES2 3

@<TRIPOS>CRYSIN
   6.8807   12.7415   15.2876  84.9720  81.1590  80.6540   2 1

