# MOL2 file generated by ConQuest
# Please check atom types

@<TRIPOS>MOLECULE
TIVMER
    31    32     1
SMALL
NO_CHARGES
****
Generated from CSD

@<TRIPOS>ATOM
      1 O1         2.2912    7.5403    4.8692 O.2       1 RES1    0.0000
      2 O2         3.9838    1.2879    2.3189 O.2       1 RES1    0.0000
      3 O3         3.1154    0.0656    3.8490 O.2       1 RES1    0.0000
      4 N1         0.9659    7.8090    6.7193 N.am      1 RES1    0.0000
      5 H1         0.6316    7.4224    7.3413 H         1 RES1    0.0000
      6 N2         1.4744    5.7196    6.0055 N.am      1 RES1    0.0000
      7 H2         1.0151    5.5124    6.6979 H         1 RES1    0.0000
      8 N3         3.3383    1.1656    3.3524 N.pl3     1 RES1    0.0000
      9 N4         0.2637   14.4677    7.6081 N.1       1 RES1    0.0000
     10 C1         1.6426    7.0733    5.7811 C.2       1 RES1    0.0000
     11 C2         1.9750    4.6320    5.2933 C.ar      1 RES1    0.0000
     12 C3         2.6666    4.7404    4.0962 C.ar      1 RES1    0.0000
     13 H3         2.8351    5.5781    3.7276 H         1 RES1    0.0000
     14 C4         3.1020    3.6043    3.4568 C.ar      1 RES1    0.0000
     15 H4         3.5654    3.6708    2.6533 H         1 RES1    0.0000
     16 C5         2.8494    2.3635    4.0083 C.ar      1 RES1    0.0000
     17 C6         2.1700    2.2332    5.1997 C.ar      1 RES1    0.0000
     18 H5         2.0075    1.3925    5.5626 H         1 RES1    0.0000
     19 C7         1.7379    3.3648    5.8384 C.ar      1 RES1    0.0000
     20 H6         1.2814    3.2902    6.6451 H         1 RES1    0.0000
     21 C8         0.8459    9.2017    6.8440 C.ar      1 RES1    0.0000
     22 C9         1.3407   10.1048    5.9036 C.ar      1 RES1    0.0000
     23 H7         1.7839    9.7980    5.1458 H         1 RES1    0.0000
     24 C10        1.1655   11.4543    6.1072 C.ar      1 RES1    0.0000
     25 H8         1.4952   12.0585    5.4816 H         1 RES1    0.0000
     26 C11        0.5043   11.9272    7.2292 C.ar      1 RES1    0.0000
     27 C12        0.0122   11.0292    8.1657 C.ar      1 RES1    0.0000
     28 H9        -0.4324   11.3383    8.9215 H         1 RES1    0.0000
     29 C13        0.1862    9.6726    7.9676 C.ar      1 RES1    0.0000
     30 H10       -0.1429    9.0696    8.5952 H         1 RES1    0.0000
     31 C14        0.3529   13.3441    7.4417 C.1       1 RES1    0.0000
@<TRIPOS>BOND
     1    1   10 2
     2    2    8 2
     3    3    8 2
     4    4    5 1
     5    6    7 1
     6    8   16 1
     7    9   31 3
     8   10    4 1
     9   11    6 1
    10   12   11 ar
    11   13   12 1
    12   14   12 ar
    13   15   14 1
    14   16   14 ar
    15   17   16 ar
    16   18   17 1
    17   19   11 ar
    18   20   19 1
    19   21    4 1
    20   22   21 ar
    21   23   22 1
    22   24   22 ar
    23   25   24 1
    24   26   24 ar
    25   27   26 ar
    26   28   27 1
    27   29   21 ar
    28   30   29 1
    29   31   26 1
    30    6   10 1
    31   17   19 ar
    32   27   29 ar
@<TRIPOS>SUBSTRUCTURE
     1 RES1 1

@<TRIPOS>CRYSIN
   7.9190   13.6920   11.7770  90.0000  94.5170  90.0000 231 1

