# MOL2 file generated by ConQuest
# Please check atom types

@<TRIPOS>MOLECULE
TIVPUK
    76    78     2
SMALL
NO_CHARGES
****
Generated from CSD

@<TRIPOS>ATOM
      1 O1         5.1190    3.6472    7.9483 O.2       1 RES1    0.0000
      2 O2         6.0575    1.7397    1.5674 O.2       1 RES1    0.0000
      3 O3         8.1788    2.6150    1.6355 O.2       1 RES1    0.0000
      4 O4         1.4839    0.1301    7.8533 O.2       2 RES2    0.0000
      5 O5        -0.8638    1.3522   13.7360 O.2       2 RES2    0.0000
      6 O6         0.9342    2.4898   14.6519 O.2       2 RES2    0.0000
      7 N1         6.1587    5.6047    8.8544 N.am      1 RES1    0.0000
      8 H1         6.8375    6.2304    8.9726 H         1 RES1    0.0000
      9 N2         6.8686    4.8923    6.9852 N.am      1 RES1    0.0000
     10 H2         7.4981    5.5360    7.1641 H         1 RES1    0.0000
     11 N3         7.0706    2.4175    2.0957 N.pl3     1 RES1    0.0000
     12 N4         3.8957    5.7158   13.7357 N.3       1 RES1    0.0000
     13 N5         3.4060    1.2157    7.0644 N.am      2 RES2    0.0000
     14 H3         4.0999    1.7225    7.3573 H         2 RES2    0.0000
     15 N6         2.6809    1.9944    8.9089 N.am      2 RES2    0.0000
     16 H4         3.4464    2.5234    8.8997 H         2 RES2    0.0000
     17 N7         0.3035    1.9039   13.7119 N.pl3     2 RES2    0.0000
     18 N8         3.2576   -1.3751    2.1591 N.3       2 RES2    0.0000
     19 C1         5.9641    4.6577    7.9379 C.2       1 RES1    0.0000
     20 C2         6.8733    4.1972    5.8092 C.ar      1 RES1    0.0000
     21 C3         5.7404    3.4225    5.1675 C.ar      1 RES1    0.0000
     22 H5         4.9465    3.3485    5.6471 H         1 RES1    0.0000
     23 C4         5.7927    2.8292    3.9491 C.ar      1 RES1    0.0000
     24 H6         5.0972    2.3544    3.5536 H         1 RES1    0.0000
     25 C5         7.0118    3.0331    3.3952 C.ar      1 RES1    0.0000
     26 C6         8.1639    3.7935    4.0096 C.ar      1 RES1    0.0000
     27 H7         8.9532    3.8743    3.5251 H         1 RES1    0.0000
     28 C7         8.0940    4.3544    5.2211 C.ar      1 RES1    0.0000
     29 H8         8.8028    4.8044    5.6217 H         1 RES1    0.0000
     30 C8         5.5191    5.5357   10.0684 C.ar      1 RES1    0.0000
     31 C9         4.3477    6.0719   10.1352 C.ar      1 RES1    0.0000
     32 H9         3.9080    6.3812    9.3748 H         1 RES1    0.0000
     33 C10        3.8018    6.1604   11.3438 C.ar      1 RES1    0.0000
     34 H10        2.9687    6.5655   11.4271 H         1 RES1    0.0000
     35 C11        4.4344    5.6620   12.5185 C.ar      1 RES1    0.0000
     36 C12        5.5718    5.0927   12.4102 C.ar      1 RES1    0.0000
     37 H11        6.0065    4.7368   13.1501 H         1 RES1    0.0000
     38 C13        6.1065    5.0276   11.2048 C.ar      1 RES1    0.0000
     39 H12        6.9335    4.6120   11.1167 H         1 RES1    0.0000
     40 C14        2.9381    6.6051   13.9133 C.3       1 RES1    0.0000
     41 H13        3.3117    7.4883   13.8785 H         1 RES1    0.0000
     42 H14        2.5257    6.4649   14.7685 H         1 RES1    0.0000
     43 H15        2.2799    6.5088   13.2197 H         1 RES1    0.0000
     44 C15        4.7193    5.3868   14.9357 C.3       1 RES1    0.0000
     45 H16        5.4656    5.9887   14.9870 H         1 RES1    0.0000
     46 H17        5.0399    4.4844   14.8667 H         1 RES1    0.0000
     47 H18        4.1823    5.4753   15.7250 H         1 RES1    0.0000
     48 C16        2.4395    1.0492    7.9176 C.2       2 RES2    0.0000
     49 C17        2.0200    1.9579   10.0814 C.ar      2 RES2    0.0000
     50 C18        0.6795    1.3639   10.1457 C.ar      2 RES2    0.0000
     51 H19        0.2526    1.0207    9.3938 H         2 RES2    0.0000
     52 C19        0.1193    1.3477   11.3413 C.ar      2 RES2    0.0000
     53 H20       -0.7254    0.9833   11.4778 H         2 RES2    0.0000
     54 C20        0.8972    1.9369   12.4552 C.ar      2 RES2    0.0000
     55 C21        2.1926    2.5746   12.3877 C.ar      2 RES2    0.0000
     56 H21        2.5925    2.9631   13.1311 H         2 RES2    0.0000
     57 C22        2.7671    2.5704   11.2080 C.ar      2 RES2    0.0000
     58 H22        3.6120    2.9385   11.0819 H         2 RES2    0.0000
     59 C23        3.3055    0.4830    5.8523 C.ar      2 RES2    0.0000
     60 C24        2.1952    0.4048    4.9265 C.ar      2 RES2    0.0000
     61 H23        1.4072    0.8191    5.1941 H         2 RES2    0.0000
     62 C25        2.1718   -0.2096    3.7005 C.ar      2 RES2    0.0000
     63 H24        1.4195   -0.2378    3.1545 H         2 RES2    0.0000
     64 C26        3.3015   -0.7457    3.3828 C.ar      2 RES2    0.0000
     65 C27        4.4155   -0.6797    4.3298 C.ar      2 RES2    0.0000
     66 H25        5.2056   -1.0955    4.0698 H         2 RES2    0.0000
     67 C28        4.4192   -0.0668    5.5641 C.ar      2 RES2    0.0000
     68 H26        5.1584   -0.0545    6.1285 H         2 RES2    0.0000
     69 C29        4.4625   -1.7565    1.7454 C.3       2 RES2    0.0000
     70 H27        5.0306   -0.9869    1.6628 H         2 RES2    0.0000
     71 H28        4.3851   -2.1921    0.8931 H         2 RES2    0.0000
     72 H29        4.8415   -2.3660    2.3817 H         2 RES2    0.0000
     73 C30        2.1296   -1.3377    1.1519 C.3       2 RES2    0.0000
     74 H30        1.8828   -0.4261    0.9818 H         2 RES2    0.0000
     75 H31        1.3724   -1.8137    1.5012 H         2 RES2    0.0000
     76 H32        2.4164   -1.7501    0.3326 H         2 RES2    0.0000
@<TRIPOS>BOND
     1    1   19 2
     2    2   11 2
     3    3   11 2
     4    4   48 2
     5    5   17 2
     6    6   17 2
     7    7    8 1
     8    9   10 1
     9   11   25 1
    10   12   35 1
    11   13   14 1
    12   15   16 1
    13   17   54 1
    14   18   64 1
    15   19    7 1
    16   20    9 1
    17   21   20 ar
    18   22   21 1
    19   23   21 ar
    20   24   23 1
    21   25   23 ar
    22   26   25 ar
    23   27   26 1
    24   28   20 ar
    25   29   28 1
    26   30    7 1
    27   31   30 ar
    28   32   31 1
    29   33   31 ar
    30   34   33 1
    31   35   33 ar
    32   36   35 ar
    33   37   36 1
    34   38   30 ar
    35   39   38 1
    36   40   12 1
    37   41   40 1
    38   42   40 1
    39   43   40 1
    40   44   12 1
    41   45   44 1
    42   46   44 1
    43   47   44 1
    44   48   13 1
    45   49   15 1
    46   50   49 ar
    47   51   50 1
    48   52   50 ar
    49   53   52 1
    50   54   52 ar
    51   55   54 ar
    52   56   55 1
    53   57   49 ar
    54   58   57 1
    55   59   13 1
    56   60   59 ar
    57   61   60 1
    58   62   60 ar
    59   63   62 1
    60   64   62 ar
    61   65   64 ar
    62   66   65 1
    63   67   59 ar
    64   68   67 1
    65   69   18 1
    66   70   69 1
    67   71   69 1
    68   72   69 1
    69   73   18 1
    70   74   73 1
    71   75   73 1
    72   76   73 1
    73    9   19 1
    74   15   48 1
    75   26   28 ar
    76   36   38 ar
    77   55   57 ar
    78   65   67 ar
@<TRIPOS>SUBSTRUCTURE
     1 RES1 1
     2 RES2 4

@<TRIPOS>CRYSIN
   6.0710    7.5613   31.7150  89.9500  87.0100  85.2300   2 1

