# MOL2 file generated by ConQuest
# Please check atom types

@<TRIPOS>MOLECULE
TIVQEV
    33    34     1
SMALL
NO_CHARGES
****
Generated from CSD

@<TRIPOS>ATOM
      1 O1         2.5288   56.9541    3.9138 O.2       1 RES1    0.0000
      2 C1         2.6194   56.9256    5.1379 C.2       1 RES1    0.0000
      3 N1         3.1720   57.9401    5.8692 N.am      1 RES1    0.0000
      4 C2         1.9702   53.5037    5.5828 C.ar      1 RES1    0.0000
      5 H1         2.7888   53.3920    6.0111 H         1 RES1    0.0000
      6 N2         2.1850   55.9009    5.8739 N.am      1 RES1    0.0000
      7 C3         4.9698   60.3088    3.6789 C.ar      1 RES1    0.0000
      8 H2         5.4575   60.3224    2.8876 H         1 RES1    0.0000
      9 C4         3.7109   59.1250    5.3359 C.ar      1 RES1    0.0000
     10 C5         0.0414   52.5382    4.5318 C.ar      1 RES1    0.0000
     11 C6         1.2540   52.3997    5.1766 C.ar      1 RES1    0.0000
     12 H3         1.5919   51.5511    5.3387 H         1 RES1    0.0000
     13 C7         1.4816   54.7667    5.3580 C.ar      1 RES1    0.0000
     14 N3         5.3580   62.7162    3.8963 N.pl3     1 RES1    0.0000
     15 C8         3.5296   60.3048    6.0369 C.ar      1 RES1    0.0000
     16 H4         3.0509   60.2997    6.8346 H         1 RES1    0.0000
     17 C9         0.2876   54.9188    4.7004 C.ar      1 RES1    0.0000
     18 H5        -0.0404   55.7743    4.5272 H         1 RES1    0.0000
     19 C10        4.4507   59.1296    4.1505 C.ar      1 RES1    0.0000
     20 H6         4.5896   58.3391    3.6826 H         1 RES1    0.0000
     21 C11       -0.4305   53.8080    4.2951 C.ar      1 RES1    0.0000
     22 H7        -1.2422   53.9220    3.8566 H         1 RES1    0.0000
     23 C12        4.7649   61.4714    4.3872 C.ar      1 RES1    0.0000
     24 C13        4.0507   61.4840    5.5671 C.ar      1 RES1    0.0000
     25 H8         3.9237   62.2773    6.0350 H         1 RES1    0.0000
     26 C14       -0.7625   51.3231    4.0961 C.3       1 RES1    0.0000
     27 H9        -1.6914   51.4656    4.2914 H         1 RES1    0.0000
     28 H10       -0.4522   50.5480    4.5696 H         1 RES1    0.0000
     29 H11       -0.6512   51.1863    3.1520 H         1 RES1    0.0000
     30 O2         6.0515   62.6786    2.9033 O.2       1 RES1    0.0000
     31 O3         5.1875   63.7176    4.5456 O.2       1 RES1    0.0000
     32 H12        3.0834   57.8603    6.6780 H         1 RES1    0.0000
     33 H13        2.4036   55.9396    6.6596 H         1 RES1    0.0000
@<TRIPOS>BOND
     1    1    2 2
     2    2    3 1
     3    3    9 1
     4    4    5 1
     5    6    2 1
     6    7    8 1
     7    9   15 ar
     8   10   11 ar
     9   11    4 ar
    10   12   11 1
    11   13    4 ar
    12   14   23 1
    13   15   16 1
    14   17   13 ar
    15   18   17 1
    16   19    7 ar
    17   20   19 1
    18   21   10 ar
    19   22   21 1
    20   23    7 ar
    21   24   15 ar
    22   25   24 1
    23   26   10 1
    24   27   26 1
    25   28   26 1
    26   29   26 1
    27   30   14 2
    28   31   14 2
    29   32    3 1
    30   33    6 1
    31    6   13 1
    32    9   19 ar
    33   17   21 ar
    34   23   24 ar
@<TRIPOS>SUBSTRUCTURE
     1 RES1 1

@<TRIPOS>CRYSIN
   9.8510   56.9940    9.2110  90.0000  90.0000  90.0000  43 1

