# MOL2 file generated by ConQuest
# Please check atom types

@<TRIPOS>MOLECULE
TIVRIB
    98    96     3
SMALL
NO_CHARGES
****
Generated from CSD

@<TRIPOS>ATOM
      1 N1         2.5108   -0.0903    9.5305 N.pl3     1 RES1    0.0000
      2 O1         1.5280   -0.6257   10.0525 O.2       1 RES1    0.0000
      3 O2         3.3637   -0.7362    8.9332 O.2       1 RES1    0.0000
      4 C1         2.6507    1.3533    9.6367 C.ar      1 RES1    0.0000
      5 C2         1.6445    2.0819   10.2435 C.ar      1 RES1    0.0000
      6 H1         0.8795    1.6493   10.6030 H         1 RES1    0.0000
      7 C3         1.7787    3.4573   10.3146 C.ar      1 RES1    0.0000
      8 H2         1.0974    3.9772   10.7250 H         1 RES1    0.0000
      9 C4         2.9086    4.0878    9.7874 C.ar      1 RES1    0.0000
     10 C5         3.9137    3.3140    9.1988 C.ar      1 RES1    0.0000
     11 H3         4.6903    3.7360    8.8494 H         1 RES1    0.0000
     12 C6         3.7876    1.9444    9.1211 C.ar      1 RES1    0.0000
     13 H4         4.4683    1.4167    8.7209 H         1 RES1    0.0000
     14 C7         3.0700    5.5891    9.8424 C.3       1 RES1    0.0000
     15 H5         3.2247    5.9226    8.9128 H         1 RES1    0.0000
     16 O3         1.8592    6.1321   10.3110 O.3       1 RES1    0.0000
     17 H6         1.8309    6.9520   10.1296 H         1 RES1    0.0000
     18 C8         4.2701    5.9995   10.7079 C.3       1 RES1    0.0000
     19 H7         5.1001    5.6890   10.2679 H         1 RES1    0.0000
     20 H8         4.3060    6.9876   10.7527 H         1 RES1    0.0000
     21 C9         4.2339    5.4555   12.1014 C.2       1 RES1    0.0000
     22 H9         3.5155    5.7236   12.6624 H         1 RES1    0.0000
     23 C10        5.1321    4.6260   12.6050 C.2       1 RES1    0.0000
     24 H10        5.8534    4.3963   12.0313 H         1 RES1    0.0000
     25 C11        5.1550    3.9974   13.9807 C.3       1 RES1    0.0000
     26 C12        6.4268    4.4617   14.7229 C.3       1 RES1    0.0000
     27 H11        6.4856    3.9734   15.5824 H         1 RES1    0.0000
     28 H12        7.2165    4.2108   14.1818 H         1 RES1    0.0000
     29 C13        6.4906    5.9601   15.0110 C.3       1 RES1    0.0000
     30 H13        7.3727    6.1860   15.3726 H         1 RES1    0.0000
     31 H14        5.7988    6.1975   15.6638 H         1 RES1    0.0000
     32 H15        6.3414    6.4589   14.1802 H         1 RES1    0.0000
     33 C14        5.1510    2.4673   13.7811 C.ar      1 RES1    0.0000
     34 C15        6.1113    1.6138   14.3115 C.ar      1 RES1    0.0000
     35 H16        6.8330    1.9771   14.8130 H         1 RES1    0.0000
     36 C16        6.0375    0.2422   14.1231 C.ar      1 RES1    0.0000
     37 H17        6.7098   -0.3201   14.4909 H         1 RES1    0.0000
     38 C17        4.9935   -0.3162   13.4047 C.ar      1 RES1    0.0000
     39 H18        4.9318   -1.2581   13.2936 H         1 RES1    0.0000
     40 C18        4.0379    0.5209   12.8511 C.ar      1 RES1    0.0000
     41 H19        3.3218    0.1547   12.3469 H         1 RES1    0.0000
     42 C19        4.1253    1.8915   13.0304 C.ar      1 RES1    0.0000
     43 H20        3.4711    2.4538   12.6332 H         1 RES1    0.0000
     44 C20        3.9127    4.3723   14.8065 C.3       1 RES1    0.0000
     45 H21        3.9448    3.9119   15.6719 H         1 RES1    0.0000
     46 H22        3.1056    4.1022   14.3217 H         1 RES1    0.0000
     47 H23        3.8979    5.3411   14.9529 H         1 RES1    0.0000
     48 C21        3.0700    5.5891    9.8424 Du        3 SUP3    0.0000
     49 H24        2.2509    5.9553   10.2842 Du        3 SUP3    0.0000
     50 O4         3.2414    6.2379    8.7925 Du        3 SUP3    0.0000
     51 H25        2.8946    6.9972    8.8738 Du        3 SUP3    0.0000
     52 N2         1.8301    7.0750    6.5451 N.pl3     2 RES2    0.0000
     53 O5         2.7990    7.6825    6.1137 O.2       2 RES2    0.0000
     54 O6         0.8413    7.6373    7.0216 O.2       2 RES2    0.0000
     55 C22        1.8194    5.6122    6.4814 C.ar      2 RES2    0.0000
     56 C23        0.7564    4.9384    7.0476 C.ar      2 RES2    0.0000
     57 H26        0.0580    5.4074    7.4878 H         2 RES2    0.0000
     58 C24        0.7409    3.5563    6.9536 C.ar      2 RES2    0.0000
     59 H27        0.0216    3.0699    7.3382 H         2 RES2    0.0000
     60 C25        1.7580    2.8738    6.3081 C.ar      2 RES2    0.0000
     61 C26        2.8116    3.5880    5.7534 C.ar      2 RES2    0.0000
     62 H28        3.5111    3.1199    5.3129 H         2 RES2    0.0000
     63 C27        2.8620    4.9730    5.8313 C.ar      2 RES2    0.0000
     64 H29        3.5831    5.4622    5.4544 H         2 RES2    0.0000
     65 C28        1.7188    1.3696    6.1472 C.3       2 RES2    0.0000
     66 H30        2.6074    0.9977    6.4142 H         2 RES2    0.0000
     67 O7         0.7330    0.8543    7.0227 O.3       2 RES2    0.0000
     68 H31        0.7225    0.0163    6.9689 H         2 RES2    0.0000
     69 C29        1.4408    0.9765    4.6868 C.3       2 RES2    0.0000
     70 H32        2.2277    1.2187    4.1368 H         2 RES2    0.0000
     71 H33        1.3307   -0.0058    4.6362 H         2 RES2    0.0000
     72 C30        0.2237    1.6291    4.1013 C.2       2 RES2    0.0000
     73 H34       -0.6211    1.4456    4.4946 H         2 RES2    0.0000
     74 C31        0.2726    2.4461    3.0644 C.2       2 RES2    0.0000
     75 H35        1.1387    2.5999    2.7036 H         2 RES2    0.0000
     76 C32       -0.8584    3.1699    2.3739 C.3       2 RES2    0.0000
     77 C33       -0.7606    2.8392    0.8615 C.3       2 RES2    0.0000
     78 H36       -1.4417    3.3698    0.3774 H         2 RES2    0.0000
     79 H37        0.1288    3.1237    0.5336 H         2 RES2    0.0000
     80 C34       -0.9572    1.3629    0.5181 C.3       2 RES2    0.0000
     81 H38       -0.8498    1.2351   -0.4474 H         2 RES2    0.0000
     82 H39       -1.8575    1.0832    0.7857 H         2 RES2    0.0000
     83 H40       -0.2922    0.8247    0.9956 H         2 RES2    0.0000
     84 C35       -0.7081    4.6943    2.5455 C.ar      2 RES2    0.0000
     85 C36        0.3515    5.2690    3.2408 C.ar      2 RES2    0.0000
     86 H41        0.9935    4.7077    3.6585 H         2 RES2    0.0000
     87 C37        0.4865    6.6483    3.3350 C.ar      2 RES2    0.0000
     88 H42        1.2279    7.0174    3.8000 H         2 RES2    0.0000
     89 C38       -0.4492    7.4912    2.7576 C.ar      2 RES2    0.0000
     90 H43       -0.3598    8.4341    2.8256 H         2 RES2    0.0000
     91 C39       -1.5185    6.9299    2.0799 C.ar      2 RES2    0.0000
     92 H44       -2.1705    7.4950    1.6837 H         2 RES2    0.0000
     93 C40       -1.6473    5.5593    1.9734 C.ar      2 RES2    0.0000
     94 H45       -2.3884    5.1960    1.5031 H         2 RES2    0.0000
     95 C41       -2.2242    2.7354    2.9214 C.3       2 RES2    0.0000
     96 H46       -2.9356    3.1257    2.3718 H         2 RES2    0.0000
     97 H47       -2.3184    3.0449    3.8472 H         2 RES2    0.0000
     98 H48       -2.2908    1.7579    2.8956 H         2 RES2    0.0000
@<TRIPOS>BOND
     1    1    2 2
     2    3    1 2
     3    4    1 1
     4    5    4 ar
     5    6    5 1
     6    7    5 ar
     7    8    7 1
     8    9    7 ar
     9   10    9 ar
    10   11   10 1
    11   12    4 ar
    12   13   12 1
    13   14    9 1
    14   15   14 1
    15   16   14 1
    16   17   16 1
    17   18   14 1
    18   19   18 1
    19   20   18 1
    20   21   18 1
    21   22   21 1
    22   23   21 2
    23   24   23 1
    24   25   23 1
    25   26   25 1
    26   27   26 1
    27   28   26 1
    28   29   26 1
    29   30   29 1
    30   31   29 1
    31   32   29 1
    32   33   25 1
    33   34   33 ar
    34   35   34 1
    35   36   34 ar
    36   37   36 1
    37   38   36 ar
    38   39   38 1
    39   40   38 ar
    40   41   40 1
    41   42   33 ar
    42   43   42 1
    43   44   25 1
    44   45   44 1
    45   46   44 1
    46   47   44 1
    47   52   53 2
    48   54   52 2
    49   55   52 1
    50   56   55 ar
    51   57   56 1
    52   58   56 ar
    53   59   58 1
    54   60   58 ar
    55   61   60 ar
    56   62   61 1
    57   63   55 ar
    58   64   63 1
    59   65   60 1
    60   66   65 1
    61   67   65 1
    62   68   67 1
    63   69   65 1
    64   70   69 1
    65   71   69 1
    66   72   69 1
    67   73   72 1
    68   74   72 2
    69   75   74 1
    70   76   74 1
    71   77   76 1
    72   78   77 1
    73   79   77 1
    74   80   77 1
    75   81   80 1
    76   82   80 1
    77   83   80 1
    78   84   76 1
    79   85   84 ar
    80   86   85 1
    81   87   85 ar
    82   88   87 1
    83   89   87 ar
    84   90   89 1
    85   91   89 ar
    86   92   91 1
    87   93   84 ar
    88   94   93 1
    89   95   76 1
    90   96   95 1
    91   97   95 1
    92   98   95 1
    93   10   12 ar
    94   40   42 ar
    95   61   63 ar
    96   91   93 ar
@<TRIPOS>SUBSTRUCTURE
     1 RES1 1
     2 RES2 52
     3 SUP3 48

@<TRIPOS>CRYSIN
  10.9675    9.6115   16.2934  90.0000  93.2450  90.0000   4 1

