# MOL2 file generated by ConQuest
# Please check atom types

@<TRIPOS>MOLECULE
TIVRIA
    86    94     1
SMALL
NO_CHARGES
****
Generated from CSD

@<TRIPOS>ATOM
      1 O1         9.3109    8.6620    1.2695 O.2       1 RES1    0.0000
      2 O2         8.1238    7.7828   -0.4252 O.3       1 RES1    0.0000
      3 O3        -5.5330    2.5923   12.4979 O.2       1 RES1    0.0000
      4 O4        -6.6205    1.7742   10.8113 O.2       1 RES1    0.0000
      5 N1         2.6367    6.8307    6.1519 N.3       1 RES1    0.0000
      6 N2         0.1140    6.0506    7.4262 N.2       1 RES1    0.0000
      7 N3         0.0952    3.4562    6.1036 N.3       1 RES1    0.0000
      8 N4         2.6242    4.2377    4.8277 N.2       1 RES1    0.0000
      9 N5        -5.6714    2.3818   11.2986 N.pl3     1 RES1    0.0000
     10 C1         3.7028    7.0221    5.3074 C.2       1 RES1    0.0000
     11 C2         4.1050    8.3884    5.4430 C.2       1 RES1    0.0000
     12 H1         4.8214    8.8110    4.9835 H         1 RES1    0.0000
     13 C3         3.2742    8.9744    6.3522 C.2       1 RES1    0.0000
     14 H2         3.3181    9.8778    6.6431 H         1 RES1    0.0000
     15 C4         2.3303    8.0060    6.7930 C.2       1 RES1    0.0000
     16 C5         1.2417    8.2396    7.6433 C.2       1 RES1    0.0000
     17 C6         0.2120    7.3205    7.9207 C.2       1 RES1    0.0000
     18 C7        -0.9016    7.6185    8.8037 C.2       1 RES1    0.0000
     19 H3        -1.0548    8.4329    9.2672 H         1 RES1    0.0000
     20 C8        -1.6728    6.5166    8.8359 C.2       1 RES1    0.0000
     21 H4        -2.4836    6.4042    9.3179 H         1 RES1    0.0000
     22 C9        -1.0241    5.5322    7.9883 C.2       1 RES1    0.0000
     23 C10       -1.5172    4.2255    7.8129 C.2       1 RES1    0.0000
     24 C11       -0.9774    3.2700    6.9387 C.2       1 RES1    0.0000
     25 C12       -1.3539    1.8924    6.8416 C.2       1 RES1    0.0000
     26 H5        -2.0681    1.4737    7.3061 H         1 RES1    0.0000
     27 C13       -0.5071    1.2909    5.9648 C.2       1 RES1    0.0000
     28 H6        -0.5291    0.3773    5.7063 H         1 RES1    0.0000
     29 C14        0.4236    2.2722    5.5003 C.2       1 RES1    0.0000
     30 C15        1.5193    2.0296    4.6523 C.2       1 RES1    0.0000
     31 C16        2.5401    2.9541    4.3493 C.2       1 RES1    0.0000
     32 C17        3.6331    2.6773    3.4355 C.2       1 RES1    0.0000
     33 H7         3.7949    1.8614    2.9763 H         1 RES1    0.0000
     34 C18        4.3713    3.7944    3.3630 C.2       1 RES1    0.0000
     35 H8         5.1571    3.9224    2.8451 H         1 RES1    0.0000
     36 C19        3.7363    4.7707    4.2299 C.2       1 RES1    0.0000
     37 C20        4.2228    6.0826    4.4078 C.2       1 RES1    0.0000
     38 C21        5.3133    6.5448    3.5016 C.ar      1 RES1    0.0000
     39 C22        5.0761    6.6102    2.1248 C.ar      1 RES1    0.0000
     40 H9         4.2374    6.3302    1.7793 H         1 RES1    0.0000
     41 C23        6.0550    7.0802    1.2589 C.ar      1 RES1    0.0000
     42 H10        5.8835    7.1186    0.3246 H         1 RES1    0.0000
     43 C24        7.2893    7.4968    1.7586 C.ar      1 RES1    0.0000
     44 C25        7.5333    7.4355    3.1266 C.ar      1 RES1    0.0000
     45 H11        8.3715    7.7207    3.4712 H         1 RES1    0.0000
     46 C26        6.5553    6.9587    3.9923 C.ar      1 RES1    0.0000
     47 H12        6.7323    6.9142    4.9237 H         1 RES1    0.0000
     48 C27       -2.6329    3.7798    8.6971 C.ar      1 RES1    0.0000
     49 C28       -3.8398    3.3090    8.1840 C.ar      1 RES1    0.0000
     50 H13       -3.9769    3.3038    7.2439 H         1 RES1    0.0000
     51 C29       -4.8446    2.8484    9.0207 C.ar      1 RES1    0.0000
     52 H14       -5.6608    2.5146    8.6665 H         1 RES1    0.0000
     53 C30       -4.6248    2.8876   10.3905 C.ar      1 RES1    0.0000
     54 C31       -3.4529    3.3589   10.9400 C.ar      1 RES1    0.0000
     55 H15       -3.3336    3.3842   11.8821 H         1 RES1    0.0000
     56 C32       -2.4559    3.7939   10.0888 C.ar      1 RES1    0.0000
     57 H16       -1.6365    4.1080   10.4527 H         1 RES1    0.0000
     58 C33        1.1731    9.5859    8.2908 C.ar      1 RES1    0.0000
     59 C34        0.1564   10.4762    7.9754 C.ar      1 RES1    0.0000
     60 H17       -0.4882   10.2405    7.3176 H         1 RES1    0.0000
     61 C35        0.0723   11.7089    8.6114 C.ar      1 RES1    0.0000
     62 H18       -0.6379   12.3032    8.4041 H         1 RES1    0.0000
     63 C36        1.0269   12.0700    9.5511 C.ar      1 RES1    0.0000
     64 H19        0.9717   12.9133    9.9854 H         1 RES1    0.0000
     65 C37        2.0569   11.2019    9.8547 C.ar      1 RES1    0.0000
     66 H20        2.7170   11.4533   10.4895 H         1 RES1    0.0000
     67 C38        2.1294    9.9593    9.2311 C.ar      1 RES1    0.0000
     68 H21        2.8362    9.3627    9.4491 H         1 RES1    0.0000
     69 C39        1.5825    0.6815    4.0241 C.ar      1 RES1    0.0000
     70 C40        0.5743    0.2675    3.1512 C.ar      1 RES1    0.0000
     71 H22       -0.1584    0.8462    2.9740 H         1 RES1    0.0000
     72 C41        0.6262   -0.9744    2.5422 C.ar      1 RES1    0.0000
     73 H23       -0.0668   -1.2455    1.9520 H         1 RES1    0.0000
     74 C42        1.6932   -1.8193    2.7965 C.ar      1 RES1    0.0000
     75 H24        1.7313   -2.6725    2.3801 H         1 RES1    0.0000
     76 C43        2.7033   -1.4274    3.6551 C.ar      1 RES1    0.0000
     77 H25        3.4371   -2.0078    3.8211 H         1 RES1    0.0000
     78 C44        2.6473   -0.1874    4.2766 C.ar      1 RES1    0.0000
     79 H26        3.3360    0.0710    4.8776 H         1 RES1    0.0000
     80 C45        8.3489    8.0516    0.8765 C.2       1 RES1    0.0000
     81 C46        9.1090    8.3140   -1.3422 C.3       1 RES1    0.0000
     82 H27        9.0406    9.2911   -1.3650 H         1 RES1    0.0000
     83 H28        8.9474    7.9542   -2.2397 H         1 RES1    0.0000
     84 H29       10.0060    8.0555   -1.0427 H         1 RES1    0.0000
     85 H30        2.1702    6.0656    6.2817 H         1 RES1    0.0000
     86 H31        0.4751    4.2695    6.0562 H         1 RES1    0.0000
@<TRIPOS>BOND
     1    1   80 2
     2    2   80 1
     3    3    9 2
     4    4    9 2
     5    5   10 1
     6    6   17 1
     7    7   24 1
     8    8   31 2
     9    9   53 1
    10   10   11 2
    11   11   12 1
    12   13   11 1
    13   14   13 1
    14   15    5 1
    15   16   15 1
    16   17   16 2
    17   18   17 1
    18   19   18 1
    19   20   18 2
    20   21   20 1
    21   22    6 2
    22   23   22 1
    23   24   23 2
    24   25   24 1
    25   26   25 1
    26   27   25 2
    27   28   27 1
    28   29    7 1
    29   30   29 2
    30   31   30 1
    31   32   31 1
    32   33   32 1
    33   34   32 2
    34   35   34 1
    35   36    8 1
    36   37   10 1
    37   38   37 1
    38   39   38 ar
    39   40   39 1
    40   41   39 ar
    41   42   41 1
    42   43   41 ar
    43   44   43 ar
    44   45   44 1
    45   46   38 ar
    46   47   46 1
    47   48   23 1
    48   49   48 ar
    49   50   49 1
    50   51   49 ar
    51   52   51 1
    52   53   51 ar
    53   54   53 ar
    54   55   54 1
    55   56   48 ar
    56   57   56 1
    57   58   16 1
    58   59   58 ar
    59   60   59 1
    60   61   59 ar
    61   62   61 1
    62   63   61 ar
    63   64   63 1
    64   65   63 ar
    65   66   65 1
    66   67   58 ar
    67   68   67 1
    68   69   30 1
    69   70   69 ar
    70   71   70 1
    71   72   70 ar
    72   73   72 1
    73   74   72 ar
    74   75   74 1
    75   76   74 ar
    76   77   76 1
    77   78   69 ar
    78   79   78 1
    79   80   43 1
    80   81    2 1
    81   82   81 1
    82   83   81 1
    83   84   81 1
    84   85    5 1
    85   86    7 1
    86   13   15 2
    87   20   22 1
    88   27   29 1
    89   34   36 1
    90   36   37 2
    91   44   46 ar
    92   54   56 ar
    93   65   67 ar
    94   76   78 ar
@<TRIPOS>SUBSTRUCTURE
     1 RES1 1

@<TRIPOS>CRYSIN
   6.5450   12.5885   23.2140  96.6360  91.8080 102.7380   2 1

