# MOL2 file generated by ConQuest
# Please check atom types

@<TRIPOS>MOLECULE
TIVSIA
    68    72     2
SMALL
NO_CHARGES
****
Generated from CSD

@<TRIPOS>ATOM
      1 O1        11.2054    2.3223    9.0424 O.3       1 RES1    0.0000
      2 O2        14.3026    1.7430   13.4927 O.2       1 RES1    0.0000
      3 O3        13.0039    0.0971   13.1733 O.2       1 RES1    0.0000
      4 O4         9.8083    4.3047   13.8094 O.2       1 RES1    0.0000
      5 O5         9.7499    4.7519   11.6870 O.2       1 RES1    0.0000
      6 O6        11.7076    6.2521   14.5373 O.2       1 RES1    0.0000
      7 O7        12.9358    4.4665   14.8151 O.2       1 RES1    0.0000
      8 O8        11.5107    6.6755   11.3648 O.2       1 RES1    0.0000
      9 O9        13.5134    6.0698   11.9454 O.2       1 RES1    0.0000
     10 N1        13.2228    1.2753   13.2399 N.pl3     1 RES1    0.0000
     11 N2        10.3226    4.6258   12.7344 N.pl3     1 RES1    0.0000
     12 N3        12.1965    5.1991   14.1872 N.pl3     1 RES1    0.0000
     13 N4        12.2962    5.9701   11.9260 N.pl3     1 RES1    0.0000
     14 C1        12.5078    3.4749   12.2649 C.3       1 RES1    0.0000
     15 C2        12.0165    2.2286   13.0899 C.3       1 RES1    0.0000
     16 C3        10.8358    1.5028   12.5427 C.2       1 RES1    0.0000
     17 C4        10.5281    1.5718   11.2620 C.2       1 RES1    0.0000
     18 C5        11.3234    2.3921   10.4064 C.2       1 RES1    0.0000
     19 C6        12.2852    3.2483   10.8036 C.2       1 RES1    0.0000
     20 C7        12.8799    3.7961    9.5897 C.ar      1 RES1    0.0000
     21 C8        13.9244    4.6412    9.2591 C.ar      1 RES1    0.0000
     22 C9        14.2333    4.8541    7.9034 C.ar      1 RES1    0.0000
     23 C10       13.4781    4.2399    6.9172 C.ar      1 RES1    0.0000
     24 C11       12.4433    3.3820    7.2200 C.ar      1 RES1    0.0000
     25 C12       12.1673    3.1725    8.5646 C.ar      1 RES1    0.0000
     26 C13       11.8086    4.7638   12.7566 C.3       1 RES1    0.0000
     27 H1        13.4903    3.5788   12.4177 H         1 RES1    0.0000
     28 H2        11.7733    2.5506   14.0039 H         1 RES1    0.0000
     29 H3        10.2959    0.9822   13.1261 H         1 RES1    0.0000
     30 H4         9.7912    1.0845   10.9148 H         1 RES1    0.0000
     31 H5        14.4266    5.0731    9.9397 H         1 RES1    0.0000
     32 H6        14.9604    5.4181    7.6645 H         1 RES1    0.0000
     33 H7        13.6788    4.4162    6.0060 H         1 RES1    0.0000
     34 H8        11.9411    2.9527    6.5366 H         1 RES1    0.0000
     35 O10        3.9484    2.0965    7.2256 O.3       2 RES2    0.0000
     36 O11        0.5654    2.7840    3.8392 O.2       2 RES2    0.0000
     37 O12        1.8228    4.2527    2.9113 O.2       2 RES2    0.0000
     38 O13        5.0634    0.1746    2.3613 O.2       2 RES2    0.0000
     39 O14        5.2774   -0.2155    4.5143 O.2       2 RES2    0.0000
     40 O15        3.1628   -1.8444    1.8001 O.2       2 RES2    0.0000
     41 O16        1.8483   -0.1167    1.6362 O.2       2 RES2    0.0000
     42 O17        3.6918   -2.2413    4.9393 O.2       2 RES2    0.0000
     43 O18        1.6185   -1.7592    4.5254 O.2       2 RES2    0.0000
     44 N5         1.6076    3.1520    3.3697 N.pl3     2 RES2    0.0000
     45 N6         4.6476   -0.1389    3.4558 N.pl3     2 RES2    0.0000
     46 N7         2.6764   -0.8085    2.1946 N.pl3     2 RES2    0.0000
     47 N8         2.8163   -1.5743    4.4337 N.pl3     2 RES2    0.0000
     48 C14        2.4320    0.9098    4.1003 C.3       2 RES2    0.0000
     49 C15        2.8053    2.1681    3.2780 C.3       2 RES2    0.0000
     50 C16        4.0323    2.8896    3.6947 C.2       2 RES2    0.0000
     51 C17        4.4968    2.8215    4.9698 C.2       2 RES2    0.0000
     52 C18        3.7416    2.0011    5.8699 C.2       2 RES2    0.0000
     53 C19        2.7737    1.1381    5.5643 C.2       2 RES2    0.0000
     54 C20        2.2520    0.6381    6.7978 C.ar      2 RES2    0.0000
     55 C21        1.1880   -0.2045    7.1978 C.ar      2 RES2    0.0000
     56 C22        0.9582   -0.3714    8.5451 C.ar      2 RES2    0.0000
     57 C23        1.7364    0.2701    9.4841 C.ar      2 RES2    0.0000
     58 C24        2.7919    1.1058    9.1535 C.ar      2 RES2    0.0000
     59 C25        2.9828    1.2591    7.7840 C.ar      2 RES2    0.0000
     60 C26        3.1665   -0.3271    3.5808 C.3       2 RES2    0.0000
     61 H9         1.4475    0.7556    4.0225 H         2 RES2    0.0000
     62 H10        2.9123    1.8955    2.3224 H         2 RES2    0.0000
     63 H11        4.5041    3.4119    3.0558 H         2 RES2    0.0000
     64 H12        5.2750    3.2892    5.2476 H         2 RES2    0.0000
     65 H13        0.6457   -0.6432    6.5533 H         2 RES2    0.0000
     66 H14        0.2517   -0.9388    8.8313 H         2 RES2    0.0000
     67 H15        1.5395    0.1329   10.4036 H         2 RES2    0.0000
     68 H16        3.3355    1.5360    9.8036 H         2 RES2    0.0000
@<TRIPOS>BOND
     1    1   18 1
     2    2   10 2
     3    3   10 2
     4    4   11 2
     5    5   11 2
     6    6   12 2
     7    7   12 2
     8    8   13 2
     9    9   13 2
    10   10   15 1
    11   11   26 1
    12   12   26 1
    13   13   26 1
    14   14   15 1
    15   15   16 1
    16   16   17 2
    17   17   18 1
    18   18   19 2
    19   19   14 1
    20   20   19 1
    21   21   20 ar
    22   22   21 ar
    23   23   22 ar
    24   24   23 ar
    25   25    1 1
    26   26   14 1
    27   27   14 1
    28   28   15 1
    29   29   16 1
    30   30   17 1
    31   31   21 1
    32   32   22 1
    33   33   23 1
    34   34   24 1
    35   35   52 1
    36   36   44 2
    37   37   44 2
    38   38   45 2
    39   39   45 2
    40   40   46 2
    41   41   46 2
    42   42   47 2
    43   43   47 2
    44   44   49 1
    45   45   60 1
    46   46   60 1
    47   47   60 1
    48   48   49 1
    49   49   50 1
    50   50   51 2
    51   51   52 1
    52   52   53 2
    53   53   48 1
    54   54   53 1
    55   55   54 ar
    56   56   55 ar
    57   57   56 ar
    58   58   57 ar
    59   59   35 1
    60   60   48 1
    61   61   48 1
    62   62   49 1
    63   63   50 1
    64   64   51 1
    65   65   55 1
    66   66   56 1
    67   67   57 1
    68   68   58 1
    69   20   25 ar
    70   24   25 ar
    71   54   59 ar
    72   58   59 ar
@<TRIPOS>SUBSTRUCTURE
     1 RES1 1
     2 RES2 35

@<TRIPOS>CRYSIN
  12.1600    8.5190   27.7800  90.0000  90.0000  90.0000  29 1

