# MOL2 file generated by ConQuest
# Please check atom types

@<TRIPOS>MOLECULE
TIVSOG
    33    35     1
SMALL
NO_CHARGES
****
Generated from CSD

@<TRIPOS>ATOM
      1 O1        -0.8466    8.6417    6.9337 O.3       1 RES1    0.0000
      2 O2         0.4928    6.7350    4.9275 O.3       1 RES1    0.0000
      3 O3        -2.4582    9.6000    1.7670 O.2       1 RES1    0.0000
      4 O4        -0.5172    9.7909    0.8309 O.2       1 RES1    0.0000
      5 O5        -2.1672    9.8412    4.4542 O.2       1 RES1    0.0000
      6 O6        -2.0950   12.0032    4.2675 O.2       1 RES1    0.0000
      7 O7        -1.3788   12.5162    1.5855 O.2       1 RES1    0.0000
      8 O8         0.5547   12.6701    2.5716 O.2       1 RES1    0.0000
      9 N1        -1.2934    9.9448    1.7170 N.pl3     1 RES1    0.0000
     10 N2        -1.7693   10.8616    3.9678 N.pl3     1 RES1    0.0000
     11 N3        -0.4899   12.1036    2.3007 N.pl3     1 RES1    0.0000
     12 C1         0.5876   10.0987    3.4840 C.3       1 RES1    0.0000
     13 C2         0.8588   10.8060    4.7908 C.2       1 RES1    0.0000
     14 C3         0.7471   10.2221    5.9740 C.2       1 RES1    0.0000
     15 C4         0.4139    8.7945    6.2185 C.3       1 RES1    0.0000
     16 C5         0.4167    8.1091    4.8775 C.2       1 RES1    0.0000
     17 C6         0.5153    8.6155    3.6943 C.2       1 RES1    0.0000
     18 C7         0.7190    7.4946    2.7951 C.ar      1 RES1    0.0000
     19 C8         0.6692    6.3771    3.5918 C.ar      1 RES1    0.0000
     20 C9         0.7969    5.0826    3.1605 C.ar      1 RES1    0.0000
     21 C10        1.0794    4.9200    1.8064 C.ar      1 RES1    0.0000
     22 C11        1.1751    6.0289    0.9755 C.ar      1 RES1    0.0000
     23 C12        0.9893    7.3080    1.4567 C.ar      1 RES1    0.0000
     24 C13       -0.7096   10.7045    2.9055 C.3       1 RES1    0.0000
     25 H1         1.3394   10.2941    2.8529 H         1 RES1    0.0000
     26 H2         1.1235   11.7184    4.7645 H         1 RES1    0.0000
     27 H3         0.8935   10.7667    6.7392 H         1 RES1    0.0000
     28 H4         1.1423    8.3950    6.7760 H         1 RES1    0.0000
     29 H5         0.6974    4.3416    3.7469 H         1 RES1    0.0000
     30 H6         1.2080    4.0491    1.4514 H         1 RES1    0.0000
     31 H7         1.3741    5.9034    0.0552 H         1 RES1    0.0000
     32 H8         1.0465    8.0534    0.8730 H         1 RES1    0.0000
     33 H9        -1.4511    9.0608    6.5288 H         1 RES1    0.0000
@<TRIPOS>BOND
     1    1   15 1
     2    2   16 1
     3    3    9 2
     4    4    9 2
     5    5   10 2
     6    6   10 2
     7    7   11 2
     8    8   11 2
     9    9   24 1
    10   10   24 1
    11   11   24 1
    12   12   13 1
    13   13   14 2
    14   14   15 1
    15   15   16 1
    16   16   17 2
    17   17   12 1
    18   18   17 1
    19   19    2 1
    20   20   19 ar
    21   21   20 ar
    22   22   21 ar
    23   23   18 ar
    24   24   12 1
    25   25   12 1
    26   26   13 1
    27   27   14 1
    28   28   15 1
    29   29   20 1
    30   30   21 1
    31   31   22 1
    32   32   23 1
    33   33    1 1
    34   18   19 ar
    35   22   23 ar
@<TRIPOS>SUBSTRUCTURE
     1 RES1 1

@<TRIPOS>CRYSIN
   9.3860   10.9140   26.2940  90.0000  90.0000  90.0000  56 1

