# MOL2 file generated by ConQuest
# Please check atom types

@<TRIPOS>MOLECULE
TIVSUM
    30    32     1
SMALL
NO_CHARGES
****
Generated from CSD

@<TRIPOS>ATOM
      1 O1        -1.4965    0.1503    5.6037 O.3       1 RES1    0.0000
      2 O2        -8.4021    0.9195    5.3949 O.2       1 RES1    0.0000
      3 O3        -7.8211   -1.0919    4.8522 O.2       1 RES1    0.0000
      4 O4        -6.6279    1.2649    8.1968 O.2       1 RES1    0.0000
      5 O5        -6.3169    2.3802    6.4124 O.2       1 RES1    0.0000
      6 O6        -7.6065   -1.3331    7.6231 O.2       1 RES1    0.0000
      7 O7        -5.4897   -1.6012    7.6355 O.2       1 RES1    0.0000
      8 N1        -7.6605   -0.0296    5.4197 N.pl3     1 RES1    0.0000
      9 N2        -6.4391    1.3607    7.0448 N.pl3     1 RES1    0.0000
     10 N3        -6.4975   -1.0815    7.2520 N.pl3     1 RES1    0.0000
     11 C1        -4.1319    0.0503    3.1637 C.ar      1 RES1    0.0000
     12 C2        -5.2458    0.0227    3.9600 C.ar      1 RES1    0.0000
     13 C3        -5.1482    0.0393    5.3578 C.ar      1 RES1    0.0000
     14 C4        -3.9008    0.1158    5.9871 C.ar      1 RES1    0.0000
     15 C5        -2.8016    0.1165    5.1614 C.ar      1 RES1    0.0000
     16 C6        -2.8812    0.1006    3.7760 C.ar      1 RES1    0.0000
     17 C7        -1.5133    0.1186    3.3090 C.ar      1 RES1    0.0000
     18 C8        -0.9038    0.1165    2.0627 C.ar      1 RES1    0.0000
     19 C9         0.4812    0.1296    2.0071 C.ar      1 RES1    0.0000
     20 C10        1.2349    0.1530    3.1683 C.ar      1 RES1    0.0000
     21 C11        0.6557    0.1668    4.4161 C.ar      1 RES1    0.0000
     22 C12       -0.7245    0.1482    4.4502 C.ar      1 RES1    0.0000
     23 C13       -6.3683    0.0572    6.2098 C.3       1 RES1    0.0000
     24 H1        -3.8190    0.1641    6.9118 H         1 RES1    0.0000
     25 H2         2.1633    0.1599    3.1034 H         1 RES1    0.0000
     26 H3        -6.0871   -0.0083    3.5641 H         1 RES1    0.0000
     27 H4         1.1651    0.1875    5.1939 H         1 RES1    0.0000
     28 H5        -4.2078    0.0358    2.2359 H         1 RES1    0.0000
     29 H6         0.9079    0.1227    1.1813 H         1 RES1    0.0000
     30 H7        -1.4115    0.1068    1.2834 H         1 RES1    0.0000
@<TRIPOS>BOND
     1    1   15 1
     2    2    8 2
     3    3    8 2
     4    4    9 2
     5    5    9 2
     6    6   10 2
     7    7   10 2
     8    8   23 1
     9    9   23 1
    10   10   23 1
    11   11   12 ar
    12   12   13 ar
    13   13   14 ar
    14   14   15 ar
    15   15   16 ar
    16   16   11 ar
    17   17   16 1
    18   18   17 ar
    19   19   18 ar
    20   20   19 ar
    21   21   20 ar
    22   22    1 1
    23   23   13 1
    24   24   14 1
    25   25   20 1
    26   26   12 1
    27   27   21 1
    28   28   11 1
    29   29   19 1
    30   30   18 1
    31   17   22 ar
    32   21   22 ar
@<TRIPOS>SUBSTRUCTURE
     1 RES1 1

@<TRIPOS>CRYSIN
  12.2960    6.8930   16.3370  90.0000 108.8300  90.0000  14 1

