# MOL2 file generated by ConQuest
# Please check atom types

@<TRIPOS>MOLECULE
TIVTUP
    98   102     2
SMALL
NO_CHARGES
****
Generated from CSD

@<TRIPOS>ATOM
      1 O1         3.3896    2.0011    2.8124 O.3       1 RES1    0.0000
      2 N1         3.4121    1.9480    1.3502 N.3       1 RES1    0.0000
      3 C1         3.0434    0.7886    4.8741 C.3       1 RES1    0.0000
      4 H1         3.2680   -0.1469    5.0609 H         1 RES1    0.0000
      5 C2         3.0474    3.3345    0.8958 C.3       1 RES1    0.0000
      6 C3         2.6328    0.9219    3.3712 C.3       1 RES1    0.0000
      7 H2         2.7986    0.0875    2.8856 H         1 RES1    0.0000
      8 C4         4.8123    1.5240   -0.5896 C.3       1 RES1    0.0000
      9 H3         5.6818    1.2219   -0.8970 H         1 RES1    0.0000
     10 H4         4.1432    0.9323   -0.9670 H         1 RES1    0.0000
     11 N2         4.2310    1.6521    5.1989 N.pl3     1 RES1    0.0000
     12 C5         3.2157    3.3709   -0.6186 C.3       1 RES1    0.0000
     13 H5         2.5386    2.8043   -1.0215 H         1 RES1    0.0000
     14 H6         3.0619    4.2772   -0.9281 H         1 RES1    0.0000
     15 C6         0.4791   -0.0802    4.0627 C.3       1 RES1    0.0000
     16 H7         0.8228   -0.8709    3.6172 H         1 RES1    0.0000
     17 H8        -0.4847   -0.0510    3.9557 H         1 RES1    0.0000
     18 C7         5.9757    2.1042    1.5800 C.3       1 RES1    0.0000
     19 H9         6.0997    2.9720    1.1889 H         1 RES1    0.0000
     20 H10        6.7583    1.5688    1.4262 H         1 RES1    0.0000
     21 H11        5.8332    2.1969    2.5256 H         1 RES1    0.0000
     22 C8         4.7607    1.4250    0.9441 C.3       1 RES1    0.0000
     23 C9         1.1344    1.1917    3.5063 C.3       1 RES1    0.0000
     24 H12        0.7109    1.5469    2.6968 H         1 RES1    0.0000
     25 C10        4.8259   -0.0552    1.3251 C.3       1 RES1    0.0000
     26 H13        4.8702   -0.1375    2.2804 H         1 RES1    0.0000
     27 H14        5.6077   -0.4521    0.9340 H         1 RES1    0.0000
     28 H15        4.0426   -0.5042    1.0021 H         1 RES1    0.0000
     29 C11        1.0845    2.1188    4.6971 C.3       1 RES1    0.0000
     30 H16        0.1779    2.3188    4.9792 H         1 RES1    0.0000
     31 H17        1.5805    2.9397    4.5550 H         1 RES1    0.0000
     32 C12        0.8679   -0.0708    5.5454 C.3       1 RES1    0.0000
     33 H18        1.3357   -0.8844    5.7906 H         1 RES1    0.0000
     34 H19        0.0878    0.0323    6.1116 H         1 RES1    0.0000
     35 C13        1.7938    1.1563    5.6388 C.3       1 RES1    0.0000
     36 H20        1.9452    1.4959    6.5455 H         1 RES1    0.0000
     37 O2         4.0442    2.7615    5.6390 O.2       1 RES1    0.0000
     38 C14        3.8211    4.4710    1.5644 C.3       1 RES1    0.0000
     39 H21        3.8389    4.3324    2.5139 H         1 RES1    0.0000
     40 H22        3.3920    5.3075    1.3698 H         1 RES1    0.0000
     41 H23        4.7205    4.4876    1.2258 H         1 RES1    0.0000
     42 O3         5.3227    1.1792    5.0025 O.2       1 RES1    0.0000
     43 C15        4.5731    2.9188   -1.0974 C.3       1 RES1    0.0000
     44 H24        5.2599    3.5157   -0.7627 H         1 RES1    0.0000
     45 H25        4.6037    2.9293   -2.0664 H         1 RES1    0.0000
     46 C16        1.5523    3.5272    1.1791 C.3       1 RES1    0.0000
     47 H26        1.0628    2.7730    0.8445 H         1 RES1    0.0000
     48 H27        1.2447    4.3272    0.7472 H         1 RES1    0.0000
     49 H28        1.4130    3.6032    2.1267 H         1 RES1    0.0000
     50 O4         4.1955    7.2096    6.9189 O.3       2 RES2    0.0000
     51 N3         4.1714    7.1502    8.3784 N.3       2 RES2    0.0000
     52 C17        4.5385    8.5367    8.8332 C.3       2 RES2    0.0000
     53 C18        2.7721    6.7325   10.3086 C.3       2 RES2    0.0000
     54 H29        1.9025    6.4294   10.6122 H         2 RES2    0.0000
     55 H30        3.4411    6.1398   10.6861 H         2 RES2    0.0000
     56 C19        2.8268    6.6335    8.7832 C.3       2 RES2    0.0000
     57 C20        4.9556    6.1346    6.3601 C.3       2 RES2    0.0000
     58 H31        4.7889    5.3002    6.8452 H         2 RES2    0.0000
     59 N4         3.3606    6.8638    4.5328 N.pl3     2 RES2    0.0000
     60 C21        4.5385    6.0002    4.8582 C.3       2 RES2    0.0000
     61 H32        4.3099    5.0658    4.6737 H         2 RES2    0.0000
     62 C22        4.3662    8.5805   10.3546 C.3       2 RES2    0.0000
     63 H33        5.0425    8.0159   10.7620 H         2 RES2    0.0000
     64 H34        4.5168    9.4878   10.6608 H         2 RES2    0.0000
     65 O5         3.5402    7.9711    4.0808 O.2       2 RES2    0.0000
     66 O6         2.2576    6.3887    4.7282 O.2       2 RES2    0.0000
     67 C23        2.7527    5.1533    8.4115 C.3       2 RES2    0.0000
     68 H35        2.6344    5.0668    7.4639 H         2 RES2    0.0000
     69 H36        2.0112    4.7460    8.8649 H         2 RES2    0.0000
     70 H37        3.5667    4.7168    8.6742 H         2 RES2    0.0000
     71 C24        1.6183    7.3159    8.1469 C.3       2 RES2    0.0000
     72 H38        1.5209    8.1982    8.5108 H         2 RES2    0.0000
     73 H39        0.8277    6.8044    8.3317 H         2 RES2    0.0000
     74 H40        1.7471    7.3732    7.1974 H         2 RES2    0.0000
     75 C25        5.7953    6.3637    4.0861 C.3       2 RES2    0.0000
     76 H41        5.6448    6.7065    3.1813 H         2 RES2    0.0000
     77 C26        6.7132    5.1450    4.1756 C.3       2 RES2    0.0000
     78 H42        7.4933    5.2502    3.6094 H         2 RES2    0.0000
     79 H43        6.2446    4.3335    3.9246 H         2 RES2    0.0000
     80 C27        6.4918    7.3294    5.0395 C.3       2 RES2    0.0000
     81 H44        7.3967    7.5429    4.7613 H         2 RES2    0.0000
     82 H45        5.9845    8.1430    5.1855 H         2 RES2    0.0000
     83 C28        6.4491    6.3929    6.2225 C.3       2 RES2    0.0000
     84 H46        6.8734    6.7460    7.0320 H         2 RES2    0.0000
     85 C29        7.1045    5.1272    5.6719 C.3       2 RES2    0.0000
     86 H47        6.7607    4.3345    6.1136 H         2 RES2    0.0000
     87 H48        8.0682    5.1575    5.7809 H         2 RES2    0.0000
     88 C30        3.7736    9.6795    8.1625 C.3       2 RES2    0.0000
     89 H49        3.7825    9.5545    7.2110 H         2 RES2    0.0000
     90 H50        4.1923   10.5149    8.3804 H         2 RES2    0.0000
     91 H51        2.8663    9.6847    8.4777 H         2 RES2    0.0000
     92 C31        6.0288    8.7399    8.5458 C.3       2 RES2    0.0000
     93 H52        6.5296    8.0117    8.9213 H         2 RES2    0.0000
     94 H53        6.3211    9.5659    8.9388 H         2 RES2    0.0000
     95 H54        6.1705    8.7711    7.5962 H         2 RES2    0.0000
     96 C32        3.0096    8.1284   10.8243 C.3       2 RES2    0.0000
     97 H55        2.3244    8.7274   10.4896 H         2 RES2    0.0000
     98 H56        2.9742    8.1346   11.7933 H         2 RES2    0.0000
@<TRIPOS>BOND
     1    1    2 1
     2    2    5 1
     3    3    4 1
     4    5   12 1
     5    6    1 1
     6    7    6 1
     7    8    9 1
     8   10    8 1
     9   11    3 1
    10   12   13 1
    11   14   12 1
    12   15   16 1
    13   17   15 1
    14   18   19 1
    15   20   18 1
    16   21   18 1
    17   22    2 1
    18   23    6 1
    19   24   23 1
    20   25   22 1
    21   26   25 1
    22   27   25 1
    23   28   25 1
    24   29   23 1
    25   30   29 1
    26   31   29 1
    27   32   15 1
    28   33   32 1
    29   34   32 1
    30   35    3 1
    31   36   35 1
    32   37   11 2
    33   38    5 1
    34   39   38 1
    35   40   38 1
    36   41   38 1
    37   42   11 2
    38   43    8 1
    39   44   43 1
    40   45   43 1
    41   46    5 1
    42   47   46 1
    43   48   46 1
    44   49   46 1
    45   50   51 1
    46   51   52 1
    47   52   62 1
    48   53   54 1
    49   55   53 1
    50   56   51 1
    51   57   50 1
    52   58   57 1
    53   59   60 1
    54   60   57 1
    55   61   60 1
    56   62   63 1
    57   64   62 1
    58   65   59 2
    59   66   59 2
    60   67   56 1
    61   68   67 1
    62   69   67 1
    63   70   67 1
    64   71   56 1
    65   72   71 1
    66   73   71 1
    67   74   71 1
    68   75   60 1
    69   76   75 1
    70   77   75 1
    71   78   77 1
    72   79   77 1
    73   80   75 1
    74   81   80 1
    75   82   80 1
    76   83   57 1
    77   84   83 1
    78   85   77 1
    79   86   85 1
    80   87   85 1
    81   88   52 1
    82   89   88 1
    83   90   88 1
    84   91   88 1
    85   92   52 1
    86   93   92 1
    87   94   92 1
    88   95   92 1
    89   96   53 1
    90   97   96 1
    91   98   96 1
    92    3    6 1
    93    8   22 1
    94   12   43 1
    95   15   23 1
    96   18   22 1
    97   29   35 1
    98   32   35 1
    99   53   56 1
   100   62   96 1
   101   80   83 1
   102   83   85 1
@<TRIPOS>SUBSTRUCTURE
     1 RES1 1
     2 RES2 50

