# MOL2 file generated by ConQuest
# Please check atom types

@<TRIPOS>MOLECULE
TIWDEI
    58    59     1
SMALL
NO_CHARGES
****
Generated from CSD

@<TRIPOS>ATOM
      1 C1        10.6913    0.0749   15.4244 C.3       1 RES1    0.0000
      2 C2        10.5658   -0.3506   14.0591 C.3       1 RES1    0.0000
      3 O1         9.6676    0.6539   13.3857 O.3       1 RES1    0.0000
      4 C3         9.7209    0.7686   12.1010 C.2       1 RES1    0.0000
      5 O2        10.5050    0.1303   11.4612 O.2       1 RES1    0.0000
      6 C4         8.7406    1.6045   11.5015 C.3       1 RES1    0.0000
      7 C5         8.6678    3.1530    9.7618 C.3       1 RES1    0.0000
      8 C6         7.2980    3.2537    9.1270 C.3       1 RES1    0.0000
      9 C7         7.2830    2.5083    7.8037 C.3       1 RES1    0.0000
     10 N1         8.3110    3.0339    6.9154 N.am      1 RES1    0.0000
     11 C8         9.6387    2.8998    7.4695 C.3       1 RES1    0.0000
     12 C9         9.7232    3.6663    8.7895 C.3       1 RES1    0.0000
     13 C10        7.9769    3.6636    5.7634 C.2       1 RES1    0.0000
     14 O3         6.7858    3.8257    5.4695 O.2       1 RES1    0.0000
     15 C11        9.0926    4.1515    4.8817 C.3       1 RES1    0.0000
     16 C12        9.6265    5.4953    5.3889 C.3       1 RES1    0.0000
     17 N2         8.6266    4.3891    3.5131 N.am      1 RES1    0.0000
     18 C13        8.4860    3.3474    2.6516 C.2       1 RES1    0.0000
     19 O4         8.7432    2.1996    2.9925 O.2       1 RES1    0.0000
     20 C14        8.0382    3.6706    1.2628 C.ar      1 RES1    0.0000
     21 C15        7.3311    4.8420    0.9421 C.ar      1 RES1    0.0000
     22 C16        6.8889    5.0165   -0.3661 C.ar      1 RES1    0.0000
     23 C17        7.1527    4.0858   -1.3485 C.ar      1 RES1    0.0000
     24 C18        7.9134    2.9725   -1.0361 C.ar      1 RES1    0.0000
     25 C19        8.3418    2.7657    0.2704 C.ar      1 RES1    0.0000
     26 C20        6.5682    4.2436   -2.7339 C.2       1 RES1    0.0000
     27 N3         6.2508    5.4393   -3.1856 N.3       1 RES1    0.0000
     28 N4         6.3386    3.1136   -3.3200 N.2       1 RES1    0.0000
     29 O5         5.7506    3.4120   -4.6013 O.3       1 RES1    0.0000
     30 O6         8.9922    1.8846   10.1497 O.3       1 RES1    0.0000
     31 H1        11.2695   -0.5504   15.9097 H         1 RES1    0.0000
     32 H2         9.8060    0.0937   15.8442 H         1 RES1    0.0000
     33 H3        11.0853    0.9716   15.4529 H         1 RES1    0.0000
     34 H4        10.1683   -1.2560   14.0121 H         1 RES1    0.0000
     35 H5        11.4534   -0.3716   13.6191 H         1 RES1    0.0000
     36 H6         7.8567    1.1645   11.5788 H         1 RES1    0.0000
     37 H7         8.6970    2.4566   12.0020 H         1 RES1    0.0000
     38 H8         8.6786    3.7395   10.5712 H         1 RES1    0.0000
     39 H9         7.0772    4.2054    8.9742 H         1 RES1    0.0000
     40 H10        6.6245    2.8686    9.7349 H         1 RES1    0.0000
     41 H11        7.4424    1.5442    7.9616 H         1 RES1    0.0000
     42 H12        6.3938    2.6079    7.3788 H         1 RES1    0.0000
     43 H13       10.3055    3.2580    6.8331 H         1 RES1    0.0000
     44 H14        9.8413    1.9433    7.6257 H         1 RES1    0.0000
     45 H15       10.6227    3.5510    9.1858 H         1 RES1    0.0000
     46 H16        9.5798    4.6320    8.6232 H         1 RES1    0.0000
     47 H17        9.8330    3.4788    4.8733 H         1 RES1    0.0000
     48 H18       10.3524    5.8023    4.8045 H         1 RES1    0.0000
     49 H19        9.9653    5.3925    6.3024 H         1 RES1    0.0000
     50 H20        8.9032    6.1589    5.3822 H         1 RES1    0.0000
     51 H21        8.4377    5.2072    3.2494 H         1 RES1    0.0000
     52 H22        7.1598    5.5007    1.6037 H         1 RES1    0.0000
     53 H23        6.3925    5.7953   -0.5878 H         1 RES1    0.0000
     54 H24        8.1428    2.3494   -1.7162 H         1 RES1    0.0000
     55 H25        8.8508    1.9917    0.4820 H         1 RES1    0.0000
     56 H26        5.8470    5.5180   -3.9631 H         1 RES1    0.0000
     57 H27        6.4429    6.1578   -2.7137 H         1 RES1    0.0000
     58 H28        5.1926    2.8169   -4.7994 H         1 RES1    0.0000
@<TRIPOS>BOND
     1    1    2 1
     2    2    3 1
     3    3    4 1
     4    4    5 2
     5    6    4 1
     6    7    8 1
     7    8    9 1
     8    9   10 1
     9   10   11 1
    10   11   12 1
    11   12    7 1
    12   13   10 1
    13   14   13 2
    14   15   13 1
    15   16   15 1
    16   17   15 1
    17   18   17 1
    18   19   18 2
    19   20   18 1
    20   21   20 ar
    21   22   21 ar
    22   23   22 ar
    23   24   23 ar
    24   25   20 ar
    25   26   23 1
    26   27   26 1
    27   28   26 2
    28   29   28 1
    29   30    6 1
    30   31    1 1
    31   32    1 1
    32   33    1 1
    33   34    2 1
    34   35    2 1
    35   36    6 1
    36   37    6 1
    37   38    7 1
    38   39    8 1
    39   40    8 1
    40   41    9 1
    41   42    9 1
    42   43   11 1
    43   44   11 1
    44   45   12 1
    45   46   12 1
    46   47   15 1
    47   48   16 1
    48   49   16 1
    49   50   16 1
    50   51   17 1
    51   52   21 1
    52   53   22 1
    53   54   24 1
    54   55   25 1
    55   56   27 1
    56   57   27 1
    57   58   29 1
    58    7   30 1
    59   24   25 ar
@<TRIPOS>SUBSTRUCTURE
     1 RES1 1

@<TRIPOS>CRYSIN
  11.3900    5.3860   16.7930  90.0000  90.0400  90.0000   4 1

