# MOL2 file generated by ConQuest
# Please check atom types

@<TRIPOS>MOLECULE
TIWWUS
   105   111     2
SMALL
NO_CHARGES
****
Generated from CSD

@<TRIPOS>ATOM
      1 O1        15.3763   -4.6393   19.8682 O.3       1 RES1    0.0000
      2 O2        16.6426   -2.8860   19.2295 O.3       1 RES1    0.0000
      3 O3        14.9919   -3.3742   16.6656 O.3       1 RES1    0.0000
      4 O4        15.4837   -2.6009   14.5411 O.3       1 RES1    0.0000
      5 O5        14.3309   -0.7019   14.9076 O.3       1 RES1    0.0000
      6 O6        12.7909   -1.9008   17.9299 O.3       1 RES1    0.0000
      7 O7         9.9969   -1.0735   17.0439 O.3       1 RES1    0.0000
      8 O8        11.3617    2.9051   13.4902 O.2       1 RES1    0.0000
      9 O9        -0.2125    1.8247   10.8111 O.3       1 RES1    0.0000
     10 O10       -0.3133   -0.0314    9.6129 O.2       1 RES1    0.0000
     11 N1         9.2249   -0.3396   16.1145 N.2       1 RES1    0.0000
     12 C1        16.7052   -4.2509   19.6547 C.3       1 RES1    0.0000
     13 C2        17.2925   -5.0665   18.5570 C.3       1 RES1    0.0000
     14 H1        17.3241   -5.9879   18.8249 H         1 RES1    0.0000
     15 H2        18.1815   -4.7571   18.3678 H         1 RES1    0.0000
     16 H3        16.7491   -4.9806   17.7684 H         1 RES1    0.0000
     17 C3        17.5207   -4.3107   20.9041 C.3       1 RES1    0.0000
     18 H4        17.0790   -3.8149   21.5971 H         1 RES1    0.0000
     19 H5        18.3858   -3.9304   20.7411 H         1 RES1    0.0000
     20 H6        17.6186   -5.2256   21.1794 H         1 RES1    0.0000
     21 C4        14.4906   -3.7243   19.4786 C.3       1 RES1    0.0000
     22 H7        13.5628   -3.7899   19.5217 H         1 RES1    0.0000
     23 C5        15.3011   -2.5510   18.9504 C.3       1 RES1    0.0000
     24 H8        15.0712   -1.7620   19.4842 H         1 RES1    0.0000
     25 C6        15.1092   -2.1968   17.4875 C.3       1 RES1    0.0000
     26 H9        15.8948   -1.6929   17.1897 H         1 RES1    0.0000
     27 C7        13.8775   -1.3910   17.1522 C.3       1 RES1    0.0000
     28 H10       14.0175   -0.4337   17.3095 H         1 RES1    0.0000
     29 C8        13.6679   -1.6941   15.6724 C.3       1 RES1    0.0000
     30 H11       12.7206   -1.7817   15.4383 H         1 RES1    0.0000
     31 C9        14.4534   -2.9754   15.4289 C.3       1 RES1    0.0000
     32 H12       13.8845   -3.6749   15.0431 H         1 RES1    0.0000
     33 C10       15.2521   -1.3167   14.0203 C.3       1 RES1    0.0000
     34 C11       14.6531   -1.4398   12.6398 C.3       1 RES1    0.0000
     35 H13       15.2977   -1.8276   12.0442 H         1 RES1    0.0000
     36 H14       14.4048   -0.5695   12.3195 H         1 RES1    0.0000
     37 H15       13.8754   -2.0012   12.6792 H         1 RES1    0.0000
     38 C12       16.5113   -0.5184   14.0372 C.3       1 RES1    0.0000
     39 H16       16.8764   -0.5161   14.9250 H         1 RES1    0.0000
     40 H17       16.3230    0.3826   13.7675 H         1 RES1    0.0000
     41 H18       17.1456   -0.9086   13.4322 H         1 RES1    0.0000
     42 C13       11.9294   -0.9086   18.4521 C.3       1 RES1    0.0000
     43 H19       12.4668   -0.2102   18.8567 H         1 RES1    0.0000
     44 H20       11.3852   -1.3045   19.1508 H         1 RES1    0.0000
     45 C14       11.0299   -0.2926   17.4388 C.2       1 RES1    0.0000
     46 C15       10.9558    0.8877   16.8188 C.2       1 RES1    0.0000
     47 H21       11.5385    1.6070   16.9087 H         1 RES1    0.0000
     48 C16        9.8067    0.8192   16.0002 C.2       1 RES1    0.0000
     49 C17        9.2182    1.8758   15.1311 C.3       1 RES1    0.0000
     50 H22        9.6659    2.7234   15.3334 H         1 RES1    0.0000
     51 C18        7.6944    2.0801   15.3072 C.3       1 RES1    0.0000
     52 H23        7.3396    1.4706   15.9721 H         1 RES1    0.0000
     53 H24        7.4971    2.9905   15.5769 H         1 RES1    0.0000
     54 C19        7.0999    1.7806   13.9197 C.3       1 RES1    0.0000
     55 H25        7.0629    0.8035   13.8499 H         1 RES1    0.0000
     56 C20        8.1933    2.2276   12.9489 C.3       1 RES1    0.0000
     57 C21        8.3756    3.7620   12.9246 C.3       1 RES1    0.0000
     58 H26        9.0036    3.9989   12.2371 H         1 RES1    0.0000
     59 H27        8.7067    4.0581   13.7749 H         1 RES1    0.0000
     60 H28        7.5312    4.1818   12.7466 H         1 RES1    0.0000
     61 C22        9.4178    1.5669   13.6214 C.3       1 RES1    0.0000
     62 H29        9.3211    0.5986   13.5090 H         1 RES1    0.0000
     63 C23       10.7720    1.9437   13.0688 C.2       1 RES1    0.0000
     64 C24       11.3427    1.1065   11.9824 C.3       1 RES1    0.0000
     65 H30       12.1516    1.5089   11.6602 H         1 RES1    0.0000
     66 H31       10.7079    1.0398   11.2650 H         1 RES1    0.0000
     67 H32       11.5330    0.2293   12.3233 H         1 RES1    0.0000
     68 C25        7.8188    1.7411   11.5516 C.3       1 RES1    0.0000
     69 H33        8.4826    2.0500   10.9147 H         1 RES1    0.0000
     70 H34        7.8194    0.7710   11.5366 H         1 RES1    0.0000
     71 C26        6.4463    2.2508   11.1376 C.3       1 RES1    0.0000
     72 H35        6.2132    1.8607   10.2797 H         1 RES1    0.0000
     73 H36        6.4918    3.2128   11.0196 H         1 RES1    0.0000
     74 C27        5.3313    1.9263   12.1510 C.3       1 RES1    0.0000
     75 H37        5.2221    0.9527   12.1247 H         1 RES1    0.0000
     76 C28        5.7035    2.2682   13.6082 C.3       1 RES1    0.0000
     77 H38        5.6799    3.2418   13.7188 H         1 RES1    0.0000
     78 C29        4.6665    1.6453   14.5448 C.3       1 RES1    0.0000
     79 H39        4.8878    0.7106   14.6797 H         1 RES1    0.0000
     80 H40        4.7149    2.0877   15.4064 H         1 RES1    0.0000
     81 C30        3.2797    1.7394   14.0334 C.2       1 RES1    0.0000
     82 H41        2.5974    1.4862   14.6104 H         1 RES1    0.0000
     83 C31        2.9314    2.1516   12.8328 C.2       1 RES1    0.0000
     84 C32        3.9519    2.5167   11.7595 C.3       1 RES1    0.0000
     85 C33        3.9916    4.0575   11.6564 C.3       1 RES1    0.0000
     86 H42        3.1256    4.3832   11.3998 H         1 RES1    0.0000
     87 H43        4.6409    4.3182   10.9990 H         1 RES1    0.0000
     88 H44        4.2321    4.4291   12.5087 H         1 RES1    0.0000
     89 C34        3.5221    1.9240   10.3977 C.3       1 RES1    0.0000
     90 H45        4.0604    2.3304    9.7009 H         1 RES1    0.0000
     91 H46        3.7161    0.9736   10.4015 H         1 RES1    0.0000
     92 C35        2.0517    2.1167   10.0493 C.3       1 RES1    0.0000
     93 H47        1.8694    3.0613    9.9257 H         1 RES1    0.0000
     94 H48        1.8535    1.6592    9.2176 H         1 RES1    0.0000
     95 C36        1.1727    1.5756   11.1413 C.3       1 RES1    0.0000
     96 H49        1.3195    0.6119   11.2406 H         1 RES1    0.0000
     97 C37        1.4724    2.2700   12.4413 C.3       1 RES1    0.0000
     98 H50        0.9224    1.8857   13.1418 H         1 RES1    0.0000
     99 H51        1.2406    3.2082   12.3607 H         1 RES1    0.0000
    100 C38       -0.8291    0.9881   10.0137 C.2       1 RES1    0.0000
    101 C39       -2.2175    1.4380    9.6859 C.3       1 RES1    0.0000
    102 H52       -2.2097    2.3762    9.4817 H         1 RES1    0.0000
    103 H53       -2.7923    1.2784   10.4370 H         1 RES1    0.0000
    104 H54       -2.5418    0.9486    8.9254 H         1 RES1    0.0000
    105 H55        2.9260    3.0793   13.1475 Du        2 SUP2    0.0000
@<TRIPOS>BOND
     1    1   12 1
     2    2   12 1
     3    3   25 1
     4    4   31 1
     5    5   29 1
     6    6   27 1
     7    7   11 1
     8    8   63 2
     9    9   95 1
    10   10  100 2
    11   11   48 2
    12   12   13 1
    13   13   14 1
    14   15   13 1
    15   16   13 1
    16   17   12 1
    17   18   17 1
    18   19   17 1
    19   20   17 1
    20   21    1 1
    21   22   21 1
    22   23    2 1
    23   24   23 1
    24   25   23 1
    25   26   25 1
    26   27   25 1
    27   28   27 1
    28   29   27 1
    29   30   29 1
    30   31    3 1
    31   32   31 1
    32   33    4 1
    33   34   33 1
    34   35   34 1
    35   36   34 1
    36   37   34 1
    37   38   33 1
    38   39   38 1
    39   40   38 1
    40   41   38 1
    41   42    6 1
    42   43   42 1
    43   44   42 1
    44   45    7 1
    45   46   45 2
    46   47   46 1
    47   48   46 1
    48   49   48 1
    49   50   49 1
    50   51   49 1
    51   52   51 1
    52   53   51 1
    53   54   51 1
    54   55   54 1
    55   56   54 1
    56   57   56 1
    57   58   57 1
    58   59   57 1
    59   60   57 1
    60   61   49 1
    61   62   61 1
    62   63   61 1
    63   64   63 1
    64   65   64 1
    65   66   64 1
    66   67   64 1
    67   68   56 1
    68   69   68 1
    69   70   68 1
    70   71   68 1
    71   72   71 1
    72   73   71 1
    73   74   71 1
    74   75   74 1
    75   76   54 1
    76   77   76 1
    77   78   76 1
    78   79   78 1
    79   80   78 1
    80   81   78 1
    81   82   81 1
    82   83   81 2
    83   84   74 1
    84   85   84 1
    85   86   85 1
    86   87   85 1
    87   88   85 1
    88   89   84 1
    89   90   89 1
    90   91   89 1
    91   92   89 1
    92   93   92 1
    93   94   92 1
    94   95   92 1
    95   96   95 1
    96   97   83 1
    97   98   97 1
    98   99   97 1
    99  100    9 1
   100  101  100 1
   101  102  101 1
   102  103  101 1
   103  104  101 1
   104    5   33 1
   105   21   23 1
   106   29   31 1
   107   42   45 1
   108   56   61 1
   109   74   76 1
   110   83   84 1
   111   95   97 1
@<TRIPOS>SUBSTRUCTURE
     1 RES1 1
     2 SUP2 105

@<TRIPOS>CRYSIN
  17.2913    5.8056   20.0737  90.0000 111.0730  90.0000   4 1

