# MOL2 file generated by ConQuest
# Please check atom types

@<TRIPOS>MOLECULE
TIWXON
   160   172     1
SMALL
NO_CHARGES
****
Generated from CSD

@<TRIPOS>ATOM
      1 O1         8.4206    8.1020    0.5816 O.3       1 RES1    0.0000
      2 O2         5.9488    6.3752   -0.4761 O.2       1 RES1    0.0000
      3 O3         2.1817   12.0845    4.3440 O.3       1 RES1    0.0000
      4 O4         6.8943    6.6656    4.4127 O.3       1 RES1    0.0000
      5 N1         5.5386    6.7029    3.9991 N.3       1 RES1    0.0000
      6 C1         7.2515    4.0776    0.5951 C.3       1 RES1    0.0000
      7 H1         6.5059    3.5796    0.9645 H         1 RES1    0.0000
      8 H2         7.0993    4.1756   -0.3583 H         1 RES1    0.0000
      9 C2         7.2917    5.4548    1.2320 C.2       1 RES1    0.0000
     10 C3         7.8064    5.6670    2.4468 C.2       1 RES1    0.0000
     11 H3         8.2634    4.9576    2.8358 H         1 RES1    0.0000
     12 C4         7.7215    6.9321    3.2445 C.3       1 RES1    0.0000
     13 C5         6.9041    7.9939    2.5033 C.3       1 RES1    0.0000
     14 H4         7.1431    8.8847    2.8334 H         1 RES1    0.0000
     15 C6         7.0128    7.9640    0.9731 C.3       1 RES1    0.0000
     16 C7         6.6627    6.5636    0.4847 C.2       1 RES1    0.0000
     17 C8         8.5308    9.1872   -0.2417 C.ar      1 RES1    0.0000
     18 C9         8.5143    3.2971    0.8111 C.ar      1 RES1    0.0000
     19 C10        8.5835    2.1634    1.6063 C.ar      1 RES1    0.0000
     20 H5         7.8024    1.8687    2.0161 H         1 RES1    0.0000
     21 C11        9.7575    1.4358    1.8296 C.ar      1 RES1    0.0000
     22 C12       10.9247    1.9160    1.2418 C.ar      1 RES1    0.0000
     23 H6        11.7266    1.4659    1.3756 H         1 RES1    0.0000
     24 C13        7.3459    9.8400   -0.4626 C.ar      1 RES1    0.0000
     25 C14        6.2518    9.1026    0.2724 C.3       1 RES1    0.0000
     26 H7         5.5893    8.7534   -0.3448 H         1 RES1    0.0000
     27 H8         5.8124    9.6790    0.9166 H         1 RES1    0.0000
     28 C15        5.4175    7.6617    2.8984 C.3       1 RES1    0.0000
     29 H9         4.9832    7.2183    2.1401 H         1 RES1    0.0000
     30 C16        4.5916    8.8656    3.2936 C.ar      1 RES1    0.0000
     31 C17        3.5488    9.3035    2.4923 C.ar      1 RES1    0.0000
     32 H10        3.3627    8.8586    1.6971 H         1 RES1    0.0000
     33 C18        2.7823   10.3963    2.8579 C.ar      1 RES1    0.0000
     34 H11        2.1039   10.6960    2.2947 H         1 RES1    0.0000
     35 C19        3.0191   11.0462    4.0568 C.ar      1 RES1    0.0000
     36 C20        4.0344   10.6058    4.8728 C.ar      1 RES1    0.0000
     37 H12        4.1931   11.0289    5.6852 H         1 RES1    0.0000
     38 C21        4.8179    9.5381    4.4912 C.ar      1 RES1    0.0000
     39 H13        5.5135    9.2634    5.0434 H         1 RES1    0.0000
     40 C22        2.3252   12.6858    5.6238 C.3       1 RES1    0.0000
     41 H14        2.2533   12.0120    6.3036 H         1 RES1    0.0000
     42 H15        1.6353   13.3416    5.7490 H         1 RES1    0.0000
     43 H16        3.1842   13.1098    5.6840 H         1 RES1    0.0000
     44 C23        4.9728    5.4249    3.8703 C.ar      1 RES1    0.0000
     45 C24        5.5820    4.2977    4.4151 C.ar      1 RES1    0.0000
     46 H17        6.4122    4.3713    4.8287 H         1 RES1    0.0000
     47 C25        4.9538    3.0786    4.3415 C.ar      1 RES1    0.0000
     48 H18        5.3817    2.3264    4.6839 H         1 RES1    0.0000
     49 C26        3.0788    4.0666    3.2764 C.ar      1 RES1    0.0000
     50 H19        2.2272    3.9926    2.9107 H         1 RES1    0.0000
     51 C27        3.6970    2.9392    3.7697 C.ar      1 RES1    0.0000
     52 H20        3.2846    2.1077    3.7194 H         1 RES1    0.0000
     53 C28        3.6894    5.2997    3.3132 C.ar      1 RES1    0.0000
     54 H21        3.2543    6.0474    2.9696 H         1 RES1    0.0000
     55 C29        9.0844    7.3519    3.9194 C.3       1 RES1    0.0000
     56 C30        8.8696    8.5962    4.8017 C.3       1 RES1    0.0000
     57 H22        9.7077    8.8650    5.1845 H         1 RES1    0.0000
     58 H23        8.2494    8.3880    5.5036 H         1 RES1    0.0000
     59 H24        8.5193    9.3113    4.2654 H         1 RES1    0.0000
     60 C31        9.5739    6.2187    4.8250 C.3       1 RES1    0.0000
     61 H25        9.8157    5.4617    4.2875 H         1 RES1    0.0000
     62 H26        8.8724    5.9695    5.4324 H         1 RES1    0.0000
     63 H27       10.3382    6.5158    5.3244 H         1 RES1    0.0000
     64 C32       10.1491    7.6759    2.8935 C.3       1 RES1    0.0000
     65 H28       10.9697    7.8940    3.3414 H         1 RES1    0.0000
     66 H29        9.8652    8.4239    2.3634 H         1 RES1    0.0000
     67 H30       10.2876    6.9148    2.3241 H         1 RES1    0.0000
     68 C33        9.7694    0.1917    2.7377 C.3       1 RES1    0.0000
     69 C34       10.8083   -0.8147    2.2456 C.3       1 RES1    0.0000
     70 H31       10.6282   -1.0376    1.3290 H         1 RES1    0.0000
     71 H32       11.6847   -0.4306    2.3155 H         1 RES1    0.0000
     72 H33       10.7626   -1.6091    2.7831 H         1 RES1    0.0000
     73 C35       10.1417    0.6466    4.1378 C.3       1 RES1    0.0000
     74 H34       10.1632   -0.1122    4.7256 H         1 RES1    0.0000
     75 H35       11.0074    1.0624    4.1194 H         1 RES1    0.0000
     76 H36        9.4914    1.2781    4.4532 H         1 RES1    0.0000
     77 C36        8.4359   -0.5131    2.7389 C.3       1 RES1    0.0000
     78 H37        7.7671    0.0678    3.1119 H         1 RES1    0.0000
     79 H38        8.1938   -0.7418    1.8382 H         1 RES1    0.0000
     80 H39        8.4962   -1.3115    3.2666 H         1 RES1    0.0000
     81 O1A        9.8254    4.7949   -0.5816 O.3       1 RES1    0.0000
     82 O2A       12.2972    6.5216    0.4761 O.2       1 RES1    0.0000
     83 O3A       16.0643    0.8124   -4.3440 O.3       1 RES1    0.0000
     84 O4A       11.3517    6.2313   -4.4127 O.3       1 RES1    0.0000
     85 N1A       12.7074    6.1939   -3.9991 N.3       1 RES1    0.0000
     86 C1A       10.9945    8.8193   -0.5951 C.3       1 RES1    0.0000
     87 H1A       11.7401    9.3172   -0.9645 H         1 RES1    0.0000
     88 H2A       11.1466    8.7213    0.3583 H         1 RES1    0.0000
     89 C2A       10.9543    7.4421   -1.2320 C.2       1 RES1    0.0000
     90 C3A       10.4396    7.2299   -2.4468 C.2       1 RES1    0.0000
     91 H3A        9.9826    7.9393   -2.8358 H         1 RES1    0.0000
     92 C4A       10.5245    5.9648   -3.2445 C.3       1 RES1    0.0000
     93 C5A       11.3419    4.9030   -2.5033 C.3       1 RES1    0.0000
     94 H4A       11.1028    4.0122   -2.8334 H         1 RES1    0.0000
     95 C6A       11.2332    4.9329   -0.9731 C.3       1 RES1    0.0000
     96 C7A       11.5833    6.3333   -0.4847 C.2       1 RES1    0.0000
     97 C8A        9.7152    3.7097    0.2417 C.ar      1 RES1    0.0000
     98 C9A        9.7317    9.5998   -0.8111 C.ar      1 RES1    0.0000
     99 C10A       9.6625   10.7335   -1.6063 C.ar      1 RES1    0.0000
    100 H5A       10.4436   11.0281   -2.0161 H         1 RES1    0.0000
    101 C11A       8.4885   11.4611   -1.8296 C.ar      1 RES1    0.0000
    102 C12A       7.3212   10.9809   -1.2418 C.ar      1 RES1    0.0000
    103 H6A        6.5193   11.4310   -1.3756 H         1 RES1    0.0000
    104 C13A      10.9001    3.0568    0.4626 C.ar      1 RES1    0.0000
    105 C14A      11.9942    3.7942   -0.2724 C.3       1 RES1    0.0000
    106 H7A       12.6567    4.1435    0.3448 H         1 RES1    0.0000
    107 H8A       12.4335    3.2179   -0.9166 H         1 RES1    0.0000
    108 C15A      12.8285    5.2352   -2.8984 C.3       1 RES1    0.0000
    109 H9A       13.2628    5.6786   -2.1401 H         1 RES1    0.0000
    110 C16A      13.6544    4.0313   -3.2936 C.ar      1 RES1    0.0000
    111 C17A      14.6972    3.5934   -2.4923 C.ar      1 RES1    0.0000
    112 H10A      14.8833    4.0383   -1.6971 H         1 RES1    0.0000
    113 C18A      15.4637    2.5006   -2.8579 C.ar      1 RES1    0.0000
    114 H11A      16.1421    2.2008   -2.2947 H         1 RES1    0.0000
    115 C19A      15.2269    1.8506   -4.0568 C.ar      1 RES1    0.0000
    116 C20A      14.2116    2.2910   -4.8728 C.ar      1 RES1    0.0000
    117 H12A      14.0529    1.8680   -5.6852 H         1 RES1    0.0000
    118 C21A      13.4281    3.3588   -4.4912 C.ar      1 RES1    0.0000
    119 H13A      12.7325    3.6334   -5.0434 H         1 RES1    0.0000
    120 C22A      15.9208    0.2110   -5.6238 C.3       1 RES1    0.0000
    121 H14A      15.9927    0.8849   -6.3036 H         1 RES1    0.0000
    122 H15A      16.6107   -0.4447   -5.7490 H         1 RES1    0.0000
    123 H16A      15.0618   -0.2129   -5.6840 H         1 RES1    0.0000
    124 C23A      13.2732    7.4720   -3.8703 C.ar      1 RES1    0.0000
    125 C24A      12.6640    8.5992   -4.4151 C.ar      1 RES1    0.0000
    126 H17A      11.8337    8.5256   -4.8287 H         1 RES1    0.0000
    127 C25A      13.2922    9.8183   -4.3415 C.ar      1 RES1    0.0000
    128 H18A      12.8643   10.5704   -4.6839 H         1 RES1    0.0000
    129 C26A      15.1672    8.8303   -3.2764 C.ar      1 RES1    0.0000
    130 H19A      16.0188    8.9043   -2.9107 H         1 RES1    0.0000
    131 C27A      14.5490    9.9577   -3.7697 C.ar      1 RES1    0.0000
    132 H20A      14.9613   10.7891   -3.7194 H         1 RES1    0.0000
    133 C28A      14.5565    7.5972   -3.3132 C.ar      1 RES1    0.0000
    134 H21A      14.9917    6.8495   -2.9696 H         1 RES1    0.0000
    135 C29A       9.1615    5.5450   -3.9194 C.3       1 RES1    0.0000
    136 C30A       9.3764    4.3007   -4.8017 C.3       1 RES1    0.0000
    137 H22A       8.5382    4.0319   -5.1845 H         1 RES1    0.0000
    138 H23A       9.9966    4.5089   -5.5036 H         1 RES1    0.0000
    139 H24A       9.7267    3.5856   -4.2654 H         1 RES1    0.0000
    140 C31A       8.6720    6.6781   -4.8250 C.3       1 RES1    0.0000
    141 H25A       8.4303    7.4352   -4.2875 H         1 RES1    0.0000
    142 H26A       9.3736    6.9274   -5.4324 H         1 RES1    0.0000
    143 H27A       7.9078    6.3811   -5.3244 H         1 RES1    0.0000
    144 C32A       8.0969    5.2210   -2.8935 C.3       1 RES1    0.0000
    145 H28A       7.2763    5.0028   -3.3414 H         1 RES1    0.0000
    146 H29A       8.3808    4.4729   -2.3634 H         1 RES1    0.0000
    147 H30A       7.9584    5.9821   -2.3241 H         1 RES1    0.0000
    148 C33A       8.4766   12.7052   -2.7377 C.3       1 RES1    0.0000
    149 C34A       7.4377   13.7115   -2.2456 C.3       1 RES1    0.0000
    150 H31A       7.6178   13.9345   -1.3290 H         1 RES1    0.0000
    151 H32A       6.5613   13.3275   -2.3155 H         1 RES1    0.0000
    152 H33A       7.4834   14.5060   -2.7831 H         1 RES1    0.0000
    153 C35A       8.1043   12.2503   -4.1378 C.3       1 RES1    0.0000
    154 H34A       8.0828   13.0090   -4.7256 H         1 RES1    0.0000
    155 H35A       7.2386   11.8345   -4.1194 H         1 RES1    0.0000
    156 H36A       8.7546   11.6188   -4.4532 H         1 RES1    0.0000
    157 C36A       9.8101   13.4100   -2.7389 C.3       1 RES1    0.0000
    158 H37A      10.4789   12.8291   -3.1119 H         1 RES1    0.0000
    159 H38A      10.0521   13.6387   -1.8382 H         1 RES1    0.0000
    160 H39A       9.7498   14.2083   -3.2666 H         1 RES1    0.0000
@<TRIPOS>BOND
     1    1   15 1
     2    2   16 2
     3    3   35 1
     4    4    5 1
     5    5   28 1
     6    6    7 1
     7    8    6 1
     8    9    6 1
     9   10    9 2
    10   11   10 1
    11   12    4 1
    12   13   12 1
    13   14   13 1
    14   15   13 1
    15   16    9 1
    16   17    1 1
    17   18    6 1
    18   19   18 ar
    19   20   19 1
    20   21   19 ar
    21   22   21 ar
    22   23   22 1
    23   24   17 ar
    24   25   15 1
    25   26   25 1
    26   27   25 1
    27   28   13 1
    28   29   28 1
    29   30   28 1
    30   31   30 ar
    31   32   31 1
    32   33   31 ar
    33   34   33 1
    34   35   33 ar
    35   36   35 ar
    36   37   36 1
    37   38   30 ar
    38   39   38 1
    39   40    3 1
    40   41   40 1
    41   42   40 1
    42   43   40 1
    43   44    5 1
    44   45   44 ar
    45   46   45 1
    46   47   45 ar
    47   48   47 1
    48   49   50 1
    49   51   47 ar
    50   52   51 1
    51   53   44 ar
    52   54   53 1
    53   55   12 1
    54   56   55 1
    55   57   56 1
    56   58   56 1
    57   59   56 1
    58   60   55 1
    59   61   60 1
    60   62   60 1
    61   63   60 1
    62   64   55 1
    63   65   64 1
    64   66   64 1
    65   67   64 1
    66   68   21 1
    67   69   68 1
    68   70   69 1
    69   71   69 1
    70   72   69 1
    71   73   68 1
    72   74   73 1
    73   75   73 1
    74   76   73 1
    75   77   68 1
    76   78   77 1
    77   79   77 1
    78   80   77 1
    79   81   95 1
    80   82   96 2
    81   83  115 1
    82   84   85 1
    83   85  108 1
    84   86   87 1
    85   88   86 1
    86   89   86 1
    87   90   89 2
    88   91   90 1
    89   92   84 1
    90   93   92 1
    91   94   93 1
    92   95   93 1
    93   96   89 1
    94   97   18 ar
    95   98   17 ar
    96   99   98 ar
    97  100   99 1
    98  101   99 ar
    99  102   24 ar
   100  103  102 1
   101  104   22 ar
   102  105   95 1
   103  106  105 1
   104  107  105 1
   105  108   93 1
   106  109  108 1
   107  110  108 1
   108  111  110 ar
   109  112  111 1
   110  113  111 ar
   111  114  113 1
   112  115  113 ar
   113  116  115 ar
   114  117  116 1
   115  118  110 ar
   116  119  118 1
   117  120   83 1
   118  121  120 1
   119  122  120 1
   120  123  120 1
   121  124   85 1
   122  125  124 ar
   123  126  125 1
   124  127  125 ar
   125  128  127 1
   126  129  130 1
   127  131  127 ar
   128  132  131 1
   129  133  124 ar
   130  134  133 1
   131  135   92 1
   132  136  135 1
   133  137  136 1
   134  138  136 1
   135  139  136 1
   136  140  135 1
   137  141  140 1
   138  142  140 1
   139  143  140 1
   140  144  135 1
   141  145  144 1
   142  146  144 1
   143  147  144 1
   144  148  101 1
   145  149  148 1
   146  150  149 1
   147  151  149 1
   148  152  149 1
   149  153  148 1
   150  154  153 1
   151  155  153 1
   152  156  153 1
   153  157  148 1
   154  158  157 1
   155  159  157 1
   156  160  157 1
   157   10   12 1
   158   15   16 1
   159   24   25 1
   160   36   38 ar
   161   49   51 ar
   162   49   53 ar
   163   81   97 1
   164   86   98 1
   165   90   92 1
   166   95   96 1
   167   97  104 ar
   168  101  102 ar
   169  104  105 1
   170  116  118 ar
   171  129  131 ar
   172  129  133 ar
@<TRIPOS>SUBSTRUCTURE
     1 RES1 1

@<TRIPOS>CRYSIN
   9.9175   12.9944   13.8631 116.7230  93.6480  97.0240   2 1

