# MOL2 file generated by ConQuest
# Please check atom types

@<TRIPOS>MOLECULE
TIXPEV
    60    62     2
SMALL
NO_CHARGES
****
Generated from CSD

@<TRIPOS>ATOM
      1 O1         3.6719    0.7067   18.1161 O.3       1 RES1    0.0000
      2 O2         0.2652   -2.4755   22.0487 O.2       1 RES1    0.0000
      3 O3        -1.4427   -3.6518   21.6000 O.2       1 RES1    0.0000
      4 N1         2.8793   -1.2678   16.5183 N.pl3     1 RES1    0.0000
      5 N2         3.2077   -2.5965   16.3298 N.2       1 RES1    0.0000
      6 N3         2.9535    0.8306   15.3975 N.3       1 RES1    0.0000
      7 N4         2.5225    0.0257   18.4980 N.2       1 RES1    0.0000
      8 N5        -0.4927   -2.9841   21.2604 N.pl3     1 RES1    0.0000
      9 C1         3.8135   -2.6327   15.1448 C.2       1 RES1    0.0000
     10 C2         3.8675   -1.3620   14.5724 C.2       1 RES1    0.0000
     11 C3         3.2744   -0.4943   15.4600 C.2       1 RES1    0.0000
     12 C4         4.3281   -3.9280   14.6197 C.3       1 RES1    0.0000
     13 C5         2.1921   -0.9230   17.7092 C.2       1 RES1    0.0000
     14 C6         1.0565   -1.7754   18.1077 C.ar      1 RES1    0.0000
     15 C7         0.8117   -1.9783   19.4587 C.ar      1 RES1    0.0000
     16 C8        -0.2559   -2.7631   19.8303 C.ar      1 RES1    0.0000
     17 C9        -1.0935   -3.3689   18.9147 C.ar      1 RES1    0.0000
     18 C10       -0.8391   -3.1632   17.5758 C.ar      1 RES1    0.0000
     19 C11        0.2199   -2.3850   17.1747 C.ar      1 RES1    0.0000
     20 H1         3.9186    1.2573   18.9385 H         1 RES1    0.0000
     21 H2         4.2186   -1.0858   13.7185 H         1 RES1    0.0000
     22 H3         1.3662   -1.6097   20.1675 H         1 RES1    0.0000
     23 H4        -1.7571   -3.9242   19.1766 H         1 RES1    0.0000
     24 H5        -1.3439   -3.7337   16.9055 H         1 RES1    0.0000
     25 H6         0.3959   -2.3907   16.2461 H         1 RES1    0.0000
     26 H7         3.3957    1.2287   16.1911 H         1 RES1    0.0000
     27 H8         3.1843    1.2096   14.6343 H         1 RES1    0.0000
     28 H9         4.1323   -3.9528   13.7185 H         1 RES1    0.0000
     29 H10        5.2417   -3.7813   14.5610 H         1 RES1    0.0000
     30 H11        4.4370   -4.6767   15.1838 H         1 RES1    0.0000
     31 O4        -0.1355    5.6406    9.2575 O.3       2 RES2    0.0000
     32 O5         3.4861    2.1364   12.6996 O.2       2 RES2    0.0000
     33 O6         4.9767    0.7553   12.0151 O.2       2 RES2    0.0000
     34 N6         0.6310    3.8880    7.4166 N.pl3     2 RES2    0.0000
     35 N7         0.3641    2.5927    7.0320 N.2       2 RES2    0.0000
     36 N8         0.4948    6.1168    6.5799 N.3       2 RES2    0.0000
     37 N9         1.0255    4.9358    9.5319 N.2       2 RES2    0.0000
     38 N10        4.1246    1.5897   11.8100 N.pl3     2 RES2    0.0000
     39 C12       -0.2105    2.6955    5.8411 C.2       2 RES2    0.0000
     40 C13       -0.3235    4.0347    5.4530 C.2       2 RES2    0.0000
     41 C14        0.2197    4.7862    6.4629 C.2       2 RES2    0.0000
     42 C15       -0.6390    1.4573    5.1376 C.3       2 RES2    0.0000
     43 C16        1.3398    4.0880    8.6286 C.2       2 RES2    0.0000
     44 C17        2.4829    3.1899    8.8918 C.ar      2 RES2    0.0000
     45 C18        2.8003    2.8527   10.1997 C.ar      2 RES2    0.0000
     46 C19        3.8358    1.9802   10.4217 C.ar      2 RES2    0.0000
     47 C20        4.5828    1.4221    9.4088 C.ar      2 RES2    0.0000
     48 C21        4.2762    1.7764    8.1176 C.ar      2 RES2    0.0000
     49 C22        3.2391    2.6469    7.8520 C.ar      2 RES2    0.0000
     50 H12       -0.2051    6.2197   10.0187 H         2 RES2    0.0000
     51 H13       -0.7039    4.4481    4.6339 H         2 RES2    0.0000
     52 H14        2.3000    3.1908   10.9345 H         2 RES2    0.0000
     53 H15        5.2761    0.8191    9.6524 H         2 RES2    0.0000
     54 H16        4.8332    1.4001    7.3996 H         2 RES2    0.0000
     55 H17        3.0698    2.8955    6.9050 H         2 RES2    0.0000
     56 H18        0.4521    6.5054    7.4179 H         2 RES2    0.0000
     57 H19        0.2624    6.5721    5.9160 H         2 RES2    0.0000
     58 H20       -1.0063    1.6478    4.4874 H         2 RES2    0.0000
     59 H21        0.2314    1.1430    4.6705 H         2 RES2    0.0000
     60 H22       -0.5869    0.7525    5.7328 H         2 RES2    0.0000
@<TRIPOS>BOND
     1    1    7 1
     2    2    8 2
     3    3    8 2
     4    4    5 1
     5    5    9 2
     6    6   11 1
     7    7   13 2
     8    8   16 1
     9    9   10 1
    10   10   11 2
    11   11    4 1
    12   12    9 1
    13   13    4 1
    14   14   13 1
    15   15   14 ar
    16   16   15 ar
    17   17   16 ar
    18   18   17 ar
    19   19   14 ar
    20   20    1 1
    21   21   10 1
    22   22   15 1
    23   23   17 1
    24   24   18 1
    25   25   19 1
    26   26    6 1
    27   27    6 1
    28   28   12 1
    29   29   12 1
    30   30   12 1
    31   31   37 1
    32   32   38 2
    33   33   38 2
    34   34   35 1
    35   35   39 2
    36   36   41 1
    37   37   43 2
    38   38   46 1
    39   39   40 1
    40   40   41 2
    41   41   34 1
    42   42   39 1
    43   43   34 1
    44   44   43 1
    45   45   44 ar
    46   46   45 ar
    47   47   46 ar
    48   48   47 ar
    49   49   44 ar
    50   50   31 1
    51   51   40 1
    52   52   45 1
    53   53   47 1
    54   54   48 1
    55   55   49 1
    56   56   36 1
    57   57   36 1
    58   58   42 1
    59   59   42 1
    60   60   42 1
    61   18   19 ar
    62   48   49 ar
@<TRIPOS>SUBSTRUCTURE
     1 RES1 1
     2 RES2 31

@<TRIPOS>CRYSIN
  14.3880    9.5248   19.6660  90.0000 111.3550  90.0000  14 2

