# MOL2 file generated by ConQuest
# Please check atom types

@<TRIPOS>MOLECULE
TIXQUM02
    11    11     1
SMALL
NO_CHARGES
****
Generated from CSD

@<TRIPOS>ATOM
      1 O1         6.2202    0.0117    7.4179 O.2       1 RES1    0.0000
      2 O2         7.5227    1.7131    7.6451 O.2       1 RES1    0.0000
      3 N1        10.2397    1.9100    3.4771 N.pl3     1 RES1    0.0000
      4 N2         7.1338    0.7304    7.0201 N.pl3     1 RES1    0.0000
      5 C1         9.2851    1.0533    3.9792 C.ar      1 RES1    0.0000
      6 C2         8.8972   -0.1088    3.2614 C.ar      1 RES1    0.0000
      7 C3         7.9822   -0.9927    3.8381 C.ar      1 RES1    0.0000
      8 C4         7.4022   -0.7587    5.0866 C.ar      1 RES1    0.0000
      9 C5         7.7712    0.4100    5.7424 C.ar      1 RES1    0.0000
     10 C6         8.6987    1.3106    5.2294 C.ar      1 RES1    0.0000
     11 C7         9.4653   -0.3712    1.8956 C.3       1 RES1    0.0000
@<TRIPOS>BOND
     1    1    4 2
     2    2    4 2
     3    3    5 1
     4    4    9 1
     5    5    6 ar
     6    6    7 ar
     7    7    8 ar
     8    8    9 ar
     9    9   10 ar
    10   10    5 ar
    11   11    6 1
@<TRIPOS>SUBSTRUCTURE
     1 RES1 1

@<TRIPOS>CRYSIN
   9.3730    5.5620   13.6450  90.0000  92.5400  90.0000 231 1

