# MOL2 file generated by ConQuest
# Please check atom types

@<TRIPOS>MOLECULE
TIXQUM
    19    19     1
SMALL
NO_CHARGES
****
Generated from CSD

@<TRIPOS>ATOM
      1 C1         9.4040    1.0610    3.9791 C.ar      1 RES1    0.0000
      2 C2         9.0350   -0.1164    3.2910 C.ar      1 RES1    0.0000
      3 C3         8.1146   -0.9691    3.8732 C.ar      1 RES1    0.0000
      4 C4         7.5330   -0.7221    5.0960 C.ar      1 RES1    0.0000
      5 C5         7.8912    0.4434    5.7284 C.ar      1 RES1    0.0000
      6 C6         8.8122    1.3341    5.2140 C.ar      1 RES1    0.0000
      7 C7         9.6181   -0.4076    1.9339 C.3       1 RES1    0.0000
      8 N1        10.3358    1.9188    3.4579 N.3       1 RES1    0.0000
      9 N2         7.2488    0.7829    7.0041 N.pl3     1 RES1    0.0000
     10 O1         6.3943    0.0471    7.4438 O.2       1 RES1    0.0000
     11 O2         7.5929    1.7979    7.5917 O.2       1 RES1    0.0000
     12 H1         7.9400   -1.7769    3.4199 H         1 RES1    0.0000
     13 H2         6.8074   -1.3114    5.5777 H         1 RES1    0.0000
     14 H3         8.9502    2.1118    5.7135 H         1 RES1    0.0000
     15 H4        10.6903    1.7939    2.6192 H         1 RES1    0.0000
     16 H5        10.5726    2.6228    3.9085 H         1 RES1    0.0000
     17 H6         9.2820   -1.2506    1.5240 H         1 RES1    0.0000
     18 H7        10.5023   -0.4820    1.9624 H         1 RES1    0.0000
     19 H8         9.4837    0.3911    1.3164 H         1 RES1    0.0000
@<TRIPOS>BOND
     1    1    2 ar
     2    2    3 ar
     3    3    4 ar
     4    4    5 ar
     5    5    6 ar
     6    6    1 ar
     7    7    2 1
     8    8    1 1
     9    9    5 1
    10   10    9 2
    11   11    9 2
    12   12    3 1
    13   13    4 1
    14   14    6 1
    15   15    8 1
    16   16    8 1
    17   17    7 1
    18   18    7 1
    19   19    7 1
@<TRIPOS>SUBSTRUCTURE
     1 RES1 1

@<TRIPOS>CRYSIN
   9.5520    5.6770   13.5860  90.0000  92.6800  90.0000 231 1

