# MOL2 file generated by ConQuest
# Please check atom types

@<TRIPOS>MOLECULE
TIXWIH
    48    49     1
SMALL
NO_CHARGES
****
Generated from CSD

@<TRIPOS>ATOM
      1 O1         7.0337    0.6067    0.6751 O.2       1 RES1    0.0000
      2 O2         8.4741   -1.1151    0.8671 O.3       1 RES1    0.0000
      3 O3         8.8683   -2.9603    8.6989 O.2       1 RES1    0.0000
      4 O4        10.2112   -1.5124    9.5751 O.2       1 RES1    0.0000
      5 N1        10.3468   -0.9047    3.6178 N.1       1 RES1    0.0000
      6 N2         7.0614    2.3956    2.6868 N.3       1 RES1    0.0000
      7 H1         6.9373    2.2740    1.8441 H         1 RES1    0.0000
      8 N3         8.1820    1.7889    4.6130 N.pl3     1 RES1    0.0000
      9 H2         8.2192    2.6193    4.8307 H         1 RES1    0.0000
     10 N4         9.4171   -1.8674    8.7162 N.pl3     1 RES1    0.0000
     11 C1         7.1654   -2.6000   -0.5095 C.3       1 RES1    0.0000
     12 H3         7.5033   -3.3508   -0.0171 H         1 RES1    0.0000
     13 H4         6.9888   -2.8646   -1.4163 H         1 RES1    0.0000
     14 H5         6.3522   -2.2891   -0.1027 H         1 RES1    0.0000
     15 C2         8.1562   -1.5243   -0.5011 C.3       1 RES1    0.0000
     16 H6         7.8107   -0.7627   -0.9943 H         1 RES1    0.0000
     17 H7         8.9647   -1.8265   -0.9429 H         1 RES1    0.0000
     18 C3         7.8794    0.0183    1.3317 C.2       1 RES1    0.0000
     19 C4         8.3423    0.3711    2.6440 C.2       1 RES1    0.0000
     20 C5         9.4371   -0.3388    3.1870 C.1       1 RES1    0.0000
     21 C6         7.8441    1.5124    3.3224 C.2       1 RES1    0.0000
     22 C7         8.4750    0.8595    5.6235 C.ar      1 RES1    0.0000
     23 C8         7.7830   -0.3496    5.7278 C.ar      1 RES1    0.0000
     24 H8         7.1072   -0.5508    5.1216 H         1 RES1    0.0000
     25 C9         8.1018   -1.2489    6.7320 C.ar      1 RES1    0.0000
     26 H9         7.6589   -2.0653    6.7907 H         1 RES1    0.0000
     27 C10        9.0811   -0.9219    7.6430 C.ar      1 RES1    0.0000
     28 C11        9.7378    0.2861    7.5928 C.ar      1 RES1    0.0000
     29 H10       10.3773    0.5024    8.2318 H         1 RES1    0.0000
     30 C12        9.4305    1.1843    6.5681 C.ar      1 RES1    0.0000
     31 H11        9.8695    2.0030    6.5208 H         1 RES1    0.0000
     32 C13        6.3961    3.5541    3.3022 C.3       1 RES1    0.0000
     33 H12        7.0814    4.1102    3.7281 H         1 RES1    0.0000
     34 C14        5.7461    4.3684    2.1817 C.3       1 RES1    0.0000
     35 H13        6.4066    4.5879    1.5209 H         1 RES1    0.0000
     36 H14        5.3767    5.1763    2.5456 H         1 RES1    0.0000
     37 H15        5.0464    3.8521    1.7756 H         1 RES1    0.0000
     38 C15        5.3738    3.1851    4.3452 C.ar      1 RES1    0.0000
     39 C16        5.3309    3.8510    5.5598 C.ar      1 RES1    0.0000
     40 H16        5.9914    4.4749    5.7584 H         1 RES1    0.0000
     41 C17        4.3296    3.6133    6.4843 C.ar      1 RES1    0.0000
     42 H17        4.3143    4.0844    7.2850 H         1 RES1    0.0000
     43 C18        3.3637    2.6849    6.2204 C.ar      1 RES1    0.0000
     44 H18        2.6888    2.5225    6.8383 H         1 RES1    0.0000
     45 C19        3.3971    1.9857    5.0208 C.ar      1 RES1    0.0000
     46 H19        2.7423    1.3522    4.8345 H         1 RES1    0.0000
     47 C20        4.3974    2.2278    4.1071 C.ar      1 RES1    0.0000
     48 H20        4.4184    1.7405    3.3155 H         1 RES1    0.0000
@<TRIPOS>BOND
     1    1   18 2
     2    2   15 1
     3    3   10 2
     4    4   10 2
     5    5   20 3
     6    6    7 1
     7    8    9 1
     8   10   27 1
     9   11   12 1
    10   13   11 1
    11   14   11 1
    12   15   11 1
    13   16   15 1
    14   17   15 1
    15   18    2 1
    16   19   18 1
    17   20   19 1
    18   21    6 1
    19   22    8 1
    20   23   22 ar
    21   24   23 1
    22   25   23 ar
    23   26   25 1
    24   27   25 ar
    25   28   27 ar
    26   29   28 1
    27   30   22 ar
    28   31   30 1
    29   32    6 1
    30   33   32 1
    31   34   32 1
    32   35   34 1
    33   36   34 1
    34   37   34 1
    35   38   32 1
    36   39   38 ar
    37   40   39 1
    38   41   39 ar
    39   42   41 1
    40   43   41 ar
    41   44   43 1
    42   45   43 ar
    43   46   45 1
    44   47   38 ar
    45   48   47 1
    46    8   21 1
    47   19   21 2
    48   28   30 ar
    49   45   47 ar
@<TRIPOS>SUBSTRUCTURE
     1 RES1 1

@<TRIPOS>CRYSIN
   9.5450   10.7570   19.0110  90.0000  90.0000  90.0000  19 1

