# MOL2 file generated by ConQuest
# Please check atom types

@<TRIPOS>MOLECULE
TIXXAB
    28    24     2
SMALL
NO_CHARGES
****
Generated from CSD

@<TRIPOS>ATOM
      1 C1         0.7742    6.1367    3.6981 C.2       1 RES1    0.0000
      2 C2         1.2522    7.4780    3.9273 C.1       1 RES1    0.0000
      3 C3         1.8444    5.0790    3.5717 C.2       1 RES1    0.0000
      4 C4         0.6898    3.6250    5.2337 C.3       1 RES1    0.0000
      5 H1         0.0352    4.3659    5.2820 H         1 RES1    0.0000
      6 H2         1.1192    3.5333    6.1207 H         1 RES1    0.0000
      7 C5        -0.0262    2.3324    4.8750 C.3       1 RES1    0.0000
      8 H3        -0.5288    2.4575    4.0322 H         1 RES1    0.0000
      9 H4        -0.6748    2.1072    5.5883 H         1 RES1    0.0000
     10 C6         0.9691    1.1843    4.7105 C.3       1 RES1    0.0000
     11 H5         1.3875    0.9799    5.5842 H         1 RES1    0.0000
     12 H6         0.4919    0.3739    4.4001 H         1 RES1    0.0000
     13 C7         2.0458    1.5568    3.7043 C.3       1 RES1    0.0000
     14 H7         2.7256    0.8382    3.6745 H         1 RES1    0.0000
     15 H8         1.6399    1.6304    2.8049 H         1 RES1    0.0000
     16 C8         2.7213    2.8661    4.0538 C.3       1 RES1    0.0000
     17 H9         3.2343    2.7619    4.8945 H         1 RES1    0.0000
     18 H10        3.3545    3.1163    3.3353 H         1 RES1    0.0000
     19 N1         1.6421    8.5414    4.1103 N.1       1 RES1    0.0000
     20 N2         1.7108    3.9308    4.2182 N.am      1 RES1    0.0000
     21 H11       -1.9176    5.0873    2.9704 H         1 RES1    0.0000
     22 N3        -0.4912    6.1979    3.4350 N.2       1 RES1    0.0000
     23 O1        -0.9553    4.9622    3.0629 O.3       1 RES1    0.0000
     24 O2         2.7426    5.3514    2.7351 O.2       1 RES1    0.0000
     25 N4        -0.4170    5.6030    3.4885 Du        2 SUP2    0.0000
     26 O3        -1.3110    6.6343    3.3857 Du        2 SUP2    0.0000
     27 H12       -2.0874    6.3244    3.2993 Du        2 SUP2    0.0000
     28 O4         2.9045    5.4209    2.9910 Du        2 SUP2    0.0000
@<TRIPOS>BOND
     1    1    2 1
     2    2   19 3
     3    3    1 1
     4    4    5 1
     5    6    4 1
     6    7    4 1
     7    8    7 1
     8    9    7 1
     9   10    7 1
    10   11   10 1
    11   12   10 1
    12   13   10 1
    13   14   13 1
    14   15   13 1
    15   16   13 1
    16   17   16 1
    17   18   16 1
    18   20    3 1
    19   21   23 1
    20   22    1 2
    21   23   22 1
    22   24    3 2
    23    4   20 1
    24   16   20 1
@<TRIPOS>SUBSTRUCTURE
     1 RES1 1
     2 SUP2 25

@<TRIPOS>CRYSIN
   6.3640   13.8997   10.3185  90.0000  95.0590  90.0000  14 1

