# MOL2 file generated by ConQuest
# Please check atom types

@<TRIPOS>MOLECULE
TIZMOG
    98   102     2
SMALL
NO_CHARGES
****
Generated from CSD

@<TRIPOS>ATOM
      1 O1        10.7922    0.6567    7.3003 O.2       1 RES1    0.0000
      2 O2        11.8677    1.7484    5.7620 O.2       1 RES1    0.0000
      3 O3         9.7771    5.2368    3.3712 O.2       1 RES1    0.0000
      4 O4         7.8274    5.9909    3.8915 O.2       1 RES1    0.0000
      5 O5         2.3651    6.5926    6.5981 O.3       1 RES1    0.0000
      6 O6         5.6905    7.7281    5.7332 O.3       1 RES1    0.0000
      7 O7         5.6828    7.8933    8.0777 O.3       1 RES1    0.0000
      8 O8         4.7924   10.5442    7.8639 O.3       1 RES1    0.0000
      9 O9         2.1444    9.6318    6.8996 O.3       1 RES1    0.0000
     10 N1        10.8579    1.5168    6.4164 N.pl3     1 RES1    0.0000
     11 N2         8.7465    5.1760    4.0402 N.pl3     1 RES1    0.0000
     12 N3         6.4268    4.9105    5.7894 N.pl3     1 RES1    0.0000
     13 H1         6.4284    5.5319    5.1961 H         1 RES1    0.0000
     14 N4         5.3509    4.7919    6.6669 N.2       1 RES1    0.0000
     15 C1         9.6541    2.3289    6.1587 C.ar      1 RES1    0.0000
     16 C2         9.7011    3.2878    5.1818 C.ar      1 RES1    0.0000
     17 H2        10.4434    3.3697    4.6271 H         1 RES1    0.0000
     18 C3         8.6132    4.1352    5.0404 C.ar      1 RES1    0.0000
     19 C4         7.4695    4.0476    5.8670 C.ar      1 RES1    0.0000
     20 C5         7.4691    3.0011    6.8279 C.ar      1 RES1    0.0000
     21 H3         6.7204    2.8797    7.3647 H         1 RES1    0.0000
     22 C6         8.5407    2.1693    6.9818 C.ar      1 RES1    0.0000
     23 H4         8.5279    1.5027    7.6295 H         1 RES1    0.0000
     24 C7         4.4981    5.7466    6.5899 C.2       1 RES1    0.0000
     25 C8         3.2327    5.7734    7.3969 C.3       1 RES1    0.0000
     26 H5         2.8680    4.8809    7.5078 H         1 RES1    0.0000
     27 H6         3.3810    6.1675    8.2700 H         1 RES1    0.0000
     28 C9         3.1666    7.6588    6.0674 C.3       1 RES1    0.0000
     29 H7         2.7397    7.9992    5.2533 H         1 RES1    0.0000
     30 C10        4.4978    6.9513    5.6756 C.3       1 RES1    0.0000
     31 H8         4.4003    6.6265    4.7559 H         1 RES1    0.0000
     32 C11        5.7692    8.5966    6.8637 C.3       1 RES1    0.0000
     33 H9         6.6140    9.0937    6.8333 H         1 RES1    0.0000
     34 C12        4.6027    9.5782    6.8279 C.3       1 RES1    0.0000
     35 H10        4.5711   10.0258    5.9565 H         1 RES1    0.0000
     36 C13        3.3125    8.8070    7.0587 C.3       1 RES1    0.0000
     37 H11        3.3202    8.4413    7.9677 H         1 RES1    0.0000
     38 C14        6.8595    7.1702    8.4579 C.3       1 RES1    0.0000
     39 H12        7.2013    6.6928    7.6975 H         1 RES1    0.0000
     40 H13        6.6417    6.5488    9.1557 H         1 RES1    0.0000
     41 H14        7.5254    7.7860    8.7728 H         1 RES1    0.0000
     42 C15        4.8655   11.8774    7.4201 C.3       1 RES1    0.0000
     43 H15        5.6165   11.9790    6.8315 H         1 RES1    0.0000
     44 H16        4.9704   12.4606    8.1752 H         1 RES1    0.0000
     45 H17        4.0583   12.1033    6.9513 H         1 RES1    0.0000
     46 C16        1.7441   10.3450    8.0679 C.3       1 RES1    0.0000
     47 H18        1.7985    9.7660    8.8319 H         1 RES1    0.0000
     48 H19        0.8403   10.6501    7.9623 H         1 RES1    0.0000
     49 H20        2.3238   11.0992    8.1967 H         1 RES1    0.0000
     50 O10       -0.3291    7.1857    1.1623 O.2       2 RES2    0.0000
     51 O11       -1.4744    8.0246    2.8027 O.2       2 RES2    0.0000
     52 O12        2.2936   12.3321    5.1034 O.2       2 RES2    0.0000
     53 O13        0.3062   11.5483    5.3932 O.2       2 RES2    0.0000
     54 O14        7.8582   13.2558    2.5096 O.3       2 RES2    0.0000
     55 O15        4.4742   14.2034    3.4037 O.3       2 RES2    0.0000
     56 O16        4.4917   14.4802    1.0777 O.3       2 RES2    0.0000
     57 O17        5.2385   17.1551    1.4264 O.3       2 RES2    0.0000
     58 O18        7.9379   16.3360    2.3162 O.3       2 RES2    0.0000
     59 N5        -0.4440    7.9413    2.1382 N.pl3     2 RES2    0.0000
     60 N6         1.4009   11.5328    4.8293 N.pl3     2 RES2    0.0000
     61 N7         3.8413   11.3944    3.2153 N.pl3     2 RES2    0.0000
     62 H21        3.8185   11.9593    3.8648 H         2 RES2    0.0000
     63 N8         4.9289   11.3534    2.3475 N.2       2 RES2    0.0000
     64 C17        0.6867    8.7873    2.4889 C.ar      2 RES2    0.0000
     65 C18        0.5674    9.6742    3.5285 C.ar      2 RES2    0.0000
     66 H22       -0.2022    9.6925    4.0509 H         2 RES2    0.0000
     67 C19        1.6227   10.5442    3.7879 C.ar      2 RES2    0.0000
     68 C20        2.8184   10.5258    3.0167 C.ar      2 RES2    0.0000
     69 C21        2.8895    9.5640    1.9807 C.ar      2 RES2    0.0000
     70 H23        3.6630    9.5089    1.4672 H         2 RES2    0.0000
     71 C22        1.8510    8.7110    1.7141 C.ar      2 RES2    0.0000
     72 H24        1.9179    8.0896    1.0270 H         2 RES2    0.0000
     73 C23        5.7596   12.3180    2.4710 C.2       2 RES2    0.0000
     74 C24        7.0243   12.4296    1.6783 C.3       2 RES2    0.0000
     75 H25        7.4256   11.5582    1.5352 H         2 RES2    0.0000
     76 H26        6.8624   12.8490    0.8195 H         2 RES2    0.0000
     77 C25        7.0050   14.2726    3.0901 C.3       2 RES2    0.0000
     78 H27        7.4170   14.5960    3.9185 H         2 RES2    0.0000
     79 C26        5.7150   13.4902    3.4426 C.3       2 RES2    0.0000
     80 H28        5.8225   13.1315    4.3479 H         2 RES2    0.0000
     81 C27        4.3629   15.1186    2.3135 C.3       2 RES2    0.0000
     82 H29        3.4989   15.5776    2.3565 H         2 RES2    0.0000
     83 C28        5.4970   16.1481    2.3994 C.3       2 RES2    0.0000
     84 H30        5.5089   16.5506    3.2941 H         2 RES2    0.0000
     85 C29        6.8202   15.4519    2.1364 C.3       2 RES2    0.0000
     86 H31        6.8252   15.1186    1.2149 H         2 RES2    0.0000
     87 C30        3.3390   13.7402    0.6424 C.3       2 RES2    0.0000
     88 H32        2.6383   13.8277    1.2919 H         2 RES2    0.0000
     89 H33        3.5714   12.8137    0.5439 H         2 RES2    0.0000
     90 H34        3.0382   14.0848   -0.2022 H         2 RES2    0.0000
     91 C31        5.4278   18.4841    1.8984 C.3       2 RES2    0.0000
     92 H35        4.7924   18.6705    2.5927 H         2 RES2    0.0000
     93 H36        5.3015   19.1012    1.1738 H         2 RES2    0.0000
     94 H37        6.3180   18.5759    2.2455 H         2 RES2    0.0000
     95 C32        8.4146   16.9221    1.1058 C.3       2 RES2    0.0000
     96 H38        8.6673   16.2286    0.4921 H         2 RES2    0.0000
     97 H39        9.1764   17.4743    1.2954 H         2 RES2    0.0000
     98 H40        7.7207   17.4573    0.7139 H         2 RES2    0.0000
@<TRIPOS>BOND
     1    1   10 2
     2    2   10 2
     3    3   11 2
     4    4   11 2
     5    5   25 1
     6    6   30 1
     7    7   32 1
     8    8   34 1
     9    9   36 1
    10   10   15 1
    11   11   18 1
    12   12   13 1
    13   14   12 1
    14   15   16 ar
    15   16   17 1
    16   18   16 ar
    17   19   12 1
    18   20   19 ar
    19   21   20 1
    20   22   15 ar
    21   23   22 1
    22   24   14 2
    23   25   24 1
    24   26   25 1
    25   27   25 1
    26   28    5 1
    27   29   28 1
    28   30   24 1
    29   31   30 1
    30   32    6 1
    31   33   32 1
    32   34   32 1
    33   35   34 1
    34   36   28 1
    35   37   36 1
    36   38    7 1
    37   39   38 1
    38   40   38 1
    39   41   38 1
    40   42    8 1
    41   43   42 1
    42   44   42 1
    43   45   42 1
    44   46    9 1
    45   47   46 1
    46   48   46 1
    47   49   46 1
    48   50   59 2
    49   51   59 2
    50   52   60 2
    51   53   60 2
    52   54   74 1
    53   55   79 1
    54   56   81 1
    55   57   83 1
    56   58   85 1
    57   59   64 1
    58   60   67 1
    59   61   62 1
    60   63   61 1
    61   64   65 ar
    62   65   66 1
    63   67   65 ar
    64   68   61 1
    65   69   68 ar
    66   70   69 1
    67   71   64 ar
    68   72   71 1
    69   73   63 2
    70   74   73 1
    71   75   74 1
    72   76   74 1
    73   77   54 1
    74   78   77 1
    75   79   73 1
    76   80   79 1
    77   81   55 1
    78   82   81 1
    79   83   81 1
    80   84   83 1
    81   85   77 1
    82   86   85 1
    83   87   56 1
    84   88   87 1
    85   89   87 1
    86   90   87 1
    87   91   57 1
    88   92   91 1
    89   93   91 1
    90   94   91 1
    91   95   58 1
    92   96   95 1
    93   97   95 1
    94   98   95 1
    95   18   19 ar
    96   20   22 ar
    97   28   30 1
    98   34   36 1
    99   67   68 ar
   100   69   71 ar
   101   77   79 1
   102   83   85 1
@<TRIPOS>SUBSTRUCTURE
     1 RES1 1
     2 RES2 50

@<TRIPOS>CRYSIN
   7.1660   14.1229   17.9110  90.0000  92.5840  90.0000   4 1

