# MOL2 file generated by ConQuest
# Please check atom types

@<TRIPOS>MOLECULE
TIZTOL
    82    85     1
SMALL
NO_CHARGES
****
Generated from CSD

@<TRIPOS>ATOM
      1 O1        10.3464   -0.5671    7.2036 O.3       1 RES1    0.0000
      2 O2        10.2665    2.3702   11.5543 O.3       1 RES1    0.0000
      3 C1         9.6396    0.9970    9.6456 C.3       1 RES1    0.0000
      4 C2         7.0829    0.7272    4.4196 C.3       1 RES1    0.0000
      5 N1        10.9365   -1.6253    7.9244 N.2       1 RES1    0.0000
      6 C3         8.9611   -0.3747    7.6259 C.3       1 RES1    0.0000
      7 C4         8.4022    1.9525    2.5926 C.3       1 RES1    0.0000
      8 C5         8.0765   -0.4552    6.3806 C.3       1 RES1    0.0000
      9 O3        12.0390   -1.8230    7.5366 O.2       1 RES1    0.0000
     10 C6         7.0917    1.8751    3.4053 C.3       1 RES1    0.0000
     11 C7         7.9659    2.0636    6.2952 C.3       1 RES1    0.0000
     12 C8         9.3179    2.2269   10.4596 C.3       1 RES1    0.0000
     13 C9         8.8065    0.9456    8.3774 C.3       1 RES1    0.0000
     14 C10        8.1534    0.7885    5.4862 C.3       1 RES1    0.0000
     15 C11        8.9680    2.1870    7.4613 C.3       1 RES1    0.0000
     16 C12        4.4521    1.5916    0.4478 C.3       1 RES1    0.0000
     17 C13        5.9132    1.4790    2.4867 C.3       1 RES1    0.0000
     18 C14        6.9066    3.1809    4.2168 C.3       1 RES1    0.0000
     19 C15        7.9169    3.3005    5.3829 C.3       1 RES1    0.0000
     20 C16       10.3967    2.3824    6.9471 C.3       1 RES1    0.0000
     21 C17        8.5955    3.4039    8.3468 C.3       1 RES1    0.0000
     22 C18        4.3059    2.0077   -1.0194 C.3       1 RES1    0.0000
     23 C19        6.9740   -0.5349    3.5456 C.3       1 RES1    0.0000
     24 C20        3.0083    1.6146   -3.2063 C.3       1 RES1    0.0000
     25 C21        6.1531   -0.0667    2.3017 C.3       1 RES1    0.0000
     26 C22        9.4350    3.4890    9.6405 C.3       1 RES1    0.0000
     27 C23        3.1656    1.2583   -1.7314 C.3       1 RES1    0.0000
     28 O4         8.9797    1.1142   12.8761 O.2       1 RES1    0.0000
     29 C24        5.5565    3.7043    1.2937 C.3       1 RES1    0.0000
     30 C25        5.6986    2.1602    1.1342 C.3       1 RES1    0.0000
     31 C26        9.9584    1.7303   12.7217 C.2       1 RES1    0.0000
     32 C27        2.1380    0.5732   -3.8991 C.3       1 RES1    0.0000
     33 C28       11.0490    1.9602   13.7399 C.3       1 RES1    0.0000
     34 C29        2.4162    3.0108   -3.4066 C.3       1 RES1    0.0000
     35 H1        10.8355    1.5123   14.5613 H         1 RES1    0.0000
     36 H2        11.1594    2.8993   13.9080 H         1 RES1    0.0000
     37 H3        11.8684    1.6073   13.3875 H         1 RES1    0.0000
     38 H4         8.4310    2.1495   10.8193 H         1 RES1    0.0000
     39 H5        10.3561    3.6234    9.4070 H         1 RES1    0.0000
     40 H6         9.1357    4.2326   10.1687 H         1 RES1    0.0000
     41 H7         7.6770    3.2969    8.6028 H         1 RES1    0.0000
     42 H8         8.6849    4.2104    7.8335 H         1 RES1    0.0000
     43 H9        11.0340    2.4684    7.6588 H         1 RES1    0.0000
     44 H10       10.4168    3.1780    6.4097 H         1 RES1    0.0000
     45 H11       10.6352    1.6301    6.4008 H         1 RES1    0.0000
     46 H12        7.8819    1.0841    8.5945 H         1 RES1    0.0000
     47 H13        8.7158   -1.0726    8.2366 H         1 RES1    0.0000
     48 H14        7.1595   -0.5676    6.6393 H         1 RES1    0.0000
     49 H15        8.3538   -1.2190    5.8686 H         1 RES1    0.0000
     50 H16        7.0808    2.0418    6.6680 H         1 RES1    0.0000
     51 H17        9.0114    0.8071    5.0559 H         1 RES1    0.0000
     52 H18        6.2363    0.7490    4.8708 H         1 RES1    0.0000
     53 H19        6.5201   -1.2377    4.0163 H         1 RES1    0.0000
     54 H20        7.8482   -0.8415    3.2954 H         1 RES1    0.0000
     55 H21        6.6481   -0.2289    1.4953 H         1 RES1    0.0000
     56 H22        5.3145   -0.5323    2.2532 H         1 RES1    0.0000
     57 H23        8.7917    3.4310    5.0091 H         1 RES1    0.0000
     58 H24        7.6895    4.0632    5.9200 H         1 RES1    0.0000
     59 H25        8.4160    2.6692    1.9536 H         1 RES1    0.0000
     60 H26        8.5084    1.1228    2.1220 H         1 RES1    0.0000
     61 H27        9.1401    2.0669    3.1950 H         1 RES1    0.0000
     62 H28        6.3461    4.0690    1.6988 H         1 RES1    0.0000
     63 H29        4.7968    3.8874    1.8519 H         1 RES1    0.0000
     64 H30        5.4190    4.1150    0.4357 H         1 RES1    0.0000
     65 H31        6.4602    1.9928    0.5730 H         1 RES1    0.0000
     66 H32        4.4882    0.6327    0.4830 H         1 RES1    0.0000
     67 H33        3.6776    1.8925    0.9296 H         1 RES1    0.0000
     68 H34        5.1357    1.8413   -1.4718 H         1 RES1    0.0000
     69 H35        4.1104    2.9470   -1.0585 H         1 RES1    0.0000
     70 H36        2.3424    1.4213   -1.2663 H         1 RES1    0.0000
     71 H37        3.3693    0.3209   -1.6886 H         1 RES1    0.0000
     72 H38        3.8686    1.6589   -3.6295 H         1 RES1    0.0000
     73 H39        2.3210    3.2743   -4.3247 H         1 RES1    0.0000
     74 H40        2.9988    3.6360   -2.9684 H         1 RES1    0.0000
     75 H41        1.6496    3.0429   -2.9876 H         1 RES1    0.0000
     76 H42        2.0436    0.8366   -4.8174 H         1 RES1    0.0000
     77 H43        1.2782    0.5285   -3.4752 H         1 RES1    0.0000
     78 H44        2.5589   -0.2884   -3.8427 H         1 RES1    0.0000
     79 H45        9.4672    0.2128   10.1710 H         1 RES1    0.0000
     80 H46       10.5698    1.0144    9.4080 H         1 RES1    0.0000
     81 H47        6.0160    3.1948    4.5771 H         1 RES1    0.0000
     82 H48        7.0179    3.9320    3.6304 H         1 RES1    0.0000
@<TRIPOS>BOND
     1    1    5 1
     2    2   12 1
     3    3   12 1
     4    4   10 1
     5    5    9 2
     6    6    1 1
     7    7   10 1
     8    8    6 1
     9   10   17 1
    10   11   14 1
    11   12   26 1
    12   13    3 1
    13   14    4 1
    14   15   11 1
    15   16   22 1
    16   17   25 1
    17   18   10 1
    18   19   11 1
    19   20   15 1
    20   21   15 1
    21   22   27 1
    22   23    4 1
    23   24   27 1
    24   25   23 1
    25   26   21 1
    26   27   70 1
    27   28   31 2
    28   29   30 1
    29   30   16 1
    30   31    2 1
    31   32   24 1
    32   33   31 1
    33   34   24 1
    34   35   33 1
    35   36   33 1
    36   37   33 1
    37   38   12 1
    38   39   26 1
    39   40   26 1
    40   41   21 1
    41   42   21 1
    42   43   20 1
    43   44   20 1
    44   45   20 1
    45   46   13 1
    46   47    6 1
    47   48    8 1
    48   49    8 1
    49   50   11 1
    50   51   14 1
    51   52    4 1
    52   53   23 1
    53   54   23 1
    54   55   25 1
    55   56   25 1
    56   57   19 1
    57   58   19 1
    58   59    7 1
    59   60    7 1
    60   61    7 1
    61   62   29 1
    62   63   29 1
    63   64   29 1
    64   65   30 1
    65   66   16 1
    66   67   16 1
    67   68   22 1
    68   69   22 1
    69   71   27 1
    70   72   24 1
    71   73   34 1
    72   74   34 1
    73   75   34 1
    74   76   32 1
    75   77   32 1
    76   78   32 1
    77   79    3 1
    78   80    3 1
    79   81   18 1
    80   82   18 1
    81    6   13 1
    82    8   14 1
    83   13   15 1
    84   17   30 1
    85   18   19 1
@<TRIPOS>SUBSTRUCTURE
     1 RES1 1

@<TRIPOS>CRYSIN
  13.8900    7.6630   12.9760  90.0000 100.5000  90.0000   4 1

