# MOL2 file generated by ConQuest
# Please check atom types

@<TRIPOS>MOLECULE
TIZXEH01
    62    63     1
SMALL
NO_CHARGES
****
Generated from CSD

@<TRIPOS>ATOM
      1 C1         2.6320    9.3515   11.7631 C.2       1 RES1    0.0000
      2 N1         3.2626   10.0601   10.8166 N.3       1 RES1    0.0000
      3 C2         2.4215   10.2620    9.5879 C.3       1 RES1    0.0000
      4 C3         1.1111    9.4757    9.9635 C.3       1 RES1    0.0000
      5 N2         1.3999    9.0160   11.3569 N.pl3     1 RES1    0.0000
      6 O1         4.4499   10.5217   10.9103 O.2       1 RES1    0.0000
      7 C4         3.1933    9.6779    8.4088 C.3       1 RES1    0.0000
      8 H1         2.6089    9.6393    7.6240 H         1 RES1    0.0000
      9 H2         3.4993    8.7756    8.6343 H         1 RES1    0.0000
     10 H3         3.9668   10.2466    8.2117 H         1 RES1    0.0000
     11 C5         2.2224   11.7551    9.3894 C.3       1 RES1    0.0000
     12 H4         3.0922   12.1857    9.2522 H         1 RES1    0.0000
     13 H5         1.7916   12.1354   10.1826 H         1 RES1    0.0000
     14 H6         1.6559   11.9072    8.6041 H         1 RES1    0.0000
     15 C6         0.8839    8.2159    9.1373 C.3       1 RES1    0.0000
     16 H7         0.6991    8.4643    8.2082 H         1 RES1    0.0000
     17 H8         0.1219    7.7189    9.5008 H         1 RES1    0.0000
     18 H9         1.6861    7.6534    9.1723 H         1 RES1    0.0000
     19 C7        -0.1669   10.2940    9.9817 C.3       1 RES1    0.0000
     20 H10       -0.4065   10.5474    9.0658 H         1 RES1    0.0000
     21 H11       -0.0292   11.1021   10.5181 H         1 RES1    0.0000
     22 H12       -0.8900    9.7610   10.3725 H         1 RES1    0.0000
     23 O2         0.5437    8.3560   12.0273 O.2       1 RES1    0.0000
     24 C8         3.2994    8.8183   12.9412 C.2       1 RES1    0.0000
     25 C9         4.4837    8.0249   12.7114 C.2       1 RES1    0.0000
     26 N3         4.6988    7.2712   11.6056 N.3       1 RES1    0.0000
     27 C10        6.1431    6.8740   11.5016 C.3       1 RES1    0.0000
     28 C11        6.5577    6.9571   12.9989 C.3       1 RES1    0.0000
     29 N4         5.5922    8.0157   13.4717 N.pl3     1 RES1    0.0000
     30 O3         3.8379    7.0143   10.6911 O.2       1 RES1    0.0000
     31 C12        6.8079    7.9308   10.6208 C.3       1 RES1    0.0000
     32 H13        7.7570    7.7131   10.5093 H         1 RES1    0.0000
     33 H14        6.7226    8.8107   11.0455 H         1 RES1    0.0000
     34 H15        6.3705    7.9471    9.7440 H         1 RES1    0.0000
     35 C13        6.2588    5.4945   10.8778 C.3       1 RES1    0.0000
     36 H16        5.9195    5.5224    9.9588 H         1 RES1    0.0000
     37 H17        5.7327    4.8542   11.4006 H         1 RES1    0.0000
     38 H18        7.1988    5.2169   10.8715 H         1 RES1    0.0000
     39 C14        7.9889    7.4079   13.2411 C.3       1 RES1    0.0000
     40 H19        8.6070    6.7675   12.8298 H         1 RES1    0.0000
     41 H20        8.1581    7.4533   14.2059 H         1 RES1    0.0000
     42 H21        8.1247    8.2935   12.8440 H         1 RES1    0.0000
     43 C15        6.2479    5.6899   13.7916 C.3       1 RES1    0.0000
     44 H22        5.3205    5.4194   13.6271 H         1 RES1    0.0000
     45 H23        6.3724    5.8641   14.7474 H         1 RES1    0.0000
     46 H24        6.8525    4.9723   13.5099 H         1 RES1    0.0000
     47 O4         5.7833    8.7207   14.5159 O.2       1 RES1    0.0000
     48 N5         2.8061    8.8710   14.1833 N.pl3     1 RES1    0.0000
     49 O5         3.1984    8.0294   15.0498 O.2       1 RES1    0.0000
     50 C16        1.8922    9.9792   14.7355 C.3       1 RES1    0.0000
     51 C17        2.6804   10.5790   15.8997 C.3       1 RES1    0.0000
     52 H25        3.5288   10.9394   15.5677 H         1 RES1    0.0000
     53 H26        2.8595    9.8827   16.5655 H         1 RES1    0.0000
     54 H27        2.1580   11.2987   16.3116 H         1 RES1    0.0000
     55 C18        0.6211    9.3150   15.2266 C.3       1 RES1    0.0000
     56 H28        0.1518    8.9067   14.4686 H         1 RES1    0.0000
     57 H29        0.0429    9.9857   15.6458 H         1 RES1    0.0000
     58 H30        0.8464    8.6223   15.8820 H         1 RES1    0.0000
     59 C19        1.5960   11.0902   13.7362 C.3       1 RES1    0.0000
     60 H31        2.4330   11.3923   13.3270 H         1 RES1    0.0000
     61 H32        1.1691   11.8405   14.1988 H         1 RES1    0.0000
     62 H33        0.9950   10.7522   13.0394 H         1 RES1    0.0000
@<TRIPOS>BOND
     1    1    2 1
     2    2    3 1
     3    3    4 1
     4    4    5 1
     5    5    1 2
     6    6    2 1
     7    7    3 1
     8    8    7 1
     9    9    7 1
    10   10    7 1
    11   11    3 1
    12   12   11 1
    13   13   11 1
    14   14   11 1
    15   15    4 1
    16   16   15 1
    17   17   15 1
    18   18   15 1
    19   19    4 1
    20   20   19 1
    21   21   19 1
    22   22   19 1
    23   23    5 1
    24   24    1 1
    25   25   24 1
    26   26   25 1
    27   27   26 1
    28   28   27 1
    29   29   25 2
    30   30   26 1
    31   31   27 1
    32   32   31 1
    33   33   31 1
    34   34   31 1
    35   35   27 1
    36   36   35 1
    37   37   35 1
    38   38   35 1
    39   39   28 1
    40   40   39 1
    41   41   39 1
    42   42   39 1
    43   43   28 1
    44   44   43 1
    45   45   43 1
    46   46   43 1
    47   47   29 1
    48   48   24 2
    49   49   48 1
    50   50   48 1
    51   51   50 1
    52   52   51 1
    53   53   51 1
    54   54   51 1
    55   55   50 1
    56   56   55 1
    57   57   55 1
    58   58   55 1
    59   59   50 1
    60   60   59 1
    61   61   59 1
    62   62   59 1
    63   28   29 1
@<TRIPOS>SUBSTRUCTURE
     1 RES1 1

@<TRIPOS>CRYSIN
  10.2862   11.7024   17.7921  90.0000  93.6950  90.0000 231 1

