# MOL2 file generated by ConQuest
# Please check atom types

@<TRIPOS>MOLECULE
TIZXOR
    34    33     1
SMALL
USER_CHARGES
****
Generated from CSD

@<TRIPOS>ATOM
      1 O1         2.1347    5.5803    0.0000 O.2       1 RES1   -1.0000
      2 N1         1.7833    6.8249    0.0000 N.pl3     1 RES1    1.0000
      3 C1         0.5256    7.1877    0.0000 C.2       1 RES1    0.0000
      4 H1         0.3084    8.1021    0.0000 H         1 RES1    0.0000
      5 C2         3.7385    7.5405    1.2626 C.3       1 RES1    0.0000
      6 H2         4.5143    8.1222    1.2896 H         1 RES1    0.0000
      7 H3         4.0289    6.6152    1.2626 H         1 RES1    0.0000
      8 H4         3.1829    7.7052    2.0401 H         1 RES1    0.0000
      9 C3         2.9389    7.8205    0.0000 C.3       1 RES1    0.0000
     10 C4         2.4375    9.2524    0.0000 C.3       1 RES1    0.0000
     11 H5         3.2044    9.8276    0.0000 H         1 RES1    0.0000
     12 H6         1.9307    9.4656   -0.7904 H         1 RES1    0.0000
     13 O1C       -2.1347    7.8271    0.0000 O.2       1 RES1   -1.0000
     14 N1C       -1.7833    6.5825    0.0000 N.pl3     1 RES1    1.0000
     15 C1C       -0.5256    6.2197    0.0000 C.2       1 RES1    0.0000
     16 H1C       -0.3084    5.3053    0.0000 H         1 RES1    0.0000
     17 C2C       -3.7385    5.8669    1.2626 C.3       1 RES1    0.0000
     18 H2C       -4.5143    5.2852    1.2896 H         1 RES1    0.0000
     19 H3C       -4.0289    6.7922    1.2626 H         1 RES1    0.0000
     20 H4C       -3.1829    5.7022    2.0401 H         1 RES1    0.0000
     21 C3C       -2.9389    5.5869    0.0000 C.3       1 RES1    0.0000
     22 C4C       -2.4375    4.1550    0.0000 C.3       1 RES1    0.0000
     23 H5C       -3.2044    3.5798    0.0000 H         1 RES1    0.0000
     24 H6C       -1.9307    3.9418   -0.7904 H         1 RES1    0.0000
     25 C2H       -3.7385    5.8669   -1.2626 C.3       1 RES1    0.0000
     26 H2H       -4.5143    5.2852   -1.2896 H         1 RES1    0.0000
     27 H3H       -4.0289    6.7922   -1.2626 H         1 RES1    0.0000
     28 H4H       -3.1829    5.7022   -2.0401 H         1 RES1    0.0000
     29 H6H       -1.9307    3.9418    0.7904 H         1 RES1    0.0000
     30 C2K        3.7385    7.5405   -1.2626 C.3       1 RES1    0.0000
     31 H2K        4.5143    8.1222   -1.2896 H         1 RES1    0.0000
     32 H3K        4.0289    6.6152   -1.2626 H         1 RES1    0.0000
     33 H4K        3.1829    7.7052   -2.0401 H         1 RES1    0.0000
     34 H6K        1.9307    9.4656    0.7904 H         1 RES1    0.0000
@<TRIPOS>BOND
     1    1    2 1
     2    2    3 2
     3    3    4 1
     4    5    6 1
     5    7    5 1
     6    8    5 1
     7    9    2 1
     8   10    9 1
     9   11   10 1
    10   12   10 1
    11   13   14 1
    12   14   15 2
    13   15    3 1
    14   16   15 1
    15   17   18 1
    16   19   17 1
    17   20   17 1
    18   21   14 1
    19   22   21 1
    20   23   22 1
    21   24   22 1
    22   25   21 1
    23   26   25 1
    24   27   25 1
    25   28   25 1
    26   29   22 1
    27   30    9 1
    28   31   30 1
    29   32   30 1
    30   33   30 1
    31   34   10 1
    32    5    9 1
    33   17   21 1
@<TRIPOS>SUBSTRUCTURE
     1 RES1 1

@<TRIPOS>CRYSIN
  13.4074   13.4074    6.7554  90.0000  90.0000  90.0000  87 1

