# MOL2 file generated by ConQuest
# Please check atom types

@<TRIPOS>MOLECULE
TIZXEH
    62    63     1
SMALL
NO_CHARGES
****
Generated from CSD

@<TRIPOS>ATOM
      1 C1         2.4657    1.7618    5.8729 C.3       1 RES1    0.0000
      2 C2         1.2017    2.4250    6.3699 C.3       1 RES1    0.0000
      3 H1         0.6120    1.7598    6.7304 H         1 RES1    0.0000
      4 H2         0.7689    2.8756    5.6408 H         1 RES1    0.0000
      5 H3         1.4223    3.0620    7.0537 H         1 RES1    0.0000
      6 C3         2.1576    0.6549    4.8715 C.3       1 RES1    0.0000
      7 H4         1.5901   -0.0012    5.2836 H         1 RES1    0.0000
      8 H5         2.9767    0.2394    4.5923 H         1 RES1    0.0000
      9 H6         1.7116    1.0285    4.1083 H         1 RES1    0.0000
     10 C4         3.2597    1.1559    7.0230 C.3       1 RES1    0.0000
     11 H7         2.7494    0.4506    7.4270 H         1 RES1    0.0000
     12 H8         3.4432    1.8341    7.6771 H         1 RES1    0.0000
     13 H9         4.0866    0.8009    6.6893 H         1 RES1    0.0000
     14 N1         3.3724    2.8669    5.3075 N.pl3     1 RES1    0.0000
     15 O1         3.7632    3.7057    6.1790 O.2       1 RES1    0.0000
     16 C5         3.8680    2.9254    4.0733 C.2       1 RES1    0.0000
     17 C6         3.2086    2.3895    2.8958 C.2       1 RES1    0.0000
     18 N2         1.9833    2.7267    2.4728 N.3       1 RES1    0.0000
     19 O2         1.1285    3.4041    3.1319 O.2       1 RES1    0.0000
     20 C7         1.6985    2.2461    1.0833 C.3       1 RES1    0.0000
     21 C8         0.4244    1.4307    1.1139 C.3       1 RES1    0.0000
     22 H10       -0.3150    2.0004    1.3414 H         1 RES1    0.0000
     23 H11        0.5058    0.7348    1.7701 H         1 RES1    0.0000
     24 H12        0.2725    1.0415    0.2501 H         1 RES1    0.0000
     25 C9         1.4784    3.5046    0.2526 C.3       1 RES1    0.0000
     26 H13        0.6627    3.9301    0.5269 H         1 RES1    0.0000
     27 H14        1.4196    3.2684   -0.6770 H         1 RES1    0.0000
     28 H15        2.2141    4.1070    0.3840 H         1 RES1    0.0000
     29 C10        3.0022    1.4636    0.7259 C.3       1 RES1    0.0000
     30 C11        3.7819    2.0405   -0.4442 C.3       1 RES1    0.0000
     31 H16        4.5649    1.5074   -0.6002 H         1 RES1    0.0000
     32 H17        4.0442    2.9416   -0.2411 H         1 RES1    0.0000
     33 H18        3.2303    2.0370   -1.2289 H         1 RES1    0.0000
     34 C12        2.8041   -0.0263    0.5396 C.3       1 RES1    0.0000
     35 H19        3.6447   -0.4364    0.3233 H         1 RES1    0.0000
     36 H20        2.1807   -0.1793   -0.1733 H         1 RES1    0.0000
     37 H21        2.4619   -0.4069    1.3522 H         1 RES1    0.0000
     38 N3         3.8301    1.6716    1.9573 N.pl3     1 RES1    0.0000
     39 O3         5.0167    1.2018    2.0648 O.2       1 RES1    0.0000
     40 C13        5.0506    3.7137    3.8459 C.2       1 RES1    0.0000
     41 O4         4.4101    4.7415    1.8414 O.2       1 RES1    0.0000
     42 N4         5.2698    4.4738    2.7527 N.3       1 RES1    0.0000
     43 C14        6.7140    4.8757    2.6584 C.3       1 RES1    0.0000
     44 C15        6.8313    6.2552    2.0466 C.3       1 RES1    0.0000
     45 H22        6.5566    6.2218    1.1271 H         1 RES1    0.0000
     46 H23        7.7424    6.5521    2.0988 H         1 RES1    0.0000
     47 H24        6.2675    6.8670    2.5275 H         1 RES1    0.0000
     48 C16        7.3735    3.8215    1.7649 C.3       1 RES1    0.0000
     49 H25        7.0773    3.9395    0.8592 H         1 RES1    0.0000
     50 H26        7.1284    2.9452    2.0702 H         1 RES1    0.0000
     51 H27        8.3276    3.9194    1.8058 H         1 RES1    0.0000
     52 C17        7.1239    4.7742    4.1442 C.3       1 RES1    0.0000
     53 C18        8.5504    4.3205    4.4019 C.3       1 RES1    0.0000
     54 H28        8.7097    4.2886    5.3479 H         1 RES1    0.0000
     55 H29        9.1614    4.9397    3.9957 H         1 RES1    0.0000
     56 H30        8.6814    3.4476    4.0261 H         1 RES1    0.0000
     57 C19        6.8154    6.0266    4.9546 C.3       1 RES1    0.0000
     58 H31        7.0939    5.8963    5.8641 H         1 RES1    0.0000
     59 H32        5.8715    6.1982    4.9317 H         1 RES1    0.0000
     60 H33        7.2867    6.7750    4.5798 H         1 RES1    0.0000
     61 N5         6.1541    3.7200    4.6086 N.pl3     1 RES1    0.0000
     62 O5         6.3419    3.0104    5.6489 O.2       1 RES1    0.0000
@<TRIPOS>BOND
     1    1    2 1
     2    2    3 1
     3    4    2 1
     4    5    2 1
     5    6    1 1
     6    7    6 1
     7    8    6 1
     8    9    6 1
     9   10    1 1
    10   11   10 1
    11   12   10 1
    12   13   10 1
    13   14    1 1
    14   15   14 1
    15   16   14 2
    16   17   16 1
    17   18   17 1
    18   19   18 1
    19   20   18 1
    20   21   20 1
    21   22   21 1
    22   23   21 1
    23   24   21 1
    24   25   20 1
    25   26   25 1
    26   27   25 1
    27   28   25 1
    28   29   20 1
    29   30   29 1
    30   31   30 1
    31   32   30 1
    32   33   30 1
    33   34   29 1
    34   35   34 1
    35   36   34 1
    36   37   34 1
    37   38   17 2
    38   39   38 1
    39   40   16 1
    40   41   42 1
    41   42   40 1
    42   43   42 1
    43   44   43 1
    44   45   44 1
    45   46   44 1
    46   47   44 1
    47   48   43 1
    48   49   48 1
    49   50   48 1
    50   51   48 1
    51   52   43 1
    52   53   52 1
    53   54   53 1
    54   55   53 1
    55   56   53 1
    56   57   52 1
    57   58   57 1
    58   59   57 1
    59   60   57 1
    60   61   40 2
    61   62   61 1
    62   29   38 1
    63   52   61 1
@<TRIPOS>SUBSTRUCTURE
     1 RES1 1

@<TRIPOS>CRYSIN
  10.2991   11.7949   17.9026  90.0000  93.8590  90.0000 231 1

