# MOL2 file generated by ConQuest
# Please check atom types

@<TRIPOS>MOLECULE
TMANIA10
    17    16     1
SMALL
USER_CHARGES
****
Generated from CSD

@<TRIPOS>ATOM
      1 C1         2.7229    1.6795   -1.0977 C.3       1 RES1    0.0000
      2 C2         4.7838    0.4211   -1.2842 C.3       1 RES1    0.0000
      3 H1         2.8812    1.6795   -0.0170 H         1 RES1    0.0000
      4 H2         2.1857    0.8922   -1.4489 H         1 RES1    0.0000
      5 H3         5.6303    0.3990   -1.6967 H         1 RES1    0.0000
      6 H4         4.8992    0.3231   -0.1903 H         1 RES1    0.0000
      7 H5         4.0604   -0.3849   -1.5987 H         1 RES1    0.0000
      8 N1         4.0795    1.6795   -1.7231 N.4       1 RES1    1.0000
      9 N2         3.7755    1.6795   -3.1616 N.2       1 RES1   -1.0000
     10 N3         4.8336    1.6795   -3.9555 N.pl3     1 RES1    0.0000
     11 O1         6.0207    1.6795   -3.5200 O.2       1 RES1    0.0000
     12 O2         4.5871    1.6795   -5.1826 O.2       1 RES1    0.0000
     13 H2B        2.1857    2.4668   -1.4489 H         1 RES1    0.0000
     14 C2B        4.7838    2.9379   -1.2842 C.3       1 RES1    0.0000
     15 H3B        5.6303    2.9600   -1.6967 H         1 RES1    0.0000
     16 H4B        4.8992    3.0359   -0.1903 H         1 RES1    0.0000
     17 H5B        4.0604    3.7439   -1.5987 H         1 RES1    0.0000
@<TRIPOS>BOND
     1    1    3 1
     2    2    5 1
     3    4    1 1
     4    6    2 1
     5    7    2 1
     6    8    1 1
     7    9    8 1
     8   10    9 1
     9   11   10 2
    10   12   10 2
    11   13    1 1
    12   14    8 1
    13   15   14 1
    14   16   14 1
    15   17   14 1
    16    2    8 1
@<TRIPOS>SUBSTRUCTURE
     1 RES1 1

@<TRIPOS>CRYSIN
  12.2450    6.7180    7.0990  90.0000  90.0000  90.0000  62 1

