# MOL2 file generated by ConQuest
# Please check atom types

@<TRIPOS>MOLECULE
TMANIA01
    17    16     1
SMALL
USER_CHARGES
****
Generated from CSD

@<TRIPOS>ATOM
      1 O1         5.9244    1.6555    3.5308 O.2       1 RES1    0.0000
      2 O2         4.4791    1.6555    1.8900 O.2       1 RES1    0.0000
      3 N1         4.0052    1.6555    5.3429 N.4       1 RES1    1.0000
      4 N2         3.6834    1.6555    3.9067 N.2       1 RES1   -1.0000
      5 N3         4.7440    1.6555    3.1292 N.pl3     1 RES1    0.0000
      6 C1         2.6429    1.6555    5.9637 C.3       1 RES1    0.0000
      7 C2         4.7121    0.4108    5.7899 C.3       1 RES1    0.0000
      8 H1         2.7890    1.6555    7.0134 H         1 RES1    0.0000
      9 H2         2.1475    0.7703    5.6562 H         1 RES1    0.0000
     10 H3         5.6622    0.3578    5.3238 H         1 RES1    0.0000
     11 H4         4.7690    0.4578    6.8471 H         1 RES1    0.0000
     12 H5         4.1199   -0.4190    5.4980 H         1 RES1    0.0000
     13 H2G        2.1475    2.5407    5.6562 H         1 RES1    0.0000
     14 C2G        4.7121    2.9002    5.7899 C.3       1 RES1    0.0000
     15 H3G        5.6622    2.9532    5.3238 H         1 RES1    0.0000
     16 H4G        4.7690    2.8532    6.8471 H         1 RES1    0.0000
     17 H5G        4.1199    3.7300    5.4980 H         1 RES1    0.0000
@<TRIPOS>BOND
     1    1    5 2
     2    2    5 2
     3    3    4 1
     4    4    5 1
     5    6    3 1
     6    7    3 1
     7    8    6 1
     8    9    6 1
     9   10    7 1
    10   11    7 1
    11   12    7 1
    12   13    6 1
    13   14    3 1
    14   15   14 1
    15   16   14 1
    16   17   14 1
@<TRIPOS>SUBSTRUCTURE
     1 RES1 1

@<TRIPOS>CRYSIN
  12.0640    6.6220    7.0510  90.0000  90.0000  90.0000  62 1

