# MOL2 file generated by ConQuest
# Please check atom types

@<TRIPOS>MOLECULE
TMAZPX
    12    12     1
SMALL
NO_CHARGES
****
Generated from CSD

@<TRIPOS>ATOM
      1 C1        -2.8585    2.4717    3.4672 C.3       1 RES1    0.0000
      2 C2        -1.3720    2.2419    3.6443 C.3       1 RES1    0.0000
      3 C3        -0.8820    1.6225    2.3911 C.2       1 RES1    0.0000
      4 C4        -2.0082    1.0974    1.5292 C.3       1 RES1    0.0000
      5 C5        -3.2072    3.9039    3.1292 C.3       1 RES1    0.0000
      6 C6        -3.6796    2.0410    4.6535 C.3       1 RES1    0.0000
      7 C7        -2.0141    1.6575    0.1191 C.3       1 RES1    0.0000
      8 C8        -2.0601   -0.4292    1.5235 C.3       1 RES1    0.0000
      9 N1        -3.1574    1.6164    2.2905 N.3       1 RES1    0.0000
     10 N2         0.3119    1.4444    2.0241 N.2       1 RES1    0.0000
     11 O1        -4.3373    1.4337    1.8519 O.2       1 RES1    0.0000
     12 O2         1.2180    1.9923    2.9465 O.3       1 RES1    0.0000
@<TRIPOS>BOND
     1    1    2 1
     2    2    3 1
     3    3    4 1
     4    4    7 1
     5    5    1 1
     6    6    1 1
     7    8    4 1
     8    9    1 1
     9   10    3 2
    10   11    9 1
    11   12   10 1
    12    4    9 1
@<TRIPOS>SUBSTRUCTURE
     1 RES1 1

@<TRIPOS>CRYSIN
   7.9750   15.2200   12.0140  90.0000 137.9400  90.0000  14 1

