# MOL2 file generated by ConQuest
# Please check atom types

@<TRIPOS>MOLECULE
TMCHOX
    12    12     1
SMALL
NO_CHARGES
****
Generated from CSD

@<TRIPOS>ATOM
      1 O1         6.7006    0.0510   -0.0046 O.3       1 RES1    0.0000
      2 N1         7.4407   -0.8284   -0.8706 N.2       1 RES1    0.0000
      3 C1         6.7159   -1.3687   -1.7453 C.2       1 RES1    0.0000
      4 C2         5.2277   -1.1496   -1.9298 C.3       1 RES1    0.0000
      5 C3         4.4657   -2.5003   -1.9332 C.3       1 RES1    0.0000
      6 C4         5.1503   -3.4542   -2.9046 C.3       1 RES1    0.0000
      7 C5         6.6833   -3.6747   -2.7645 C.3       1 RES1    0.0000
      8 C6         7.3482   -2.2883   -2.7258 C.3       1 RES1    0.0000
      9 C7         3.0447   -2.2143   -2.4850 C.3       1 RES1    0.0000
     10 C8         4.3429   -3.0318   -0.5153 C.3       1 RES1    0.0000
     11 C9         7.1617   -4.4060   -4.0315 C.3       1 RES1    0.0000
     12 C10        7.0505   -4.4957   -1.5431 C.3       1 RES1    0.0000
@<TRIPOS>BOND
     1    1    2 1
     2    2    3 2
     3    3    4 1
     4    4    5 1
     5    5    6 1
     6    6    7 1
     7    7    8 1
     8    8    3 1
     9    9    5 1
    10   10    5 1
    11   11    7 1
    12   12    7 1
@<TRIPOS>SUBSTRUCTURE
     1 RES1 1

@<TRIPOS>CRYSIN
   8.3740   11.6500    6.1920  95.1500  66.9300 107.2500   2 1

