# MOL2 file generated by ConQuest
# Please check atom types

@<TRIPOS>MOLECULE
TMCPRO
    21    21     1
SMALL
NO_CHARGES
****
Generated from CSD

@<TRIPOS>ATOM
      1 C1        -1.9729    3.1118    3.2127 C.3       1 RES1    0.0000
      2 C2        -1.6495    4.0846    2.1022 C.2       1 RES1    0.0000
      3 C3        -0.3536    4.1627    1.8635 C.2       1 RES1    0.0000
      4 C4         0.4675    3.2421    2.6972 C.3       1 RES1    0.0000
      5 C5        -2.7080    4.7991    1.3307 C.2       1 RES1    0.0000
      6 C6        -2.8188    1.9081    2.7987 C.3       1 RES1    0.0000
      7 C7        -2.5664    3.8037    4.4328 C.3       1 RES1    0.0000
      8 C8         1.1627    2.1663    1.8601 C.3       1 RES1    0.0000
      9 C9         1.4703    3.9623    3.5806 C.3       1 RES1    0.0000
     10 H1         0.0343    4.7901    1.2454 H         1 RES1    0.0000
     11 H2         0.4894    1.7099    1.3492 H         1 RES1    0.0000
     12 H3         1.8508    2.5932    1.2569 H         1 RES1    0.0000
     13 H4         1.6107    1.5287    2.5370 H         1 RES1    0.0000
     14 H5         2.2386    4.3484    3.0328 H         1 RES1    0.0000
     15 H6         1.9060    3.3293    4.1860 H         1 RES1    0.0000
     16 H7         1.0325    4.6655    4.0937 H         1 RES1    0.0000
     17 H8        -1.9386    4.6089    4.7741 H         1 RES1    0.0000
     18 N1        -0.5988    2.6396    3.5229 N.3       1 RES1    0.0000
     19 N2        -2.3667    5.9632    0.7888 N.am      1 RES1    0.0000
     20 O1        -0.3682    1.7733    4.4212 O.2       1 RES1    0.0000
     21 O2        -3.8245    4.3020    1.1947 O.2       1 RES1    0.0000
@<TRIPOS>BOND
     1    1    2 1
     2    2    3 2
     3    3    4 1
     4    4    8 1
     5    5    2 1
     6    6    1 1
     7    7    1 1
     8    8   11 1
     9    9    4 1
    10   10    3 1
    11   12    8 1
    12   13    8 1
    13   14    9 1
    14   15    9 1
    15   16    9 1
    16   17    7 1
    17   18    1 1
    18   19    5 1
    19   20   18 1
    20   21    5 2
    21    4   18 1
@<TRIPOS>SUBSTRUCTURE
     1 RES1 1

@<TRIPOS>CRYSIN
   8.0390   11.3240   11.5370  90.0000  91.7500  90.0000  14 1

