# MOL2 file generated by ConQuest
# Please check atom types

@<TRIPOS>MOLECULE
TMCPRP
    14    14     1
SMALL
NO_CHARGES
****
Generated from CSD

@<TRIPOS>ATOM
      1 O1         3.0764    1.6489    2.5790 O.2       1 RES1    0.0000
      2 N1         2.8274    2.8481    2.1890 N.3       1 RES1    0.0000
      3 C1         3.5730    3.4845    1.0746 C.3       1 RES1    0.0000
      4 C2         2.9354    4.8417    1.0714 C.3       1 RES1    0.0000
      5 C3         2.0081    4.9368    2.0282 C.3       1 RES1    0.0000
      6 C4         1.8108    3.6918    2.8545 C.3       1 RES1    0.0000
      7 C5         5.0971    3.5437    1.3890 C.3       1 RES1    0.0000
      8 C6         3.3114    2.7296   -0.2189 C.3       1 RES1    0.0000
      9 C7         0.4198    3.0662    2.6769 C.3       1 RES1    0.0000
     10 C8         2.1538    3.8381    4.3310 C.3       1 RES1    0.0000
     11 C9         1.1873    6.1683    2.3012 C.2       1 RES1    0.0000
     12 C10        0.7863    8.4096    1.5482 C.3       1 RES1    0.0000
     13 O2         0.3321    6.2554    3.1466 O.2       1 RES1    0.0000
     14 O3         1.5319    7.1377    1.4272 O.3       1 RES1    0.0000
@<TRIPOS>BOND
     1    1    2 1
     2    2    3 1
     3    3    4 1
     4    4    5 1
     5    5    6 1
     6    6    2 1
     7    7    3 1
     8    8    3 1
     9    9    6 1
    10   10    6 1
    11   11    5 1
    12   12   14 1
    13   13   11 2
    14   14   11 1
@<TRIPOS>SUBSTRUCTURE
     1 RES1 1

@<TRIPOS>CRYSIN
  15.6640    8.9760    7.9600  90.0000  90.0000  90.0000  33 1

