# MOL2 file generated by ConQuest
# Please check atom types

@<TRIPOS>MOLECULE
TMEAMO
    14    13     1
SMALL
USER_CHARGES
****
Generated from CSD

@<TRIPOS>ATOM
      1 C1         3.4529    0.0000    3.8680 C.3       1 RES1    0.0000
      2 C2         1.3698    1.2073    3.8935 C.3       1 RES1    0.0000
      3 H1         3.4469    0.0000    4.8200 H         1 RES1    0.0000
      4 H2         3.9080    0.7298    3.4586 H         1 RES1    0.0000
      5 H3         1.3942    1.1695    4.9101 H         1 RES1    0.0000
      6 H4         0.3839    1.1519    3.4986 H         1 RES1    0.0000
      7 H5         1.8069    2.0224    3.4185 H         1 RES1    0.0000
      8 N1         2.0654    0.0000    3.3825 N.4       1 RES1    1.0000
      9 O1         2.0366    0.0000    1.9946 O.2       1 RES1   -1.0000
     10 H2F        3.9080   -0.7298    3.4586 H         1 RES1    0.0000
     11 C2F        1.3698   -1.2073    3.8935 C.3       1 RES1    0.0000
     12 H3F        1.3942   -1.1695    4.9101 H         1 RES1    0.0000
     13 H4F        0.3839   -1.1519    3.4986 H         1 RES1    0.0000
     14 H5F        1.8069   -2.0224    3.4185 H         1 RES1    0.0000
@<TRIPOS>BOND
     1    1    3 1
     2    2    5 1
     3    4    1 1
     4    6    2 1
     5    7    2 1
     6    8    1 1
     7    9    8 1
     8   10    1 1
     9   11    8 1
    10   12   11 1
    11   13   11 1
    12   14   11 1
    13    2    8 1
@<TRIPOS>SUBSTRUCTURE
     1 RES1 1

@<TRIPOS>CRYSIN
  10.1540    8.7930    5.0060  90.0000  91.0300  90.0000  12 1

