# MOL2 file generated by ConQuest
# Please check atom types

@<TRIPOS>MOLECULE
TMOBUT
    70    71     1
SMALL
NO_CHARGES
****
Generated from CSD

@<TRIPOS>ATOM
      1 C1         5.4250    2.1031    1.3016 C.3       1 RES1    0.0000
      2 C2         6.5947    5.8049    1.2361 C.3       1 RES1    0.0000
      3 C3         2.2130    4.3491    1.0835 C.3       1 RES1    0.0000
      4 C4         7.1504    0.5719    2.4341 C.3       1 RES1    0.0000
      5 C5         5.9994    4.5519    0.6063 C.3       1 RES1    0.0000
      6 C6         5.7068    1.0762    2.3844 C.3       1 RES1    0.0000
      7 C7         3.9719    2.5372    1.4214 C.3       1 RES1    0.0000
      8 C8         6.2757    3.3613    1.4992 C.3       1 RES1    0.0000
      9 C9         3.5066    3.6875    0.5046 C.3       1 RES1    0.0000
     10 C10        6.5596    4.4037   -0.8098 C.3       1 RES1    0.0000
     11 C11        3.2395    3.2690   -0.9303 C.3       1 RES1    0.0000
     12 H1         5.1143    0.8059   -0.3099 H         1 RES1    0.0000
     13 H2         7.1478    5.5891    1.4208 H         1 RES1    0.0000
     14 H3         6.2431    6.0831    2.1810 H         1 RES1    0.0000
     15 H4         6.5942    6.7850    0.6607 H         1 RES1    0.0000
     16 H5         2.4537    4.7183    1.7892 H         1 RES1    0.0000
     17 H6         1.8109    3.7174    0.9472 H         1 RES1    0.0000
     18 H7         1.7316    5.0302    0.3918 H         1 RES1    0.0000
     19 H8         7.8469    1.2998    2.5669 H         1 RES1    0.0000
     20 H9         7.1564    0.1430    1.6664 H         1 RES1    0.0000
     21 H10        5.5560    1.4428    3.1925 H         1 RES1    0.0000
     22 H11        5.1048    0.2860    2.1400 H         1 RES1    0.0000
     23 H12        3.4074    1.8197    1.1928 H         1 RES1    0.0000
     24 H13        3.8010    2.7556    2.3856 H         1 RES1    0.0000
     25 H14        7.1847    3.0545    1.3507 H         1 RES1    0.0000
     26 H15        6.0880    3.7174    2.4324 H         1 RES1    0.0000
     27 H16        7.5079    4.0814   -0.7894 H         1 RES1    0.0000
     28 H17        6.3624    3.5745   -1.2454 H         1 RES1    0.0000
     29 H18        6.2290    5.2772   -1.3975 H         1 RES1    0.0000
     30 H19        3.9040    2.9505   -1.3156 H         1 RES1    0.0000
     31 H20        3.2404    4.0554   -1.8126 H         1 RES1    0.0000
     32 H21        2.3081    2.7426   -0.9589 H         1 RES1    0.0000
     33 N1         4.5423    4.7521    0.5145 N.3       1 RES1    0.0000
     34 O1         5.7119    1.5806    0.0099 O.3       1 RES1    0.0000
     35 O2         4.1852    5.9128    0.0111 O.2       1 RES1    0.0000
     36 C4B        7.3284   -0.5719    3.4129 C.3       1 RES1    0.0000
     37 C6B        8.7720   -1.0762    3.4626 C.3       1 RES1    0.0000
     38 H8B        6.6319   -1.2998    3.2802 H         1 RES1    0.0000
     39 H9B        7.3224   -0.1430    4.1807 H         1 RES1    0.0000
     40 C1B        9.0538   -2.1031    4.5455 C.3       1 RES1    0.0000
     41 H10B       8.9228   -1.4428    2.6546 H         1 RES1    0.0000
     42 H11B       9.3740   -0.2860    3.7070 H         1 RES1    0.0000
     43 C7B       10.5069   -2.5372    4.4257 C.3       1 RES1    0.0000
     44 C8B        8.2031   -3.3613    4.3479 C.3       1 RES1    0.0000
     45 O1B        8.7669   -1.5806    5.8371 O.3       1 RES1    0.0000
     46 C9B       10.9722   -3.6875    5.3425 C.3       1 RES1    0.0000
     47 H12B      11.0714   -1.8197    4.6543 H         1 RES1    0.0000
     48 H13B      10.6778   -2.7556    3.4615 H         1 RES1    0.0000
     49 C5B        8.4794   -4.5519    5.2407 C.3       1 RES1    0.0000
     50 H14B       7.2941   -3.0545    4.4964 H         1 RES1    0.0000
     51 H15B       8.3908   -3.7174    3.4147 H         1 RES1    0.0000
     52 H1B        9.3645   -0.8059    6.1570 H         1 RES1    0.0000
     53 C3B       12.2658   -4.3491    4.7636 C.3       1 RES1    0.0000
     54 C11B      11.2393   -3.2690    6.7773 C.3       1 RES1    0.0000
     55 N1B        9.9365   -4.7521    5.3325 N.3       1 RES1    0.0000
     56 C2B        7.8841   -5.8049    4.6110 C.3       1 RES1    0.0000
     57 C10B       7.9192   -4.4037    6.6569 C.3       1 RES1    0.0000
     58 H5B       12.0250   -4.7183    4.0579 H         1 RES1    0.0000
     59 H6B       12.6679   -3.7174    4.8998 H         1 RES1    0.0000
     60 H7B       12.7472   -5.0302    5.4553 H         1 RES1    0.0000
     61 H19B      10.5748   -2.9505    7.1627 H         1 RES1    0.0000
     62 H20B      11.2384   -4.0554    7.6597 H         1 RES1    0.0000
     63 H21B      12.1706   -2.7426    6.8060 H         1 RES1    0.0000
     64 O2B       10.2936   -5.9128    5.8360 O.2       1 RES1    0.0000
     65 H2B        7.3310   -5.5891    4.4262 H         1 RES1    0.0000
     66 H3B        8.2356   -6.0831    3.6661 H         1 RES1    0.0000
     67 H4B        7.8846   -6.7850    5.1864 H         1 RES1    0.0000
     68 H16B       6.9709   -4.0814    6.6364 H         1 RES1    0.0000
     69 H17B       8.1164   -3.5745    7.0925 H         1 RES1    0.0000
     70 H18B       8.2498   -5.2772    7.2445 H         1 RES1    0.0000
@<TRIPOS>BOND
     1    1    6 1
     2    2    5 1
     3    3    9 1
     4    4    6 1
     5    5    8 1
     6    6   21 1
     7    7    1 1
     8    8    1 1
     9    9    7 1
    10   10    5 1
    11   11    9 1
    12   12   34 1
    13   13    2 1
    14   14    2 1
    15   15    2 1
    16   16    3 1
    17   17    3 1
    18   18    3 1
    19   19    4 1
    20   20    4 1
    21   22    6 1
    22   23    7 1
    23   24    7 1
    24   25    8 1
    25   26    8 1
    26   27   10 1
    27   28   10 1
    28   29   10 1
    29   30   11 1
    30   31   11 1
    31   32   11 1
    32   33    5 1
    33   34    1 1
    34   35   33 1
    35   36    4 1
    36   37   36 1
    37   38   36 1
    38   39   36 1
    39   40   37 1
    40   41   37 1
    41   42   37 1
    42   43   40 1
    43   44   40 1
    44   45   40 1
    45   46   43 1
    46   47   43 1
    47   48   43 1
    48   49   44 1
    49   50   44 1
    50   51   44 1
    51   52   45 1
    52   53   46 1
    53   54   46 1
    54   55   46 1
    55   56   49 1
    56   57   49 1
    57   58   53 1
    58   59   53 1
    59   60   53 1
    60   61   54 1
    61   62   54 1
    62   63   54 1
    63   64   55 1
    64   65   56 1
    65   66   56 1
    66   67   56 1
    67   68   57 1
    68   69   57 1
    69   70   57 1
    70    9   33 1
    71   49   55 1
@<TRIPOS>SUBSTRUCTURE
     1 RES1 1

@<TRIPOS>CRYSIN
  16.2030   12.9980    6.0960  90.0000 106.4300  90.0000  14 2

