# MOL2 file generated by ConQuest
# Please check atom types

@<TRIPOS>MOLECULE
TMPCHO
    17    18     1
SMALL
NO_CHARGES
****
Generated from CSD

@<TRIPOS>ATOM
      1 N1         0.4988    7.1533    1.4207 N.2       1 RES1    0.0000
      2 O1         1.3328    6.6229    0.3743 O.3       1 RES1    0.0000
      3 C1         0.8378    6.8111    2.5914 C.2       1 RES1    0.0000
      4 C2         0.0312    7.3094    3.7443 C.3       1 RES1    0.0000
      5 C3         2.9108    6.4205    4.0181 C.3       1 RES1    0.0000
      6 C4         1.9644    5.8729    2.9311 C.3       1 RES1    0.0000
      7 C5         3.9142    7.4506    3.4895 C.ar      1 RES1    0.0000
      8 C6         4.1299    7.6694    2.1394 C.ar      1 RES1    0.0000
      9 C7         5.1075    8.5778    1.7041 C.ar      1 RES1    0.0000
     10 C8         5.8544    9.3009    2.6082 C.ar      1 RES1    0.0000
     11 C9         5.6511    9.0790    3.9571 C.ar      1 RES1    0.0000
     12 C10        4.7121    8.1640    4.3936 C.ar      1 RES1    0.0000
     13 C11        0.1177    8.2663    6.0630 C.3       1 RES1    0.0000
     14 C12        1.4578    9.2919    4.2609 C.3       1 RES1    0.0000
     15 C13        3.7456    5.2178    4.5407 C.3       1 RES1    0.0000
     16 C14        0.9441    7.9630    4.8169 C.3       1 RES1    0.0000
     17 C15        2.0452    6.9725    5.1733 C.3       1 RES1    0.0000
@<TRIPOS>BOND
     1    1    2 1
     2    3    1 2
     3    4    3 1
     4    5    6 1
     5    6    3 1
     6    7    5 1
     7    8    7 ar
     8    9    8 ar
     9   10    9 ar
    10   11   10 ar
    11   12    7 ar
    12   13   16 1
    13   14   16 1
    14   15    5 1
    15   16    4 1
    16   17    5 1
    17   11   12 ar
    18   16   17 1
@<TRIPOS>SUBSTRUCTURE
     1 RES1 1

@<TRIPOS>CRYSIN
  14.9800    7.4700   12.4100  90.0000 105.5000  90.0000  14 1

