# MOL2 file generated by ConQuest
# Please check atom types

@<TRIPOS>MOLECULE
TMPDAC01
    56    57     1
SMALL
NO_CHARGES
****
Generated from CSD

@<TRIPOS>ATOM
      1 C1         3.0068    0.6637    4.8718 C.3       1 RES1    0.0000
      2 C2         3.8362    0.7309    3.6130 C.2       1 RES1    0.0000
      3 C3         3.9901   -0.2789    2.7511 C.2       1 RES1    0.0000
      4 C4         3.2956   -1.5970    2.9702 C.3       1 RES1    0.0000
      5 C5         1.9561   -1.4383    3.7070 C.3       1 RES1    0.0000
      6 C6         2.0748    1.8810    4.9544 C.3       1 RES1    0.0000
      7 C7         3.9480    0.6343    6.0943 C.3       1 RES1    0.0000
      8 C8         0.9033   -0.7662    2.8141 C.3       1 RES1    0.0000
      9 C9         1.4752   -2.8051    4.1752 C.3       1 RES1    0.0000
     10 C10        4.8124   -0.1445    1.5853 C.1       1 RES1    0.0000
     11 C11        5.4644   -0.0647    0.5746 C.1       1 RES1    0.0000
     12 N1         2.1992   -0.5839    4.9038 N.3       1 RES1    0.0000
     13 O1         1.4154   -0.7124    5.9145 O.2       1 RES1    0.0000
     14 H1         4.2927    1.6466    3.4518 H         1 RES1    0.0000
     15 H2         3.1410   -2.0918    2.1186 H         1 RES1    0.0000
     16 H3         3.9629   -2.1927    3.5345 H         1 RES1    0.0000
     17 H4         1.3954    1.8566    4.1545 H         1 RES1    0.0000
     18 H5         2.6141    2.7051    4.9503 H         1 RES1    0.0000
     19 H6         1.5190    1.8818    5.8287 H         1 RES1    0.0000
     20 H7         4.6018    1.4702    6.0871 H         1 RES1    0.0000
     21 H8         3.4137    0.6469    6.9552 H         1 RES1    0.0000
     22 H9         4.5676   -0.2352    6.0664 H         1 RES1    0.0000
     23 H10        1.2279    0.1008    2.4080 H         1 RES1    0.0000
     24 H11        0.6012   -1.4198    2.0049 H         1 RES1    0.0000
     25 H12        0.0733   -0.5041    3.3174 H         1 RES1    0.0000
     26 H13        2.1524   -3.1756    4.8159 H         1 RES1    0.0000
     27 H14        0.5038   -2.7219    4.5886 H         1 RES1    0.0000
     28 H15        1.3449   -3.4192    3.3278 H         1 RES1    0.0000
     29 C11B       6.2056    0.0647   -0.5746 C.1       1 RES1    0.0000
     30 C10B       6.8576    0.1445   -1.5853 C.1       1 RES1    0.0000
     31 C3B        7.6799    0.2789   -2.7511 C.2       1 RES1    0.0000
     32 C2B        7.8338   -0.7309   -3.6130 C.2       1 RES1    0.0000
     33 C4B        8.3744    1.5970   -2.9702 C.3       1 RES1    0.0000
     34 C1B        8.6632   -0.6637   -4.8718 C.3       1 RES1    0.0000
     35 H1B        7.3773   -1.6466   -3.4518 H         1 RES1    0.0000
     36 C5B        9.7139    1.4383   -3.7070 C.3       1 RES1    0.0000
     37 H2B        8.5290    2.0918   -2.1186 H         1 RES1    0.0000
     38 H3B        7.7071    2.1927   -3.5345 H         1 RES1    0.0000
     39 C6B        9.5952   -1.8810   -4.9544 C.3       1 RES1    0.0000
     40 C7B        7.7220   -0.6343   -6.0943 C.3       1 RES1    0.0000
     41 N1B        9.4708    0.5839   -4.9038 N.3       1 RES1    0.0000
     42 C8B       10.7667    0.7662   -2.8141 C.3       1 RES1    0.0000
     43 C9B       10.1948    2.8051   -4.1752 C.3       1 RES1    0.0000
     44 H4B       10.2746   -1.8566   -4.1545 H         1 RES1    0.0000
     45 H5B        9.0559   -2.7051   -4.9503 H         1 RES1    0.0000
     46 H6B       10.1510   -1.8818   -5.8287 H         1 RES1    0.0000
     47 H7B        7.0682   -1.4702   -6.0871 H         1 RES1    0.0000
     48 H8B        8.2563   -0.6469   -6.9552 H         1 RES1    0.0000
     49 H9B        7.1024    0.2352   -6.0664 H         1 RES1    0.0000
     50 O1B       10.2546    0.7124   -5.9145 O.2       1 RES1    0.0000
     51 H10B      10.4421   -0.1008   -2.4080 H         1 RES1    0.0000
     52 H11B      11.0688    1.4198   -2.0049 H         1 RES1    0.0000
     53 H12B      11.5967    0.5041   -3.3174 H         1 RES1    0.0000
     54 H13B       9.5176    3.1756   -4.8159 H         1 RES1    0.0000
     55 H14B      11.1662    2.7219   -4.5886 H         1 RES1    0.0000
     56 H15B      10.3251    3.4192   -3.3278 H         1 RES1    0.0000
@<TRIPOS>BOND
     1    1    2 1
     2    2    3 2
     3    3    4 1
     4    4    5 1
     5    5    8 1
     6    6    1 1
     7    7    1 1
     8    8   23 1
     9    9    5 1
    10   10    3 1
    11   11   10 3
    12   12    1 1
    13   13   12 1
    14   14    2 1
    15   15    4 1
    16   16    4 1
    17   17    6 1
    18   18    6 1
    19   19    6 1
    20   20    7 1
    21   21    7 1
    22   22    7 1
    23   24    8 1
    24   25    8 1
    25   26    9 1
    26   27    9 1
    27   28    9 1
    28   29   11 1
    29   30   29 3
    30   31   30 1
    31   32   31 2
    32   33   31 1
    33   34   32 1
    34   35   32 1
    35   36   33 1
    36   37   33 1
    37   38   33 1
    38   39   34 1
    39   40   34 1
    40   41   34 1
    41   42   36 1
    42   43   36 1
    43   44   39 1
    44   45   39 1
    45   46   39 1
    46   47   40 1
    47   48   40 1
    48   49   40 1
    49   50   41 1
    50   51   42 1
    51   52   42 1
    52   53   42 1
    53   54   43 1
    54   55   43 1
    55   56   43 1
    56    5   12 1
    57   36   41 1
@<TRIPOS>SUBSTRUCTURE
     1 RES1 1

@<TRIPOS>CRYSIN
  11.6700    8.4010   10.3420  90.0000  92.1600  90.0000  14 1

