# MOL2 file generated by ConQuest
# Please check atom types

@<TRIPOS>MOLECULE
TMPPIO12
    29    29     1
SMALL
NO_CHARGES
****
Generated from CSD

@<TRIPOS>ATOM
      1 O1         1.8921    3.6980    1.4531 O.2       1 RES1    0.0000
      2 N1         2.6793    2.7075    1.2436 N.3       1 RES1    0.0000
      3 C1         3.7907    2.9284    0.3063 C.3       1 RES1    0.0000
      4 C2         4.4072    1.6031   -0.0746 C.3       1 RES1    0.0000
      5 C3         4.6738    0.6809    1.0619 C.3       1 RES1    0.0000
      6 C4         3.3811    0.3962    1.7571 C.3       1 RES1    0.0000
      7 C5         2.7049    1.6782    2.3372 C.3       1 RES1    0.0000
      8 C6         4.7933    3.8301    0.9611 C.3       1 RES1    0.0000
      9 C7         3.1827    3.6274   -0.9412 C.3       1 RES1    0.0000
     10 C8         3.4728    2.2088    3.5514 C.3       1 RES1    0.0000
     11 C9         1.2885    1.3959    2.7332 C.3       1 RES1    0.0000
     12 H1         4.9768    1.8171   -0.8952 H         1 RES1    0.0000
     13 H2         3.8248    1.2023   -0.9269 H         1 RES1    0.0000
     14 H3         5.5911    1.2000    1.6722 H         1 RES1    0.0000
     15 H4         5.3565   -0.2801    0.9984 H         1 RES1    0.0000
     16 H5         3.6627   -0.1184    2.8277 H         1 RES1    0.0000
     17 H6         2.4681   -0.3233    1.7563 H         1 RES1    0.0000
     18 H7         4.2301    4.6111    1.3206 H         1 RES1    0.0000
     19 H8         6.0007    3.6320    1.1301 H         1 RES1    0.0000
     20 H9         5.5143    4.2195    0.0357 H         1 RES1    0.0000
     21 H10        2.5769    4.3880   -0.7611 H         1 RES1    0.0000
     22 H11        2.2356    2.9079   -1.0865 H         1 RES1    0.0000
     23 H12        4.1128    3.7276   -1.5785 H         1 RES1    0.0000
     24 H13        2.8158    3.1993    3.7459 H         1 RES1    0.0000
     25 H14        4.3304    2.3568    2.6745 H         1 RES1    0.0000
     26 H15        3.1998    1.2866    4.3411 H         1 RES1    0.0000
     27 H16        0.4864    2.2361    3.0642 H         1 RES1    0.0000
     28 H17        0.6784    1.0292    1.8182 H         1 RES1    0.0000
     29 H18        1.1050    0.7105    3.4927 H         1 RES1    0.0000
@<TRIPOS>BOND
     1    1    2 1
     2    2    3 1
     3    3    4 1
     4    4    5 1
     5    5    6 1
     6    6    7 1
     7    7    2 1
     8    8    3 1
     9    9    3 1
    10   10    7 1
    11   11    7 1
    12   12    4 1
    13   13    4 1
    14   14    5 1
    15   15    5 1
    16   16    6 1
    17   17    6 1
    18   18    8 1
    19   19    8 1
    20   20    8 1
    21   21    9 1
    22   22    9 1
    23   23    9 1
    24   24   10 1
    25   25   10 1
    26   26   10 1
    27   27   11 1
    28   28   11 1
    29   29   11 1
@<TRIPOS>SUBSTRUCTURE
     1 RES1 1

@<TRIPOS>CRYSIN
  21.3320   22.7710    7.9362  90.0000  90.0000  90.0000  43 1

