# MOL2 file generated by ConQuest
# Please check atom types

@<TRIPOS>MOLECULE
TMPPIO11
    22    59     1
SMALL
NO_CHARGES
****
Generated from CSD

@<TRIPOS>ATOM
      1 C1        -3.8552  -10.8546   -1.2520 C.3       1 RES1    0.0000
      2 C2        -4.2976  -10.0804   -2.4309 C.3       1 RES1    0.0000
      3 C3        -2.7650  -10.1436   -0.5447 C.3       1 RES1    0.0000
      4 C4        -4.8348   -8.7058   -2.0732 C.3       1 RES1    0.0000
      5 C5        -4.7242   -8.7690   -2.0569 C.3       1 RES1    0.0000
      6 C6        -1.6432   -8.8006   -0.5528 C.3       1 RES1    0.0000
      7 C7        -3.8552   -8.8954   -3.2683 C.3       1 RES1    0.0000
      8 C8        -4.8506   -7.8210   -3.3170 C.3       1 RES1    0.0000
      9 C9        -5.9724   -7.9474   -2.3089 C.3       1 RES1    0.0000
     10 N1        -3.9500   -8.0580   -1.0732 N.2       1 RES1    0.0000
     11 O1        -4.1554   -6.8098   -0.8537 O.3       1 RES1    0.0000
     12 C1N       -4.0448  -10.8546   -0.7805 C.3       1 RES1    0.0000
     13 C2N       -3.6024  -10.0804    0.3984 C.3       1 RES1    0.0000
     14 C3N       -5.1350  -10.1436   -1.4878 C.3       1 RES1    0.0000
     15 C4N       -3.0652   -8.7058    0.0406 C.3       1 RES1    0.0000
     16 C5N       -3.1758   -8.7690    0.0244 C.3       1 RES1    0.0000
     17 C9N       -1.9276   -7.9474    0.2764 C.3       1 RES1    0.0000
     18 C7N       -4.0448   -8.8954    1.2358 C.3       1 RES1    0.0000
     19 C8N       -3.0494   -7.8210    1.2845 C.3       1 RES1    0.0000
     20 N1N       -3.9500   -8.0580   -0.9593 N.2       1 RES1    0.0000
     21 C6N       -6.2568   -8.8006   -1.4797 C.3       1 RES1    0.0000
     22 O1N       -3.7446   -6.8098   -1.1789 O.3       1 RES1    0.0000
@<TRIPOS>BOND
     1    1    2 1
     2    2    4 1
     3    3    1 1
     4    4    5 1
     5    5    2 1
     6    6    3 1
     7    7    2 1
     8    8    4 1
     9    9    4 1
    10   10    4 1
    11   11   10 1
    12   12    1 1
    13   13    3 1
    14   14    1 1
    15   15    3 1
    16   16    3 1
    17   17    6 1
    18   18   13 1
    19   19   15 1
    20   20    4 1
    21   21    4 1
    22   22   10 1
    23    2   14 1
    24    3   12 1
    25    4    7 1
    26    4   14 1
    27    5    8 1
    28    5   21 1
    29    5   14 1
    30    5    7 1
    31    5    9 1
    32    5   20 1
    33    5   10 1
    34    6   15 1
    35    6   16 1
    36    7    8 1
    37    8    9 1
    38    9   21 1
    39   10   16 1
    40   10   15 1
    41   10   20 1
    42   11   20 1
    43   11   22 1
    44   12   13 1
    45   12   14 1
    46   13   15 1
    47   13   16 1
    48   14   21 1
    49   15   18 1
    50   15   20 1
    51   15   16 1
    52   15   17 1
    53   16   19 1
    54   16   18 1
    55   16   20 1
    56   16   17 1
    57   17   19 1
    58   18   19 1
    59   20   22 1
@<TRIPOS>SUBSTRUCTURE
     1 RES1 1

@<TRIPOS>CRYSIN
  15.8000   15.8000    8.1300  90.0000  90.0000  90.0000 122 1

