# MOL2 file generated by ConQuest
# Please check atom types

@<TRIPOS>MOLECULE
TMPPIO13
    29    29     1
SMALL
NO_CHARGES
****
Generated from CSD

@<TRIPOS>ATOM
      1 O1         2.2912    0.0000    3.0120 O.2       1 RES1    0.0000
      2 N1         1.0588    0.0000    3.4130 N.3       1 RES1    0.0000
      3 C1         0.5165    1.3292    3.8412 C.3       1 RES1    0.0000
      4 C2        -1.0000    1.2353    4.0668 C.3       1 RES1    0.0000
      5 H1        -1.3048    2.0439    4.5498 H         1 RES1    0.0000
      6 H2        -1.4565    1.2178    3.1884 H         1 RES1    0.0000
      7 C3        -1.4047    0.0000    4.8621 C.3       1 RES1    0.0000
      8 H3        -2.3831    0.0000    5.0139 H         1 RES1    0.0000
      9 H4        -0.9518    0.0000    5.7425 H         1 RES1    0.0000
     10 C4         1.2457    1.7735    5.1180 C.3       1 RES1    0.0000
     11 H5         2.2142    1.7433    4.9682 H         1 RES1    0.0000
     12 H6         1.0104    1.1722    5.8548 H         1 RES1    0.0000
     13 H7         0.9788    2.6891    5.3451 H         1 RES1    0.0000
     14 C5         0.8030    2.3229    2.7069 C.3       1 RES1    0.0000
     15 H8         1.7665    2.3458    2.5280 H         1 RES1    0.0000
     16 H9         0.4986    3.2161    2.9710 H         1 RES1    0.0000
     17 H10        0.3272    2.0410    1.8978 H         1 RES1    0.0000
     18 C1A        0.5165   -1.3292    3.8412 C.3       1 RES1    0.0000
     19 C2A       -1.0000   -1.2353    4.0668 C.3       1 RES1    0.0000
     20 H1A       -1.3048   -2.0439    4.5498 H         1 RES1    0.0000
     21 H2A       -1.4565   -1.2178    3.1884 H         1 RES1    0.0000
     22 C4A        1.2457   -1.7735    5.1180 C.3       1 RES1    0.0000
     23 H5A        2.2142   -1.7433    4.9682 H         1 RES1    0.0000
     24 H6A        1.0104   -1.1722    5.8548 H         1 RES1    0.0000
     25 H7A        0.9788   -2.6891    5.3451 H         1 RES1    0.0000
     26 C5A        0.8030   -2.3229    2.7069 C.3       1 RES1    0.0000
     27 H8A        1.7665   -2.3458    2.5280 H         1 RES1    0.0000
     28 H9A        0.4986   -3.2161    2.9710 H         1 RES1    0.0000
     29 H10A       0.3272   -2.0410    1.8978 H         1 RES1    0.0000
@<TRIPOS>BOND
     1    1    2 1
     2    2    3 1
     3    3    4 1
     4    4    5 1
     5    6    4 1
     6    7    4 1
     7    8    7 1
     8    9    7 1
     9   10    3 1
    10   11   10 1
    11   12   10 1
    12   13   10 1
    13   14    3 1
    14   15   14 1
    15   16   14 1
    16   17   14 1
    17   18    2 1
    18   19    7 1
    19   20   19 1
    20   21   19 1
    21   22   18 1
    22   23   22 1
    23   24   22 1
    24   25   22 1
    25   26   18 1
    26   27   26 1
    27   28   26 1
    28   29   26 1
    29   18   19 1
@<TRIPOS>SUBSTRUCTURE
     1 RES1 1

@<TRIPOS>CRYSIN
   6.3990   14.2430    5.7570  90.0000 117.0400  90.0000   8 1

