# MOL2 file generated by ConQuest
# Please check atom types

@<TRIPOS>MOLECULE
TMPPIO01
    29    29     1
SMALL
NO_CHARGES
****
Generated from CSD

@<TRIPOS>ATOM
      1 C1         1.3351   -0.0000   -0.3540 C.3       1 RES1    0.0000
      2 C2         1.7785    1.2120   -1.1207 C.3       1 RES1    0.0000
      3 C3         3.2896    1.3168   -1.2877 C.3       1 RES1    0.0000
      4 C4         3.9621    1.7462    0.0216 C.3       1 RES1    0.0000
      5 C5         3.6119    2.3163   -2.3996 C.3       1 RES1    0.0000
      6 H1         1.7025    0.0000    0.5447 H         1 RES1    0.0000
      7 H2         0.4234   -0.0000   -0.1901 H         1 RES1    0.0000
      8 H3         1.4543    1.2206   -1.9731 H         1 RES1    0.0000
      9 H4         1.5409    1.8955   -0.6885 H         1 RES1    0.0000
     10 H5         3.5874    2.5704    0.1182 H         1 RES1    0.0000
     11 H6         4.7123    1.8237   -0.0719 H         1 RES1    0.0000
     12 H7         3.6885    1.1919    0.8530 H         1 RES1    0.0000
     13 H8         3.1885    1.9673   -3.2475 H         1 RES1    0.0000
     14 H9         4.4567    2.3550   -2.6360 H         1 RES1    0.0000
     15 H10        3.2014    3.0443   -2.1992 H         1 RES1    0.0000
     16 N1         3.8303   -0.0000   -1.6972 N.3       1 RES1    0.0000
     17 O1         5.0642   -0.0000   -2.0918 O.2       1 RES1    0.0000
     18 C2B        1.7785   -1.2120   -1.1207 C.3       1 RES1    0.0000
     19 C3B        3.2896   -1.3168   -1.2877 C.3       1 RES1    0.0000
     20 H3B        1.4543   -1.2206   -1.9731 H         1 RES1    0.0000
     21 H4B        1.5409   -1.8955   -0.6885 H         1 RES1    0.0000
     22 C4B        3.9621   -1.7462    0.0216 C.3       1 RES1    0.0000
     23 C5B        3.6119   -2.3163   -2.3996 C.3       1 RES1    0.0000
     24 H5B        3.5874   -2.5704    0.1182 H         1 RES1    0.0000
     25 H6B        4.7123   -1.8237   -0.0719 H         1 RES1    0.0000
     26 H7B        3.6885   -1.1919    0.8530 H         1 RES1    0.0000
     27 H8B        3.1885   -1.9673   -3.2475 H         1 RES1    0.0000
     28 H9B        4.4567   -2.3550   -2.6360 H         1 RES1    0.0000
     29 H10B       3.2014   -3.0443   -2.1992 H         1 RES1    0.0000
@<TRIPOS>BOND
     1    1    2 1
     2    2    3 1
     3    3    4 1
     4    4   10 1
     5    5    3 1
     6    6    1 1
     7    7    1 1
     8    8    2 1
     9    9    2 1
    10   11    4 1
    11   12    4 1
    12   13    5 1
    13   14    5 1
    14   15    5 1
    15   16    3 1
    16   17   16 1
    17   18    1 1
    18   19   16 1
    19   20   18 1
    20   21   18 1
    21   22   19 1
    22   23   19 1
    23   24   22 1
    24   25   22 1
    25   26   22 1
    26   27   23 1
    27   28   23 1
    28   29   23 1
    29   18   19 1
@<TRIPOS>SUBSTRUCTURE
     1 RES1 1

@<TRIPOS>CRYSIN
   6.6180   14.3600    5.8790  90.0000 119.0700  90.0000   8 1

