# MOL2 file generated by ConQuest
# Please check atom types

@<TRIPOS>MOLECULE
TMXPYP
    27    27     1
SMALL
NO_CHARGES
****
Generated from CSD

@<TRIPOS>ATOM
      1 N1         5.2872    2.3181    2.5064 N.3       1 RES1    0.0000
      2 C1         5.2791    2.2893    1.0166 C.3       1 RES1    0.0000
      3 C2         6.7646    2.0256    0.7353 C.3       1 RES1    0.0000
      4 C3         7.4950    2.6972    1.9084 C.3       1 RES1    0.0000
      5 C4         6.6184    2.4256    3.1155 C.3       1 RES1    0.0000
      6 O1         4.2026    2.3161    3.1797 O.2       1 RES1    0.0000
      7 C5         4.3688    1.1610    0.5448 C.3       1 RES1    0.0000
      8 C6         4.7812    3.6493    0.5471 C.3       1 RES1    0.0000
      9 C7         7.2927    2.4823   -0.6061 C.3       1 RES1    0.0000
     10 O2         6.6696    1.7381   -1.6279 O.3       1 RES1    0.0000
     11 C8         6.6424    3.5757    4.1218 C.3       1 RES1    0.0000
     12 C9         6.9493    1.0934    3.7903 C.3       1 RES1    0.0000
     13 H1         6.0101    3.4026    5.0143 H         1 RES1    0.0000
     14 H2         7.6285    3.6821    4.6024 H         1 RES1    0.0000
     15 H3         6.3440    4.5308    3.6581 H         1 RES1    0.0000
     16 H4         6.3349    0.8695    4.6482 H         1 RES1    0.0000
     17 H5         7.9428    1.1382    4.2384 H         1 RES1    0.0000
     18 H6         6.9374    0.2447    3.0793 H         1 RES1    0.0000
     19 H7         3.2825    1.3312    0.7302 H         1 RES1    0.0000
     20 H8         4.3418    1.1043   -0.5596 H         1 RES1    0.0000
     21 H9         4.7003    0.1572    0.8667 H         1 RES1    0.0000
     22 H10        3.7017    3.8702    0.7397 H         1 RES1    0.0000
     23 H11        4.7609    3.6433   -0.5500 H         1 RES1    0.0000
     24 H12        5.4162    4.4930    0.8830 H         1 RES1    0.0000
     25 H13        6.9456    0.9253    0.8261 H         1 RES1    0.0000
     26 H14        8.4909    2.2544    2.0458 H         1 RES1    0.0000
     27 H15        7.5396    3.7816    1.7091 H         1 RES1    0.0000
@<TRIPOS>BOND
     1    1    2 1
     2    2    3 1
     3    3    4 1
     4    4    5 1
     5    5    1 1
     6    6    1 1
     7    7    2 1
     8    8    2 1
     9    9    3 1
    10   10    9 1
    11   11    5 1
    12   12    5 1
    13   13   11 1
    14   14   11 1
    15   15   11 1
    16   16   12 1
    17   17   12 1
    18   18   12 1
    19   19    7 1
    20   20    7 1
    21   21    7 1
    22   22    8 1
    23   23    8 1
    24   24    8 1
    25   25    3 1
    26   26    4 1
    27   27    4 1
@<TRIPOS>SUBSTRUCTURE
     1 RES1 1

@<TRIPOS>CRYSIN
   6.7660    9.9490    8.1210  90.0000 114.6200  90.0000   4 1

