# MOL2 file generated by ConQuest
# Please check atom types

@<TRIPOS>MOLECULE
TMXPYO
    26    26     1
SMALL
NO_CHARGES
****
Generated from CSD

@<TRIPOS>ATOM
      1 C1         1.3805   -1.1072    5.5230 C.3       1 RES1    0.0000
      2 C2         3.7931   -1.7804    5.6067 C.3       1 RES1    0.0000
      3 C3         2.7540   -1.9453    2.2889 C.3       1 RES1    0.0000
      4 C4         2.8525   -3.3283    2.9218 C.3       1 RES1    0.0000
      5 C5         2.1528   -3.2115    4.2782 C.3       1 RES1    0.0000
      6 C6         2.5052   -1.8198    4.7800 C.3       1 RES1    0.0000
      7 C7         1.4173   -1.7016    1.5599 C.3       1 RES1    0.0000
      8 C8         3.9454   -1.6248    1.4038 C.3       1 RES1    0.0000
      9 H1         1.4930   -0.7346    1.0455 H         1 RES1    0.0000
     10 H2         3.6926   -2.3840    6.5100 H         1 RES1    0.0000
     11 H3         4.0409   -0.7546    5.8827 H         1 RES1    0.0000
     12 H4         4.6281   -2.1904    5.0045 H         1 RES1    0.0000
     13 H5         3.9215   -3.5661    3.1086 H         1 RES1    0.0000
     14 H6         2.5579   -3.9534    4.9626 H         1 RES1    0.0000
     15 H7         1.0749   -3.2789    4.1402 H         1 RES1    0.0000
     16 H8         0.6071   -1.6561    2.2862 H         1 RES1    0.0000
     17 H9         1.2541   -2.4241    0.8225 H         1 RES1    0.0000
     18 H10        4.9765   -1.7296    1.9795 H         1 RES1    0.0000
     19 H11        3.8618   -0.5610    1.0594 H         1 RES1    0.0000
     20 H12        3.9513   -2.2305    0.5158 H         1 RES1    0.0000
     21 H13        1.6522   -0.0668    5.6875 H         1 RES1    0.0000
     22 H14        1.1944   -1.5760    6.4821 H         1 RES1    0.0000
     23 H15        0.4578   -1.1353    4.9348 H         1 RES1    0.0000
     24 N1         2.7888   -1.1052    3.5045 N.3       1 RES1    0.0000
     25 O1         3.0506    0.1309    3.4585 O.2       1 RES1    0.0000
     26 O2         2.2932   -4.3147    2.1022 O.3       1 RES1    0.0000
@<TRIPOS>BOND
     1    1    6 1
     2    2    6 1
     3    3    4 1
     4    4    5 1
     5    5    6 1
     6    6   24 1
     7    7    3 1
     8    8    3 1
     9    9    7 1
    10   10    2 1
    11   11    2 1
    12   12    2 1
    13   13    4 1
    14   14    5 1
    15   15    5 1
    16   16    7 1
    17   17    7 1
    18   18    8 1
    19   19    8 1
    20   20    8 1
    21   21    1 1
    22   22    1 1
    23   23    1 1
    24   24    3 1
    25   25   24 1
    26   26    4 1
@<TRIPOS>SUBSTRUCTURE
     1 RES1 1

@<TRIPOS>CRYSIN
   9.9530    6.6780   13.9400  90.0000  90.0000  90.0000  19 1

