# MOL2 file generated by ConQuest
# Please check atom types

@<TRIPOS>MOLECULE
TMXPIB
    26    27     1
SMALL
NO_CHARGES
****
Generated from CSD

@<TRIPOS>ATOM
      1 C1         2.9223    0.4642   -3.7728 C.3       1 RES1    0.0000
      2 C10        0.6541    3.5950   -4.1978 C.3       1 RES1    0.0000
      3 C11        0.8421    5.0984   -4.4865 C.3       1 RES1    0.0000
      4 C2         1.6748    1.3619   -3.7684 C.3       1 RES1    0.0000
      5 C3         1.9866    2.8115   -4.2578 C.3       1 RES1    0.0000
      6 C4         2.5580    2.7083   -5.6504 C.3       1 RES1    0.0000
      7 C5         3.8235    1.8568   -5.7417 C.3       1 RES1    0.0000
      8 C6         4.1206    1.5682   -7.1978 C.3       1 RES1    0.0000
      9 C7         5.0419    2.5778   -5.1463 C.3       1 RES1    0.0000
     10 C8         2.4226   -1.0151   -3.6398 C.3       1 RES1    0.0000
     11 C9         3.8290    0.7232   -2.5870 C.3       1 RES1    0.0000
     12 N1         3.6224    0.5915   -5.0315 N.3       1 RES1    0.0000
     13 O1         4.4528   -0.3742   -5.3132 O.2       1 RES1    0.0000
     14 C11B      -0.4742    5.8754   -4.2065 C.3       1 RES1    0.0000
     15 C10B      -0.2863    7.3788   -4.4952 C.3       1 RES1    0.0000
     16 C3B       -1.6188    8.1623   -4.4352 C.3       1 RES1    0.0000
     17 C2B       -1.3069    9.6120   -4.9246 C.3       1 RES1    0.0000
     18 C4B       -2.1901    8.2655   -3.0425 C.3       1 RES1    0.0000
     19 C1B       -2.5545   10.5096   -4.9202 C.3       1 RES1    0.0000
     20 C5B       -3.4556    9.1171   -2.9513 C.3       1 RES1    0.0000
     21 C8B       -2.0547   11.9889   -5.0532 C.3       1 RES1    0.0000
     22 C9B       -3.4611   10.2507   -6.1060 C.3       1 RES1    0.0000
     23 N1B       -3.2546   10.3823   -3.6615 N.3       1 RES1    0.0000
     24 C6B       -3.7528    9.4057   -1.4952 C.3       1 RES1    0.0000
     25 C7B       -4.6740    8.3961   -3.5467 C.3       1 RES1    0.0000
     26 O1B       -4.0849   11.3480   -3.3798 O.2       1 RES1    0.0000
@<TRIPOS>BOND
     1    1    4 1
     2    2    3 1
     3    3   14 1
     4    4    5 1
     5    5    2 1
     6    6    5 1
     7    7    6 1
     8    8    7 1
     9    9    7 1
    10   10    1 1
    11   11    1 1
    12   12    1 1
    13   13   12 1
    14   14   15 1
    15   15   16 1
    16   16   17 1
    17   17   19 1
    18   18   16 1
    19   19   21 1
    20   20   18 1
    21   22   19 1
    22   23   19 1
    23   24   20 1
    24   25   20 1
    25   26   23 1
    26    7   12 1
    27   20   23 1
@<TRIPOS>SUBSTRUCTURE
     1 RES1 1

@<TRIPOS>CRYSIN
  11.7540   10.9800    8.6930  90.0000  90.0000  88.0800  14 3

