# MOL2 file generated by ConQuest
# Please check atom types

@<TRIPOS>MOLECULE
TNBENZ13
    18    18     1
SMALL
NO_CHARGES
****
Generated from CSD

@<TRIPOS>ATOM
      1 O1        12.6975   -0.0441    3.4599 O.2       1 RES1    0.0000
      2 O2        12.4206   -1.6059    4.8969 O.2       1 RES1    0.0000
      3 O3         7.9324   -2.9113    6.1603 O.2       1 RES1    0.0000
      4 O4         6.3134   -1.5160    5.8258 O.2       1 RES1    0.0000
      5 O5         9.0015    2.7419    2.2143 O.2       1 RES1    0.0000
      6 O6         7.0050    2.2388    2.8415 O.2       1 RES1    0.0000
      7 N1        11.9931   -0.7377    4.1639 N.pl3     1 RES1    0.0000
      8 N2         7.4623   -1.8720    5.6961 N.pl3     1 RES1    0.0000
      9 N3         8.2006    2.0294    2.7900 N.pl3     1 RES1    0.0000
     10 C1        10.5438   -0.4836    4.1764 C.ar      1 RES1    0.0000
     11 C2         9.7239   -1.3043    4.9162 C.ar      1 RES1    0.0000
     12 H1        10.0717   -2.0420    5.4038 H         1 RES1    0.0000
     13 C3         8.3735   -1.0113    4.9218 C.ar      1 RES1    0.0000
     14 C4         7.8411    0.0687    4.2394 C.ar      1 RES1    0.0000
     15 H2         6.9117    0.2644    4.2688 H         1 RES1    0.0000
     16 C5         8.7184    0.8487    3.5155 C.ar      1 RES1    0.0000
     17 C6        10.0731    0.6061    3.4538 C.ar      1 RES1    0.0000
     18 H3        10.6566    1.1555    2.9438 H         1 RES1    0.0000
@<TRIPOS>BOND
     1    1    7 2
     2    2    7 2
     3    3    8 2
     4    4    8 2
     5    5    9 2
     6    6    9 2
     7    7   10 1
     8    8   13 1
     9    9   16 1
    10   10   11 ar
    11   11   12 1
    12   13   11 ar
    13   14   13 ar
    14   15   14 1
    15   16   14 ar
    16   17   10 ar
    17   18   17 1
    18   16   17 ar
@<TRIPOS>SUBSTRUCTURE
     1 RES1 1

@<TRIPOS>CRYSIN
  12.8960    5.7230   11.2870  90.0000  98.1900  90.0000  14 1

