# MOL2 file generated by ConQuest
# Please check atom types

@<TRIPOS>MOLECULE
TNBENZ12
    36    36     2
SMALL
NO_CHARGES
****
Generated from CSD

@<TRIPOS>ATOM
      1 O1         6.0124    6.6694    6.9184 O.2       1 RES1    0.0000
      2 N1         6.4698    7.2592    7.8914 N.pl3     1 RES1    0.0000
      3 O2         9.6912    9.1940   11.1762 O.2       1 RES1    0.0000
      4 C1         9.8297    7.7527    9.3739 C.ar      1 RES1    0.0000
      5 N2        10.4164    8.4811   10.5173 N.pl3     1 RES1    0.0000
      6 C2         8.4677    7.8791    9.1706 C.ar      1 RES1    0.0000
      7 H1         7.9396    8.4154    9.7168 H         1 RES1    0.0000
      8 O3         5.8125    7.9016    8.6957 O.2       1 RES1    0.0000
      9 C3        10.6395    6.9736    8.5907 C.ar      1 RES1    0.0000
     10 H2        11.5506    6.8983    8.7603 H         1 RES1    0.0000
     11 O4        11.6157    8.3392   10.7177 O.2       1 RES1    0.0000
     12 C4         7.9313    7.1661    8.1129 C.ar      1 RES1    0.0000
     13 C5         8.6862    6.3740    7.2729 C.ar      1 RES1    0.0000
     14 H3         8.3032    5.9093    6.5649 H         1 RES1    0.0000
     15 O5        12.0759    5.3602    6.9714 O.2       1 RES1    0.0000
     16 N3        10.8942    5.4632    6.6776 N.pl3     1 RES1    0.0000
     17 C6        10.0435    6.3041    7.5388 C.ar      1 RES1    0.0000
     18 O6        10.3885    4.9331    5.7076 O.2       1 RES1    0.0000
     19 N4         6.0486    0.2525    3.8860 N.pl3     2 RES2    0.0000
     20 O7         3.1628   -3.2959    5.9060 O.2       2 RES2    0.0000
     21 O8         2.9007   -4.7997    4.3792 O.2       2 RES2    0.0000
     22 N5         3.3367   -3.7321    4.7857 N.pl3     2 RES2    0.0000
     23 O9         6.1081    0.4540    5.0930 O.2       2 RES2    0.0000
     24 O10        4.6439   -3.9769   -0.0857 O.2       2 RES2    0.0000
     25 N6         5.1673   -2.9430    0.2794 N.pl3     2 RES2    0.0000
     26 C7         5.0185   -2.5471    1.7022 C.ar      2 RES2    0.0000
     27 C8         5.6024   -1.3641    2.1000 C.ar      2 RES2    0.0000
     28 H4         6.0867   -0.8335    1.5085 H         2 RES2    0.0000
     29 C9         4.7136   -1.7616    4.3281 C.ar      2 RES2    0.0000
     30 H5         4.6150   -1.4984    5.2153 H         2 RES2    0.0000
     31 C10        4.2775   -3.3598    2.5373 C.ar      2 RES2    0.0000
     32 H6         3.8899   -4.1506    2.2377 H         2 RES2    0.0000
     33 O11        5.8134   -2.1880   -0.4528 O.2       2 RES2    0.0000
     34 C11        5.4304   -1.0084    3.4236 C.ar      2 RES2    0.0000
     35 C12        4.1465   -2.9309    3.8465 C.ar      2 RES2    0.0000
     36 O12        6.4586    1.0268    3.0392 O.2       2 RES2    0.0000
@<TRIPOS>BOND
     1    1    2 2
     2    2    8 2
     3    3    5 2
     4    4    5 1
     5    5   11 2
     6    6    4 ar
     7    7    6 1
     8    9    4 ar
     9   10    9 1
    10   12    2 1
    11   13   12 ar
    12   14   13 1
    13   15   16 2
    14   16   17 1
    15   17    9 ar
    16   18   16 2
    17   19   23 2
    18   20   22 2
    19   21   22 2
    20   22   35 1
    21   24   25 2
    22   25   26 1
    23   26   27 ar
    24   27   28 1
    25   29   30 1
    26   31   26 ar
    27   32   31 1
    28   33   25 2
    29   34   19 1
    30   35   29 ar
    31   36   19 2
    32    6   12 ar
    33   13   17 ar
    34   27   34 ar
    35   29   34 ar
    36   31   35 ar
@<TRIPOS>SUBSTRUCTURE
     1 RES1 1
     2 RES2 19

@<TRIPOS>CRYSIN
   9.2970   18.7300    9.6330  90.0000  90.0000  90.0000  29 1

