# MOL2 file generated by ConQuest
# Please check atom types

@<TRIPOS>MOLECULE
TNBENZ11
    36    36     2
SMALL
NO_CHARGES
****
Generated from CSD

@<TRIPOS>ATOM
      1 N1         3.4665   -0.3564   14.0916 N.pl3     1 RES1    0.0000
      2 N2         3.6326    0.3118    9.2420 N.pl3     1 RES1    0.0000
      3 N3         6.4685    2.9788   12.2092 N.pl3     1 RES1    0.0000
      4 O1         3.8932   -0.0542   15.1794 O.2       1 RES1    0.0000
      5 O2         2.5698   -1.1543   13.9194 O.2       1 RES1    0.0000
      6 O3         2.8520   -0.6188    9.1211 O.2       1 RES1    0.0000
      7 O4         4.0392    1.0052    8.3191 O.2       1 RES1    0.0000
      8 O5         7.2375    2.8645   13.1496 O.2       1 RES1    0.0000
      9 O6         6.4496    3.9191   11.4313 O.2       1 RES1    0.0000
     10 C1         4.0492    0.3012   12.9073 C.ar      1 RES1    0.0000
     11 C2         3.5747   -0.0242   11.6626 C.ar      1 RES1    0.0000
     12 H1         2.9126   -0.6953   11.5471 H         1 RES1    0.0000
     13 C3         4.0996    0.6585   10.5898 C.ar      1 RES1    0.0000
     14 C4         5.0411    1.6560   10.7265 C.ar      1 RES1    0.0000
     15 H2         5.3633    2.1460    9.9785 H         1 RES1    0.0000
     16 C5         5.4917    1.9000   12.0005 C.ar      1 RES1    0.0000
     17 C6         5.0298    1.2386   13.1139 C.ar      1 RES1    0.0000
     18 H3         5.3746    1.4168   13.9806 H         1 RES1    0.0000
     19 N4        13.1950    1.4042   19.8901 N.pl3     2 RES2    0.0000
     20 N5        12.3013   -2.2477   16.7561 N.pl3     2 RES2    0.0000
     21 N6        16.8741   -1.1204   17.9261 N.pl3     2 RES2    0.0000
     22 O7        14.0144    1.9939   20.5616 O.2       2 RES2    0.0000
     23 O8        12.0080    1.6637   19.8589 O.2       2 RES2    0.0000
     24 O9        11.1454   -1.9087   16.7190 O.2       2 RES2    0.0000
     25 O10       12.7294   -3.2461   16.1826 O.2       2 RES2    0.0000
     26 O11       17.2238   -2.1276   17.3169 O.2       2 RES2    0.0000
     27 O12       17.6310   -0.3041   18.4047 O.2       2 RES2    0.0000
     28 C7        13.6833    0.3138   19.0161 C.ar      2 RES2    0.0000
     29 C8        12.7720   -0.4280   18.3185 C.ar      2 RES2    0.0000
     30 H4        11.8406   -0.2557   18.3884 H         2 RES2    0.0000
     31 C9        13.2503   -1.4284   17.5111 C.ar      2 RES2    0.0000
     32 C10       14.5783   -1.6908   17.3693 C.ar      2 RES2    0.0000
     33 H5        14.8929   -2.3832   16.8009 H         2 RES2    0.0000
     34 C11       15.4317   -0.8977   18.0881 C.ar      2 RES2    0.0000
     35 C12       15.0264    0.1056   18.9242 C.ar      2 RES2    0.0000
     36 H6        15.6494    0.6304   19.4144 H         2 RES2    0.0000
@<TRIPOS>BOND
     1    1    4 2
     2    2    6 2
     3    3    8 2
     4    5    1 2
     5    7    2 2
     6    9    3 2
     7   10    1 1
     8   11   10 ar
     9   12   11 1
    10   13    2 1
    11   14   13 ar
    12   15   14 1
    13   16    3 1
    14   17   10 ar
    15   18   17 1
    16   19   22 2
    17   20   24 2
    18   21   26 2
    19   23   19 2
    20   25   20 2
    21   27   21 2
    22   28   19 1
    23   29   28 ar
    24   30   29 1
    25   31   20 1
    26   32   31 ar
    27   33   32 1
    28   34   21 1
    29   35   28 ar
    30   36   35 1
    31   11   13 ar
    32   14   16 ar
    33   16   17 ar
    34   29   31 ar
    35   32   34 ar
    36   34   35 ar
@<TRIPOS>SUBSTRUCTURE
     1 RES1 1
     2 RES2 19

@<TRIPOS>CRYSIN
  12.5870    9.6840   26.8600  90.0000  90.0000  90.0000  61 1

