# MOL2 file generated by ConQuest
# Please check atom types

@<TRIPOS>MOLECULE
TNBENZ10
    36    36     2
SMALL
NO_CHARGES
****
Generated from CSD

@<TRIPOS>ATOM
      1 C1         0.7139    2.8368    2.1935 C.ar      1 RES1    0.0000
      2 C2        -0.1007    7.9796    2.4512 C.ar      2 RES2    0.0000
      3 C3        -0.3051    7.8773    1.0961 C.ar      2 RES2    0.0000
      4 C4         0.4626    8.5642    0.2000 C.ar      2 RES2    0.0000
      5 C5         1.7311    2.7021    1.2641 C.ar      1 RES1    0.0000
      6 C6         1.9844    1.4251    0.8243 C.ar      1 RES1    0.0000
      7 C7         1.2939    0.3125    1.2769 C.ar      1 RES1    0.0000
      8 C8         0.3531    0.5334    2.2627 C.ar      1 RES1    0.0000
      9 C9         0.0039    1.7861    2.7243 C.ar      1 RES1    0.0000
     10 C10        1.4533    9.3805    0.6589 C.ar      2 RES2    0.0000
     11 C11        1.7291    9.5502    2.0115 C.ar      2 RES2    0.0000
     12 C12        0.9066    8.8309    2.8730 C.ar      2 RES2    0.0000
     13 H1         2.2377    3.5911    0.8654 H         1 RES1    0.0000
     14 H2         1.5374   -0.6681    0.9448 H         1 RES1    0.0000
     15 H3        -0.7051    1.9181    3.4896 H         1 RES1    0.0000
     16 H4         2.4792   10.1914    2.3461 H         2 RES2    0.0000
     17 H5        -0.7071    7.3896    3.2127 H         2 RES2    0.0000
     18 H6         0.2621    8.4645   -0.9436 H         2 RES2    0.0000
     19 N1         0.3491    4.2080    2.6576 N.pl3     1 RES1    0.0000
     20 N2         3.0562    1.2177   -0.1679 N.pl3     1 RES1    0.0000
     21 N3        -0.3296   -0.6304    2.8473 N.pl3     1 RES1    0.0000
     22 N4         2.2856   10.1348   -0.3051 N.pl3     2 RES2    0.0000
     23 N5         1.1628    9.0168    4.3396 N.pl3     2 RES2    0.0000
     24 N6        -1.3506    6.9936    0.6436 N.pl3     2 RES2    0.0000
     25 O1        -0.5878    4.3239    3.4627 O.2       1 RES1    0.0000
     26 O2         0.3462    8.5534    5.0690 O.2       2 RES2    0.0000
     27 O3        -1.9932    6.3659    1.4474 O.2       2 RES2    0.0000
     28 O4        -1.6117    6.9802   -0.5166 O.2       2 RES2    0.0000
     29 O5         1.0445    5.0944    2.2127 O.2       1 RES1    0.0000
     30 O6         3.9677    2.0232   -0.1833 O.2       1 RES1    0.0000
     31 O7         2.9663    0.2910   -0.8910 O.2       1 RES1    0.0000
     32 O8         0.0333   -1.7134    2.4691 O.2       1 RES1    0.0000
     33 O9        -1.1423   -0.4337    3.6999 O.2       1 RES1    0.0000
     34 O10        1.9638   10.1241   -1.4602 O.2       2 RES2    0.0000
     35 O11        3.2822   10.7113    0.1269 O.2       2 RES2    0.0000
     36 O12        2.1819    9.6257    4.6588 O.2       2 RES2    0.0000
@<TRIPOS>BOND
     1    1    5 ar
     2    2    3 ar
     3    3    4 ar
     4    4   10 ar
     5    5    6 ar
     6    6    7 ar
     7    7    8 ar
     8    8    9 ar
     9    9    1 ar
    10   10   11 ar
    11   11   12 ar
    12   12    2 ar
    13   13    5 1
    14   14    7 1
    15   15    9 1
    16   16   11 1
    17   17    2 1
    18   18    4 1
    19   19    1 1
    20   20    6 1
    21   21    8 1
    22   22   10 1
    23   23   12 1
    24   24    3 1
    25   25   19 2
    26   26   23 2
    27   27   24 2
    28   28   24 2
    29   29   19 2
    30   30   20 2
    31   31   20 2
    32   32   21 2
    33   33   21 2
    34   34   22 2
    35   35   22 2
    36   36   23 2
@<TRIPOS>SUBSTRUCTURE
     1 RES1 1
     2 RES2 2

@<TRIPOS>CRYSIN
   9.7800   26.9400   12.8200  90.0000  90.0000  90.0000  61 1

