# MOL2 file generated by ConQuest
# Please check atom types

@<TRIPOS>MOLECULE
TNDPAM02
    30    31     1
SMALL
NO_CHARGES
****
Generated from CSD

@<TRIPOS>ATOM
      1 N1         0.7405    5.9058    3.3665 N.pl3     1 RES1    0.0000
      2 N2         2.7220    7.9846    2.9519 N.pl3     1 RES1    0.0000
      3 N3         4.8837    5.2306   -0.4008 N.pl3     1 RES1    0.0000
      4 N4         0.7314    3.6201    1.4597 N.pl3     1 RES1    0.0000
      5 O1         1.6975    8.3579    3.5264 O.2       1 RES1    0.0000
      6 O2         5.7924    6.0502   -0.4054 O.2       1 RES1    0.0000
      7 O3         1.0560    2.4524    1.2599 O.2       1 RES1    0.0000
      8 O4         3.7648    8.6196    2.9828 O.2       1 RES1    0.0000
      9 O5         4.8312    4.2554   -1.1542 O.2       1 RES1    0.0000
     10 O6        -0.4303    4.0171    1.5236 O.2       1 RES1    0.0000
     11 C1         1.6798    5.7540    2.4106 C.ar      1 RES1    0.0000
     12 H1         0.7540    6.7385    3.7115 H         1 RES1    0.0000
     13 C2         2.6900    6.7441    2.1810 C.ar      1 RES1    0.0000
     14 C3         3.7295    6.5794    1.2894 C.ar      1 RES1    0.0000
     15 H2         4.3851    7.2588    1.1811 H         1 RES1    0.0000
     16 C4         3.8021    5.4089    0.5559 C.ar      1 RES1    0.0000
     17 C5         2.8394    4.4251    0.6783 C.ar      1 RES1    0.0000
     18 H3         2.8948    3.6298    0.1623 H         1 RES1    0.0000
     19 C6         1.7988    4.6146    1.5584 C.ar      1 RES1    0.0000
     20 C7         0.0323    4.9199    4.1054 C.ar      1 RES1    0.0000
     21 C8         0.5832    3.6767    4.4061 C.ar      1 RES1    0.0000
     22 H4         1.4355    3.4334    4.0652 H         1 RES1    0.0000
     23 C9        -0.1296    2.7952    5.2117 C.ar      1 RES1    0.0000
     24 H5         0.2348    1.9398    5.4086 H         1 RES1    0.0000
     25 C10       -1.3687    3.1520    5.7311 C.ar      1 RES1    0.0000
     26 H6        -1.8489    2.5449    6.2828 H         1 RES1    0.0000
     27 C11       -1.8997    4.3988    5.4393 C.ar      1 RES1    0.0000
     28 H7        -2.7427    4.6482    5.7989 H         1 RES1    0.0000
     29 C12       -1.2077    5.2853    4.6247 C.ar      1 RES1    0.0000
     30 H8        -1.5773    6.1364    4.4219 H         1 RES1    0.0000
@<TRIPOS>BOND
     1    1   11 1
     2    2    5 2
     3    3    6 2
     4    4    7 2
     5    8    2 2
     6    9    3 2
     7   10    4 2
     8   11   13 ar
     9   12    1 1
    10   13    2 1
    11   14   13 ar
    12   15   14 1
    13   16    3 1
    14   17   16 ar
    15   18   17 1
    16   19    4 1
    17   20    1 1
    18   21   20 ar
    19   22   21 1
    20   23   21 ar
    21   24   23 1
    22   25   23 ar
    23   26   25 1
    24   27   25 ar
    25   28   27 1
    26   29   20 ar
    27   30   29 1
    28   11   19 ar
    29   14   16 ar
    30   17   19 ar
    31   27   29 ar
@<TRIPOS>SUBSTRUCTURE
     1 RES1 1

@<TRIPOS>CRYSIN
  11.3240    7.6400   16.3440  90.0000 116.5700  90.0000  14 1

