# MOL2 file generated by ConQuest
# Please check atom types

@<TRIPOS>MOLECULE
TNDPAM
    22    23     1
SMALL
NO_CHARGES
****
Generated from CSD

@<TRIPOS>ATOM
      1 C1        -1.8817    2.2393    0.5486 C.ar      1 RES1    0.0000
      2 C2        -6.9922    4.4916    5.7757 C.ar      1 RES1    0.0000
      3 C3        -5.7372    4.8500    5.2800 C.ar      1 RES1    0.0000
      4 C4        -5.0388    3.9544    4.4520 C.ar      1 RES1    0.0000
      5 C5        -1.8860    1.0828    1.3002 C.ar      1 RES1    0.0000
      6 C6        -2.9557    0.8940    2.2061 C.ar      1 RES1    0.0000
      7 C7        -3.9919    1.8717    2.4518 C.ar      1 RES1    0.0000
      8 C8        -3.8669    2.9990    1.5752 C.ar      1 RES1    0.0000
      9 C9        -2.8575    3.2285    0.6663 C.ar      1 RES1    0.0000
     10 C10       -5.6209    2.7189    4.1534 C.ar      1 RES1    0.0000
     11 C11       -6.9045    2.3344    4.6373 C.ar      1 RES1    0.0000
     12 C12       -7.5596    3.2453    5.4609 C.ar      1 RES1    0.0000
     13 N1        -2.9330   -0.3338    2.9945 N.pl3     1 RES1    0.0000
     14 N2        -0.8048    2.4073   -0.3986 N.pl3     1 RES1    0.0000
     15 N3        -4.9865    4.0112    1.4766 N.pl3     1 RES1    0.0000
     16 N4        -4.9283    1.6998    3.4180 N.pl3     1 RES1    0.0000
     17 O1        -3.9716   -0.7022    3.5534 O.2       1 RES1    0.0000
     18 O2        -1.9253   -0.9301    3.1901 O.2       1 RES1    0.0000
     19 O3         0.1266    1.6008   -0.3956 O.2       1 RES1    0.0000
     20 O4        -0.8594    3.3827   -1.1325 O.2       1 RES1    0.0000
     21 O5        -4.6472    5.1608    1.2825 O.2       1 RES1    0.0000
     22 O6        -6.0998    3.5930    1.5619 O.2       1 RES1    0.0000
@<TRIPOS>BOND
     1    1    5 ar
     2    2    3 ar
     3    3    4 ar
     4    4   10 ar
     5    5    6 ar
     6    6    7 ar
     7    7    8 ar
     8    8    9 ar
     9    9    1 ar
    10   10   11 ar
    11   11   12 ar
    12   12    2 ar
    13   13    6 1
    14   14    1 1
    15   15    8 1
    16   16    7 1
    17   17   13 2
    18   18   13 2
    19   19   14 2
    20   20   14 2
    21   21   15 2
    22   22   15 2
    23   10   16 1
@<TRIPOS>SUBSTRUCTURE
     1 RES1 1

@<TRIPOS>CRYSIN
  11.4310    7.6740   16.3250  90.0000 115.7200  90.0000  14 1

