# MOL2 file generated by ConQuest
# Please check atom types

@<TRIPOS>MOLECULE
TNFLUO
    28    30     1
SMALL
NO_CHARGES
****
Generated from CSD

@<TRIPOS>ATOM
      1 C1         3.1915   -1.3813    4.5557 C.ar      1 RES1    0.0000
      2 C2         2.4605   -1.6826    5.6837 C.ar      1 RES1    0.0000
      3 C3         1.3522   -1.0004    6.0908 C.ar      1 RES1    0.0000
      4 C4         0.9610    0.1046    5.3223 C.ar      1 RES1    0.0000
      5 C5         1.6286    0.4612    4.1635 C.ar      1 RES1    0.0000
      6 C6         1.4618    1.5373    3.1048 C.ar      1 RES1    0.0000
      7 C7         0.5207    2.5214    2.9008 C.ar      1 RES1    0.0000
      8 C8         0.6586    3.3793    1.7965 C.ar      1 RES1    0.0000
      9 C9         1.7337    3.1843    0.9428 C.ar      1 RES1    0.0000
     10 C10        2.6575    2.1732    1.0795 C.ar      1 RES1    0.0000
     11 C11        2.5038    1.3774    2.1838 C.ar      1 RES1    0.0000
     12 C12        3.3398    0.1899    2.5641 C.2       1 RES1    0.0000
     13 C13        2.7546   -0.2854    3.8308 C.ar      1 RES1    0.0000
     14 H1         3.9583   -1.8934    4.2784 H         1 RES1    0.0000
     15 H2         0.7780   -1.2604    6.9128 H         1 RES1    0.0000
     16 H3        -0.2457    2.6847    3.4762 H         1 RES1    0.0000
     17 H4         0.0161    4.0977    1.7232 H         1 RES1    0.0000
     18 H5         3.4348    2.0856    0.4160 H         1 RES1    0.0000
     19 N1         2.8764   -2.9012    6.4850 N.pl3     1 RES1    0.0000
     20 N2        -0.2057    0.8280    5.8343 N.pl3     1 RES1    0.0000
     21 N3         1.8752    4.0954   -0.2149 N.pl3     1 RES1    0.0000
     22 O1         3.8886   -3.4568    6.1165 O.2       1 RES1    0.0000
     23 O2         2.1886   -3.2092    7.4327 O.2       1 RES1    0.0000
     24 O3        -1.0713    0.2103    6.4434 O.2       1 RES1    0.0000
     25 O4        -0.2450    2.0556    5.6600 O.2       1 RES1    0.0000
     26 O5         1.2628    5.1145   -0.2347 O.2       1 RES1    0.0000
     27 O6         2.6071    3.7654   -1.0954 O.2       1 RES1    0.0000
     28 O7         4.2905   -0.2453    1.9560 O.2       1 RES1    0.0000
@<TRIPOS>BOND
     1    1    2 ar
     2    2    3 ar
     3    3    4 ar
     4    4    5 ar
     5    5    6 1
     6    6    7 ar
     7    7    8 ar
     8    8    9 ar
     9    9   10 ar
    10   10   11 ar
    11   11    6 ar
    12   12   11 1
    13   13    1 ar
    14   14    1 1
    15   15    3 1
    16   16    7 1
    17   17    8 1
    18   18   10 1
    19   19    2 1
    20   20    4 1
    21   21    9 1
    22   22   19 2
    23   23   19 2
    24   24   20 2
    25   25   20 2
    26   26   21 2
    27   27   21 2
    28   28   12 2
    29    5   13 ar
    30   12   13 1
@<TRIPOS>SUBSTRUCTURE
     1 RES1 1

@<TRIPOS>CRYSIN
  22.4700    5.6520   10.2780  90.0000 105.5100  90.0000 231 1

