# MOL2 file generated by ConQuest
# Please check atom types

@<TRIPOS>MOLECULE
TNIOAN01
    20    20     1
SMALL
NO_CHARGES
****
Generated from CSD

@<TRIPOS>ATOM
      1 O1         0.8027    9.4318    1.1313 O.2       1 RES1    0.0000
      2 O2         1.2938    9.4598    3.2341 O.2       1 RES1    0.0000
      3 O3         5.2827    7.6206    4.8976 O.2       1 RES1    0.0000
      4 O4         6.4791    6.2779    3.6906 O.2       1 RES1    0.0000
      5 O5         4.5947    4.5882   -0.3912 O.2       1 RES1    0.0000
      6 O6         3.5875    6.0212   -1.6631 O.2       1 RES1    0.0000
      7 N1         1.8705    7.5910   -0.4007 N.3       1 RES1    0.0000
      8 N2         1.4967    9.0731    2.0959 N.pl3     1 RES1    0.0000
      9 N3         5.5011    7.0029    3.8598 N.pl3     1 RES1    0.0000
     10 N4         4.0126    5.6547   -0.5702 N.pl3     1 RES1    0.0000
     11 C1         2.7161    7.4453    0.6188 C.ar      1 RES1    0.0000
     12 C2         2.5977    8.1552    1.8578 C.ar      1 RES1    0.0000
     13 C3         3.4895    8.0090    2.9079 C.ar      1 RES1    0.0000
     14 C4         4.5567    7.1417    2.7649 C.ar      1 RES1    0.0000
     15 C5         4.7132    6.3625    1.6240 C.ar      1 RES1    0.0000
     16 C6         3.8130    6.5202    0.5880 C.ar      1 RES1    0.0000
     17 H1         1.0895    8.2246   -0.3067 H         1 RES1    0.0000
     18 H2         1.9423    6.9843   -1.2050 H         1 RES1    0.0000
     19 H3         3.3366    8.5623    3.8227 H         1 RES1    0.0000
     20 H4         5.5023    5.6282    1.5570 H         1 RES1    0.0000
@<TRIPOS>BOND
     1    1    8 2
     2    2    8 2
     3    3    9 2
     4    4    9 2
     5    5   10 2
     6    6   10 2
     7    7   11 1
     8    8   12 1
     9    9   14 1
    10   10   16 1
    11   11   12 ar
    12   12   13 ar
    13   13   14 ar
    14   14   15 ar
    15   15   16 ar
    16   16   11 ar
    17   17    7 1
    18   18    7 1
    19   19   13 1
    20   20   15 1
@<TRIPOS>SUBSTRUCTURE
     1 RES1 1

@<TRIPOS>CRYSIN
   5.9722    9.1789   15.2935  90.0000  99.0730  90.0000  14 1

