# MOL2 file generated by ConQuest
# Please check atom types

@<TRIPOS>MOLECULE
TNIOAN
    20    20     1
SMALL
NO_CHARGES
****
Generated from CSD

@<TRIPOS>ATOM
      1 C1         2.0903    2.8490    6.9439 C.ar      1 RES1    0.0000
      2 C2         0.9830    1.9457    6.9771 C.ar      1 RES1    0.0000
      3 C3         0.0743    1.7936    5.9605 C.ar      1 RES1    0.0000
      4 C4         0.2485    2.5550    4.8231 C.ar      1 RES1    0.0000
      5 C5         1.3099    3.4094    4.6660 C.ar      1 RES1    0.0000
      6 C6         2.2022    3.5476    5.7038 C.ar      1 RES1    0.0000
      7 H1         3.6538    3.5596    7.7626 H         1 RES1    0.0000
      8 H2         2.8425    2.5199    8.6991 H         1 RES1    0.0000
      9 H3        -0.7081    1.1669    6.0859 H         1 RES1    0.0000
     10 H4         1.4627    3.9366    3.8488 H         1 RES1    0.0000
     11 N1         2.9484    2.9964    7.9620 N.pl3     1 RES1    0.0000
     12 N2         0.7662    1.0959    8.1629 N.pl3     1 RES1    0.0000
     13 N3        -0.7134    2.4093    3.7219 N.pl3     1 RES1    0.0000
     14 N4         3.3108    4.4675    5.4500 N.pl3     1 RES1    0.0000
     15 O1         1.2546    1.4388    9.2263 O.2       1 RES1    0.0000
     16 O2         0.1087    0.0857    8.0134 O.2       1 RES1    0.0000
     17 O3        -1.6811    1.6821    3.9017 O.2       1 RES1    0.0000
     18 O4        -0.4936    3.0287    2.6918 O.2       1 RES1    0.0000
     19 O5         3.4538    4.9163    4.3443 O.2       1 RES1    0.0000
     20 O6         4.0738    4.7449    6.3744 O.2       1 RES1    0.0000
@<TRIPOS>BOND
     1    1    2 ar
     2    2    3 ar
     3    3    4 ar
     4    4    5 ar
     5    5    6 ar
     6    6    1 ar
     7    7   11 1
     8    8   11 1
     9    9    3 1
    10   10    5 1
    11   11    1 1
    12   12    2 1
    13   13    4 1
    14   14    6 1
    15   15   12 2
    16   16   12 2
    17   17   13 2
    18   18   13 2
    19   19   14 2
    20   20   14 2
@<TRIPOS>SUBSTRUCTURE
     1 RES1 1

@<TRIPOS>CRYSIN
   6.1370    9.2170   15.3230  90.0000  99.6700  90.0000  14 1

