# MOL2 file generated by ConQuest
# Please check atom types

@<TRIPOS>MOLECULE
TNIOAN02
    20    20     1
SMALL
NO_CHARGES
****
Generated from CSD

@<TRIPOS>ATOM
      1 O1         0.7981    9.4259    1.1342 O.2       1 RES1    0.0000
      2 O2         1.2948    9.4616    3.2346 O.2       1 RES1    0.0000
      3 O3         5.2824    7.6214    4.8981 O.2       1 RES1    0.0000
      4 O4         6.4794    6.2763    3.6895 O.2       1 RES1    0.0000
      5 O5         4.5958    4.5885   -0.3925 O.2       1 RES1    0.0000
      6 O6         3.5871    6.0237   -1.6647 O.2       1 RES1    0.0000
      7 N1         1.8701    7.5910   -0.4004 N.3       1 RES1    0.0000
      8 N2         1.4971    9.0732    2.0956 N.pl3     1 RES1    0.0000
      9 N3         5.5017    7.0029    3.8598 N.pl3     1 RES1    0.0000
     10 N4         4.0127    5.6549   -0.5707 N.pl3     1 RES1    0.0000
     11 C1         2.7166    7.4450    0.6189 C.ar      1 RES1    0.0000
     12 C2         2.5989    8.1545    1.8582 C.ar      1 RES1    0.0000
     13 C3         3.4898    8.0090    2.9075 C.ar      1 RES1    0.0000
     14 C4         4.5563    7.1416    2.7638 C.ar      1 RES1    0.0000
     15 C5         4.7123    6.3628    1.6238 C.ar      1 RES1    0.0000
     16 C6         3.8135    6.5207    0.5894 C.ar      1 RES1    0.0000
     17 H1         1.2020    8.1270   -0.3277 H         1 RES1    0.0000
     18 H2         1.9277    7.0889   -1.0798 H         1 RES1    0.0000
     19 H3         3.3677    8.4868    3.6879 H         1 RES1    0.0000
     20 H4         5.3828    5.7249    1.5706 H         1 RES1    0.0000
@<TRIPOS>BOND
     1    1    8 2
     2    2    8 2
     3    3    9 2
     4    4    9 2
     5    5   10 2
     6    6   10 2
     7    7   11 1
     8    8   12 1
     9    9   14 1
    10   10   16 1
    11   11   12 ar
    12   12   13 ar
    13   13   14 ar
    14   14   15 ar
    15   15   16 ar
    16   16   11 ar
    17   17    7 1
    18   18    7 1
    19   19   13 1
    20   20   15 1
@<TRIPOS>SUBSTRUCTURE
     1 RES1 1

@<TRIPOS>CRYSIN
   5.9722    9.1789   15.2935  90.0000  99.0730  90.0000  14 1

