# MOL2 file generated by ConQuest
# Please check atom types

@<TRIPOS>MOLECULE
TNOXYL
    24    24     1
SMALL
NO_CHARGES
****
Generated from CSD

@<TRIPOS>ATOM
      1 C1         0.8975    2.1684    1.9911 C.ar      1 RES1    0.0000
      2 C2         0.8716    3.5616    2.0400 C.ar      1 RES1    0.0000
      3 C3         1.7444    1.3676    1.0542 C.3       1 RES1    0.0000
      4 C4         0.0000    4.2544    2.8460 C.ar      1 RES1    0.0000
      5 C5         0.0000    1.5536    2.8460 C.ar      1 RES1    0.0000
      6 H1         1.2805    0.6598    0.6944 H         1 RES1    0.0000
      7 H2         2.6815    1.1997    1.4002 H         1 RES1    0.0000
      8 H3         2.0097    1.7845    0.2618 H         1 RES1    0.0000
      9 H4         0.0000    5.0537    2.8460 H         1 RES1    0.0000
     10 N1         1.8334    4.3623    1.2602 N.pl3     1 RES1    0.0000
     11 N2         0.0000    0.0735    2.8460 N.pl3     1 RES1    0.0000
     12 O1         1.4344    5.4316    0.8288 O.2       1 RES1    0.0000
     13 O2         2.9663    3.9245    1.1145 O.2       1 RES1    0.0000
     14 O3        -0.9130   -0.4844    2.2757 O.2       1 RES1    0.0000
     15 C2F       -0.8716    3.5616    3.6520 C.ar      1 RES1    0.0000
     16 C1F       -0.8975    2.1684    3.7009 C.ar      1 RES1    0.0000
     17 O3F        0.9130   -0.4844    3.4163 O.2       1 RES1    0.0000
     18 N1F       -1.8334    4.3623    4.4318 N.pl3     1 RES1    0.0000
     19 C3F       -1.7444    1.3676    4.6378 C.3       1 RES1    0.0000
     20 O1F       -1.4344    5.4316    4.8632 O.2       1 RES1    0.0000
     21 O2F       -2.9663    3.9245    4.5775 O.2       1 RES1    0.0000
     22 H1F       -1.2805    0.6598    4.9976 H         1 RES1    0.0000
     23 H2F       -2.6815    1.1997    4.2918 H         1 RES1    0.0000
     24 H3F       -2.0097    1.7845    5.4302 H         1 RES1    0.0000
@<TRIPOS>BOND
     1    1    2 ar
     2    2    4 ar
     3    3    1 1
     4    4    9 1
     5    5    1 ar
     6    6    3 1
     7    7    3 1
     8    8    3 1
     9   10    2 1
    10   11    5 1
    11   12   10 2
    12   13   10 2
    13   14   11 2
    14   15    4 ar
    15   16    5 ar
    16   17   11 2
    17   18   15 1
    18   19   16 1
    19   20   18 2
    20   21   18 2
    21   22   19 1
    22   23   19 1
    23   24   19 1
    24   15   16 ar
@<TRIPOS>SUBSTRUCTURE
     1 RES1 1

@<TRIPOS>CRYSIN
   5.7420   14.9960   11.3840  90.0000  90.0000  90.0000  60 1

