# MOL2 file generated by ConQuest
# Please check atom types

@<TRIPOS>MOLECULE
TNPHMR10
    40    42     1
SMALL
NO_CHARGES
****
Generated from CSD

@<TRIPOS>ATOM
      1 C1         0.0000    2.6347    4.6500 C.ar      1 RES1    0.0000
      2 C2         0.0000    1.1523    4.6500 C.2       1 RES1    0.0000
      3 C3        -0.4469    0.4692    5.8553 C.ar      1 RES1    0.0000
      4 C4         0.3923    3.3270    5.7790 C.ar      1 RES1    0.0000
      5 C5        -1.3455    0.9994    6.7667 C.ar      1 RES1    0.0000
      6 C6         0.4532    4.7300    5.7772 C.ar      1 RES1    0.0000
      7 C7        -1.7628    0.3013    7.8901 C.ar      1 RES1    0.0000
      8 C8         0.0000    5.3855    4.6500 C.ar      1 RES1    0.0000
      9 C9        -1.1864   -0.8935    8.1412 C.ar      1 RES1    0.0000
     10 C10       -0.2995   -1.4904    7.3321 C.ar      1 RES1    0.0000
     11 C11        0.1045   -0.8291    6.1678 C.ar      1 RES1    0.0000
     12 H1         0.6084    2.8532    6.6830 H         1 RES1    0.0000
     13 H2        -1.6489    1.9585    6.6718 H         1 RES1    0.0000
     14 H3         0.8759    5.1980    6.6402 H         1 RES1    0.0000
     15 H4        -2.5951    0.6210    8.4965 H         1 RES1    0.0000
     16 H5        -0.0390   -2.5128    7.5386 H         1 RES1    0.0000
     17 H6         0.9571   -1.0557    5.5521 H         1 RES1    0.0000
     18 N1         0.0000    6.9138    4.6500 N.pl3     1 RES1    0.0000
     19 N2        -1.7012   -1.5789    9.3744 N.pl3     1 RES1    0.0000
     20 O1         0.7137    7.3577    5.4982 O.2       1 RES1    0.0000
     21 O2        -2.3884   -0.9867   10.1184 O.2       1 RES1    0.0000
     22 O3        -1.1552   -2.6530    9.5827 O.2       1 RES1    0.0000
     23 C4C       -0.3923    3.3270    3.5210 C.ar      1 RES1    0.0000
     24 C3C        0.4469    0.4692    3.4447 C.ar      1 RES1    0.0000
     25 C6C       -0.4532    4.7300    3.5228 C.ar      1 RES1    0.0000
     26 O1C       -0.7137    7.3577    3.8018 O.2       1 RES1    0.0000
     27 H1C       -0.6084    2.8532    2.6170 H         1 RES1    0.0000
     28 C5C        1.3455    0.9994    2.5333 C.ar      1 RES1    0.0000
     29 C11C      -0.1045   -0.8291    3.1322 C.ar      1 RES1    0.0000
     30 H3C       -0.8759    5.1980    2.6598 H         1 RES1    0.0000
     31 C7C        1.7628    0.3013    1.4099 C.ar      1 RES1    0.0000
     32 H2C        1.6489    1.9585    2.6282 H         1 RES1    0.0000
     33 C10C       0.2995   -1.4904    1.9679 C.ar      1 RES1    0.0000
     34 H6C       -0.9571   -1.0557    3.7479 H         1 RES1    0.0000
     35 C9C        1.1864   -0.8935    1.1588 C.ar      1 RES1    0.0000
     36 H4C        2.5951    0.6210    0.8035 H         1 RES1    0.0000
     37 H5C        0.0390   -2.5128    1.7614 H         1 RES1    0.0000
     38 N2C        1.7012   -1.5790   -0.0744 N.pl3     1 RES1    0.0000
     39 O2C        2.3884   -0.9867   -0.8184 O.2       1 RES1    0.0000
     40 O3C        1.1552   -2.6531   -0.2827 O.2       1 RES1    0.0000
@<TRIPOS>BOND
     1    1    2 1
     2    2    3 1
     3    3    5 ar
     4    4    1 ar
     5    5    7 ar
     6    6    4 ar
     7    7    9 ar
     8    8    6 ar
     9    9   10 ar
    10   10   11 ar
    11   11    3 ar
    12   12    4 1
    13   13    5 1
    14   14    6 1
    15   15    7 1
    16   16   10 1
    17   17   11 1
    18   18    8 1
    19   19    9 1
    20   20   18 2
    21   21   19 2
    22   22   19 2
    23   23    1 ar
    24   24    2 1
    25   25    8 ar
    26   26   18 2
    27   27   23 1
    28   28   24 ar
    29   29   24 ar
    30   30   25 1
    31   31   28 ar
    32   32   28 1
    33   33   29 ar
    34   34   29 1
    35   35   31 ar
    36   36   31 1
    37   37   33 1
    38   38   35 1
    39   39   38 2
    40   40   38 2
    41   23   25 ar
    42   33   35 ar
@<TRIPOS>SUBSTRUCTURE
     1 RES1 1

@<TRIPOS>CRYSIN
   7.8000   11.5000   18.6000  90.0000  90.0000  90.0000  60 1

