# MOL2 file generated by ConQuest
# Please check atom types

@<TRIPOS>MOLECULE
TNSOME
     3     0     3
SMALL
NO_CHARGES
****
Generated from CSD

@<TRIPOS>ATOM
      1 C1         1.7618    5.7875    1.5675 C.2       1 RES1    0.0000
      2 O1         3.6250    4.0991    1.5675 O.2       2 RES2    0.0000
      3 O2         3.6250    7.4759    1.5675 O.2       3 RES3    0.0000
@<TRIPOS>BOND
@<TRIPOS>SUBSTRUCTURE
     1 RES1 1
     2 RES2 2
     3 RES3 3

@<TRIPOS>CRYSIN
   7.2500    9.3800    6.2700  90.0000  90.0000  90.0000  63 1

