# MOL2 file generated by ConQuest
# Please check atom types

@<TRIPOS>MOLECULE
TOCGEX
    84    86     2
SMALL
NO_CHARGES
****
Generated from CSD

@<TRIPOS>ATOM
      1 O1        -0.6710   -0.2308    5.8622 O.3       1 RES1    0.0000
      2 H1        -0.7003   -0.4712    5.0585 H         1 RES1    0.0000
      3 O2        -4.2483    1.5919    6.6587 O.3       1 RES1    0.0000
      4 N1        -0.6637    1.2011    5.9337 N.3       1 RES1    0.0000
      5 N2        -1.8623    0.6005    9.1063 N.1       1 RES1    0.0000
      6 C1        -1.8569    1.5737    6.6672 C.3       1 RES1    0.0000
      7 H2        -1.8598    2.5707    6.7471 H         1 RES1    0.0000
      8 C2        -3.1247    1.1628    5.8816 C.3       1 RES1    0.0000
      9 H3        -3.1495    0.1647    5.8126 H         1 RES1    0.0000
     10 C3         0.5950    1.6149    6.6030 C.3       1 RES1    0.0000
     11 H4         0.6763    1.1637    7.4806 H         1 RES1    0.0000
     12 H5         0.5939    2.5937    6.7544 H         1 RES1    0.0000
     13 C4         1.7494    1.2269    5.7073 C.ar      1 RES1    0.0000
     14 C5         2.4711    0.0623    5.9058 C.ar      1 RES1    0.0000
     15 H6         2.2778   -0.4875    6.6563 H         1 RES1    0.0000
     16 C6         3.4859   -0.3151    5.0040 C.ar      1 RES1    0.0000
     17 H7         3.9699   -1.1206    5.1408 H         1 RES1    0.0000
     18 C7        -3.1271    1.7365    4.5005 C.3       1 RES1    0.0000
     19 H8        -3.9408    1.4578    4.0320 H         1 RES1    0.0000
     20 H9        -2.3410    1.4128    4.0115 H         1 RES1    0.0000
     21 H10       -3.0989    2.7144    4.5537 H         1 RES1    0.0000
     22 C8         3.7728    0.4885    3.9195 C.ar      1 RES1    0.0000
     23 H11        4.4509    0.2347    3.3021 H         1 RES1    0.0000
     24 C9        -1.8945    1.0057    8.0641 C.1       1 RES1    0.0000
     25 C10        3.0813    1.6541    3.7379 C.ar      1 RES1    0.0000
     26 H12        3.2949    2.2106    2.9983 H         1 RES1    0.0000
     27 C11        2.0820    2.0392    4.5937 C.ar      1 RES1    0.0000
     28 H13        1.6124    2.8514    4.4424 H         1 RES1    0.0000
     29 C12       -5.3965    0.8199    6.3852 C.3       1 RES1    0.0000
     30 H14       -5.2014   -0.1379    6.5413 H         1 RES1    0.0000
     31 H15       -5.6571    0.9319    5.4362 H         1 RES1    0.0000
     32 C13       -8.6872    2.0363    8.8436 C.ar      1 RES1    0.0000
     33 H16       -9.4277    2.2882    9.3835 H         1 RES1    0.0000
     34 C14       -8.2181    2.8686    7.8571 C.ar      1 RES1    0.0000
     35 H17       -8.6255    3.7153    7.7179 H         1 RES1    0.0000
     36 C15       -6.5305    1.2595    7.2773 C.ar      1 RES1    0.0000
     37 C16       -7.1463    2.4673    7.0582 C.ar      1 RES1    0.0000
     38 H18       -6.8398    3.0334    6.3585 H         1 RES1    0.0000
     39 C17       -7.0152    0.4521    8.2977 C.ar      1 RES1    0.0000
     40 H19       -6.6027   -0.3841    8.4793 H         1 RES1    0.0000
     41 C18       -8.0669    0.8524    9.0288 C.ar      1 RES1    0.0000
     42 H20       -8.3894    0.2749    9.7103 H         1 RES1    0.0000
     43 O3        -0.9523    4.5467    5.7000 O.3       2 RES2    0.0000
     44 H21       -0.8255    4.3044    4.9048 H         2 RES2    0.0000
     45 O4        -4.4469    6.6299    6.4263 O.3       2 RES2    0.0000
     46 N3        -0.8716    5.9977    5.7848 N.3       2 RES2    0.0000
     47 N4        -2.2375    5.3905    8.8823 N.1       2 RES2    0.0000
     48 C19        1.5877    5.9776    5.7255 C.ar      2 RES2    0.0000
     49 C20        1.6091    6.1213    4.3516 C.ar      2 RES2    0.0000
     50 H22        0.8308    6.4067    3.8892 H         2 RES2    0.0000
     51 C21        2.7726    5.8464    3.6520 C.ar      2 RES2    0.0000
     52 H23        2.7763    5.9412    2.7066 H         2 RES2    0.0000
     53 C22       -2.0915    6.4450    6.4844 C.3       2 RES2    0.0000
     54 H24       -2.0406    7.4383    6.5897 H         2 RES2    0.0000
     55 C23        0.3570    6.3023    6.5292 C.3       2 RES2    0.0000
     56 H25        0.3671    5.7794    7.3705 H         2 RES2    0.0000
     57 H26        0.3655    7.2630    6.7677 H         2 RES2    0.0000
     58 C24        3.9232    5.4403    4.2862 C.ar      2 RES2    0.0000
     59 H27        4.7129    5.2535    3.7936 H         2 RES2    0.0000
     60 C25        2.7580    5.5610    6.3864 C.ar      2 RES2    0.0000
     61 H28        2.7602    5.4547    7.3305 H         2 RES2    0.0000
     62 C26        3.8946    5.3100    5.6674 C.ar      2 RES2    0.0000
     63 H29        4.6852    5.0409    6.1249 H         2 RES2    0.0000
     64 C27       -3.3520    6.1242    5.6649 C.3       2 RES2    0.0000
     65 H30       -3.4429    5.1329    5.5621 H         2 RES2    0.0000
     66 C28       -3.3058    6.7831    4.2802 C.3       2 RES2    0.0000
     67 H31       -4.1223    6.5590    3.7851 H         2 RES2    0.0000
     68 H32       -2.5245    6.4565    3.7875 H         2 RES2    0.0000
     69 H33       -3.2433    7.7563    4.3843 H         2 RES2    0.0000
     70 C29       -2.2036    5.8512    7.8341 C.1       2 RES2    0.0000
     71 C30       -5.7040    6.0964    5.9881 C.3       2 RES2    0.0000
     72 H34       -5.6079    5.1348    5.7751 H         2 RES2    0.0000
     73 H35       -6.0041    6.5686    5.1723 H         2 RES2    0.0000
     74 C31       -6.4781    6.0341    8.3171 C.ar      2 RES2    0.0000
     75 H36       -5.6085    5.7420    8.5628 H         2 RES2    0.0000
     76 C32       -8.6030    6.5676    9.0046 C.ar      2 RES2    0.0000
     77 H37       -9.1920    6.6337    9.7466 H         2 RES2    0.0000
     78 C33       -9.0483    6.8837    7.7711 C.ar      2 RES2    0.0000
     79 H38       -9.9412    7.1682    7.6089 H         2 RES2    0.0000
     80 C34       -7.3552    6.1682    9.1946 C.ar      2 RES2    0.0000
     81 H39       -7.1025    5.9623   10.0880 H         2 RES2    0.0000
     82 C35       -6.7307    6.2832    7.1054 C.ar      2 RES2    0.0000
     83 C36       -8.0408    6.7554    6.6781 C.ar      2 RES2    0.0000
     84 H40       -8.2374    6.9661    5.7727 H         2 RES2    0.0000
@<TRIPOS>BOND
     1    1    2 1
     2    3    8 1
     3    4    1 1
     4    5   24 3
     5    6    4 1
     6    7    6 1
     7    8    6 1
     8    9    8 1
     9   10    4 1
    10   11   10 1
    11   12   10 1
    12   13   10 1
    13   14   13 ar
    14   15   14 1
    15   16   14 ar
    16   17   16 1
    17   18    8 1
    18   19   18 1
    19   20   18 1
    20   21   18 1
    21   22   16 ar
    22   23   22 1
    23   24    6 1
    24   25   22 ar
    25   26   25 1
    26   27   13 ar
    27   28   27 1
    28   29    3 1
    29   30   29 1
    30   31   29 1
    31   32   33 1
    32   34   32 ar
    33   35   34 1
    34   36   29 1
    35   37   34 ar
    36   38   37 1
    37   39   36 ar
    38   40   39 1
    39   41   32 ar
    40   42   41 1
    41   43   44 1
    42   45   64 1
    43   46   43 1
    44   47   70 3
    45   48   49 ar
    46   49   50 1
    47   51   49 ar
    48   52   51 1
    49   53   46 1
    50   54   53 1
    51   55   46 1
    52   56   55 1
    53   57   55 1
    54   58   51 ar
    55   59   58 1
    56   60   48 ar
    57   61   60 1
    58   62   58 ar
    59   63   62 1
    60   64   53 1
    61   65   64 1
    62   66   64 1
    63   67   66 1
    64   68   66 1
    65   69   66 1
    66   70   53 1
    67   71   45 1
    68   72   71 1
    69   73   71 1
    70   74   75 1
    71   76   77 1
    72   78   76 ar
    73   79   78 1
    74   80   74 ar
    75   81   80 1
    76   82   71 1
    77   83   78 ar
    78   84   83 1
    79   25   27 ar
    80   36   37 ar
    81   39   41 ar
    82   48   55 1
    83   60   62 ar
    84   74   82 ar
    85   76   80 ar
    86   82   83 ar
@<TRIPOS>SUBSTRUCTURE
     1 RES1 1
     2 RES2 43

@<TRIPOS>CRYSIN
  28.1880    9.5780   12.3750  90.0000 102.0000  90.0000   9 1

