# MOL2 file generated by ConQuest
# Please check atom types

@<TRIPOS>MOLECULE
TOCMUV
    41    42     1
SMALL
NO_CHARGES
****
Generated from CSD

@<TRIPOS>ATOM
      1 O1         5.0741    4.5424   14.7313 O.2       1 RES1    0.0000
      2 O2         4.0177    2.2878   15.5869 O.3       1 RES1    0.0000
      3 O3         0.6619    2.9544   14.4265 O.3       1 RES1    0.0000
      4 O4         3.2942    5.6908   15.5490 O.3       1 RES1    0.0000
      5 N1         3.2936    3.4603   15.6171 N.am      1 RES1    0.0000
      6 C1         5.0326    7.2596   16.3118 C.ar      1 RES1    0.0000
      7 C2         3.1958    3.7646   18.5816 C.ar      1 RES1    0.0000
      8 C3         3.9736    4.5647   15.2683 C.2       1 RES1    0.0000
      9 C4         1.0454    2.4287   15.6558 C.3       1 RES1    0.0000
     10 C5         5.5560    8.1842   18.4376 C.ar      1 RES1    0.0000
     11 C6         3.9821    6.9197   15.2295 C.3       1 RES1    0.0000
     12 C7         6.3662    6.8757   16.1679 C.ar      1 RES1    0.0000
     13 C8         2.0739    3.3889   16.3561 C.3       1 RES1    0.0000
     14 C9         4.6414    7.9247   17.4688 C.ar      1 RES1    0.0000
     15 C10        6.8578    7.8376   18.3159 C.ar      1 RES1    0.0000
     16 C11        2.6154    4.8989   19.2487 C.ar      1 RES1    0.0000
     17 C12        2.2948    2.8624   17.7678 C.3       1 RES1    0.0000
     18 C13        7.2568    7.1983   17.1727 C.ar      1 RES1    0.0000
     19 C14        4.5533    3.4959   18.6868 C.ar      1 RES1    0.0000
     20 C15        4.8370    5.3268   20.1593 C.ar      1 RES1    0.0000
     21 C16        3.4976    5.6311   20.0320 C.ar      1 RES1    0.0000
     22 C17        5.3571    4.3143   19.5144 C.ar      1 RES1    0.0000
     23 H1         4.0967    2.0340   14.8116 H         1 RES1    0.0000
     24 H2        -0.1347    3.1493   14.4490 H         1 RES1    0.0000
     25 H3         1.4496    1.5572   15.5257 H         1 RES1    0.0000
     26 H4         0.2643    2.3184   16.2205 H         1 RES1    0.0000
     27 H5         5.2768    8.6146   19.2155 H         1 RES1    0.0000
     28 H6         3.3389    7.6427   15.1631 H         1 RES1    0.0000
     29 H7         4.4218    6.8301   14.3687 H         1 RES1    0.0000
     30 H8         6.6493    6.4130   15.4122 H         1 RES1    0.0000
     31 H9         1.6834    4.2861   16.4115 H         1 RES1    0.0000
     32 H10        3.7567    8.1917   17.5768 H         1 RES1    0.0000
     33 H11        7.4667    8.0300   18.9940 H         1 RES1    0.0000
     34 H12        1.7177    5.1253   19.1629 H         1 RES1    0.0000
     35 H13        1.4379    2.7803   18.2134 H         1 RES1    0.0000
     36 H14        2.6905    1.9776   17.7180 H         1 RES1    0.0000
     37 H15        8.1539    6.9752   17.0730 H         1 RES1    0.0000
     38 H16        4.9303    2.7869   18.2162 H         1 RES1    0.0000
     39 H17        5.3766    5.8467   20.7102 H         1 RES1    0.0000
     40 H18        3.1711    6.3666   20.4970 H         1 RES1    0.0000
     41 H19        6.2639    4.1302   19.6030 H         1 RES1    0.0000
@<TRIPOS>BOND
     1    1    8 2
     2    2    5 1
     3    3    9 1
     4    4    8 1
     5    5    8 1
     6    6   11 1
     7    7   16 ar
     8    9   13 1
     9   10   14 ar
    10   11    4 1
    11   12    6 ar
    12   13    5 1
    13   14    6 ar
    14   15   10 ar
    15   16   21 ar
    16   17    7 1
    17   18   12 ar
    18   19    7 ar
    19   20   21 ar
    20   21   40 1
    21   22   19 ar
    22   23    2 1
    23   24    3 1
    24   25    9 1
    25   26    9 1
    26   27   10 1
    27   28   11 1
    28   29   11 1
    29   30   12 1
    30   31   13 1
    31   32   14 1
    32   33   15 1
    33   34   16 1
    34   35   17 1
    35   36   17 1
    36   37   18 1
    37   38   19 1
    38   39   20 1
    39   41   22 1
    40   13   17 1
    41   15   18 ar
    42   20   22 ar
@<TRIPOS>SUBSTRUCTURE
     1 RES1 1

@<TRIPOS>CRYSIN
   6.4770    8.2920   27.6800  90.0000  90.0000  90.0000  19 1

