# MOL2 file generated by ConQuest
# Please check atom types

@<TRIPOS>MOLECULE
TOCNEG
    79    84     1
SMALL
NO_CHARGES
****
Generated from CSD

@<TRIPOS>ATOM
      1 O1         3.8585   11.0601    8.4592 O.2       1 RES1    0.0000
      2 O2         1.9010    7.5898   13.5403 O.3       1 RES1    0.0000
      3 O3        -4.4886    8.8863    5.9438 O.2       1 RES1    0.0000
      4 O4        -4.2886   10.8853    5.1498 O.2       1 RES1    0.0000
      5 N1         2.6707    9.8484   10.0370 N.am      1 RES1    0.0000
      6 N2         1.4262    9.6836    9.4592 N.2       1 RES1    0.0000
      7 N3         2.6232    3.4587   11.3523 N.3       1 RES1    0.0000
      8 N4        -0.4255   11.1899   15.5586 N.3       1 RES1    0.0000
      9 N5        -3.8859    9.9383    5.8226 N.pl3     1 RES1    0.0000
     10 C1         3.7846   10.4809    9.5219 C.2       1 RES1    0.0000
     11 C2         4.8410   10.3094   10.5341 C.ar      1 RES1    0.0000
     12 C3         6.1731   10.7122   10.5017 C.ar      1 RES1    0.0000
     13 H1         6.4918   11.2082    9.7805 H         1 RES1    0.0000
     14 C4         7.0077   10.3793   11.5200 C.ar      1 RES1    0.0000
     15 H2         7.9052   10.6223   11.4937 H         1 RES1    0.0000
     16 C5         6.4991    9.6736   12.5928 C.ar      1 RES1    0.0000
     17 H3         7.0670    9.4755   13.3019 H         1 RES1    0.0000
     18 C6         5.1706    9.2459   12.6615 C.ar      1 RES1    0.0000
     19 H4         4.8465    8.7698   13.3908 H         1 RES1    0.0000
     20 C7         4.3607    9.5704   11.5806 C.ar      1 RES1    0.0000
     21 C8         2.8953    9.1843   11.3584 C.3       1 RES1    0.0000
     22 C9         1.9704    9.7152   12.4049 C.ar      1 RES1    0.0000
     23 C10        1.5367   11.0218   12.4231 C.ar      1 RES1    0.0000
     24 H5         1.7960   11.5860   11.7301 H         1 RES1    0.0000
     25 C11        0.7350   11.5244   13.4211 C.ar      1 RES1    0.0000
     26 H6         0.4465   12.4083   13.3787 H         1 RES1    0.0000
     27 C12        0.3515   10.7189   14.4980 C.ar      1 RES1    0.0000
     28 C13        0.7916    9.3940   14.5222 C.ar      1 RES1    0.0000
     29 H7         0.5761    8.8331   15.2334 H         1 RES1    0.0000
     30 C14        1.5586    8.9396   13.4595 C.ar      1 RES1    0.0000
     31 C15        2.3201    6.9639   12.3645 C.ar      1 RES1    0.0000
     32 C16        2.2616    5.5875   12.4008 C.ar      1 RES1    0.0000
     33 H8         1.9302    5.1614   13.1565 H         1 RES1    0.0000
     34 C17        2.6917    4.8351   11.3240 C.ar      1 RES1    0.0000
     35 C18        3.1391    5.5409   10.2068 C.ar      1 RES1    0.0000
     36 H9         3.4039    5.0682    9.4512 H         1 RES1    0.0000
     37 C19        3.1993    6.9090   10.1886 C.ar      1 RES1    0.0000
     38 H10        3.5317    7.3401    9.4350 H         1 RES1    0.0000
     39 C20        2.7738    7.6630   11.2715 C.ar      1 RES1    0.0000
     40 C21       -1.1970   12.4282   15.4394 C.3       1 RES1    0.0000
     41 H11       -2.0388   12.3167   15.9082 H         1 RES1    0.0000
     42 H12       -1.4006   12.5797   14.5020 H         1 RES1    0.0000
     43 C22       -0.5104   13.6283   15.9768 C.3       1 RES1    0.0000
     44 H13       -1.0701   14.3989   15.8576 H         1 RES1    0.0000
     45 H14        0.3177   13.7598   15.5081 H         1 RES1    0.0000
     46 H15       -0.3324   13.5034   16.9123 H         1 RES1    0.0000
     47 C23       -0.6592   10.4010   16.7527 C.3       1 RES1    0.0000
     48 H16       -0.8409   11.0035   17.4901 H         1 RES1    0.0000
     49 H17        0.1516    9.9133   16.9648 H         1 RES1    0.0000
     50 C24       -1.8014    9.4140   16.6415 C.3       1 RES1    0.0000
     51 H18       -1.8918    8.9363   17.4699 H         1 RES1    0.0000
     52 H19       -1.6216    8.7931   15.9324 H         1 RES1    0.0000
     53 H20       -2.6159    9.8867   16.4557 H         1 RES1    0.0000
     54 C25        3.4614    2.6414   10.2876 C.3       1 RES1    0.0000
     55 H21        4.2210    3.1391    9.9482 H         1 RES1    0.0000
     56 H22        3.7508    1.7776   10.6229 H         1 RES1    0.0000
     57 C26        2.3977    2.5349    9.3299 C.3       1 RES1    0.0000
     58 H23        2.7035    2.0422    8.5662 H         1 RES1    0.0000
     59 H24        2.1238    3.4137    9.0572 H         1 RES1    0.0000
     60 H25        1.6535    2.0772    9.7279 H         1 RES1    0.0000
     61 C27        1.9895    2.7380   12.4594 C.3       1 RES1    0.0000
     62 H26        1.6143    1.9091   12.1241 H         1 RES1    0.0000
     63 H27        1.2591    3.2739   12.8069 H         1 RES1    0.0000
     64 C28        2.9355    2.4284   13.5706 C.3       1 RES1    0.0000
     65 H28        2.4643    1.9790   14.2757 H         1 RES1    0.0000
     66 H29        3.3144    3.2440   13.9060 H         1 RES1    0.0000
     67 H30        3.6376    1.8608   13.2433 H         1 RES1    0.0000
     68 C29        1.1021   10.4342    8.4854 C.2       1 RES1    0.0000
     69 H31        1.6955   11.0850    8.1864 H         1 RES1    0.0000
     70 C30       -0.1853   10.2845    7.8369 C.ar      1 RES1    0.0000
     71 C31       -0.5707   11.2315    6.8914 C.ar      1 RES1    0.0000
     72 H32       -0.0037   11.9372    6.6813 H         1 RES1    0.0000
     73 C32       -1.8005   11.1200    6.2651 C.ar      1 RES1    0.0000
     74 H33       -2.0726   11.7691    5.6570 H         1 RES1    0.0000
     75 C33       -2.6068   10.0681    6.5378 C.ar      1 RES1    0.0000
     76 C34       -2.2470    9.1210    7.4631 C.ar      1 RES1    0.0000
     77 H34       -2.8168    8.4086    7.6429 H         1 RES1    0.0000
     78 C35       -1.0317    9.2226    8.1339 C.ar      1 RES1    0.0000
     79 H35       -0.7898    8.5901    8.7703 H         1 RES1    0.0000
@<TRIPOS>BOND
     1    1   10 2
     2    2   30 1
     3    3    9 2
     4    4    9 2
     5    5    6 1
     6    6   68 2
     7    7   34 1
     8    8   27 1
     9    9   75 1
    10   10    5 1
    11   11   10 1
    12   12   11 ar
    13   13   12 1
    14   14   12 ar
    15   15   14 1
    16   16   14 ar
    17   17   16 1
    18   18   16 ar
    19   19   18 1
    20   20   11 ar
    21   21    5 1
    22   22   21 1
    23   23   22 ar
    24   24   23 1
    25   25   23 ar
    26   26   25 1
    27   27   25 ar
    28   28   27 ar
    29   29   28 1
    30   30   22 ar
    31   31    2 1
    32   32   31 ar
    33   33   32 1
    34   34   32 ar
    35   35   34 ar
    36   36   35 1
    37   37   35 ar
    38   38   37 1
    39   39   21 1
    40   40    8 1
    41   41   40 1
    42   42   40 1
    43   43   40 1
    44   44   43 1
    45   45   43 1
    46   46   43 1
    47   47    8 1
    48   48   47 1
    49   49   47 1
    50   50   47 1
    51   51   50 1
    52   52   50 1
    53   53   50 1
    54   54    7 1
    55   55   54 1
    56   56   54 1
    57   57   54 1
    58   58   57 1
    59   59   57 1
    60   60   57 1
    61   61    7 1
    62   62   61 1
    63   63   61 1
    64   64   61 1
    65   65   64 1
    66   66   64 1
    67   67   64 1
    68   68   69 1
    69   70   68 1
    70   71   70 ar
    71   72   71 1
    72   73   71 ar
    73   74   73 1
    74   75   73 ar
    75   76   75 ar
    76   77   76 1
    77   78   70 ar
    78   79   78 1
    79   18   20 ar
    80   20   21 1
    81   28   30 ar
    82   31   39 ar
    83   37   39 ar
    84   76   78 ar
@<TRIPOS>SUBSTRUCTURE
     1 RES1 1

@<TRIPOS>CRYSIN
   9.1305   16.6442   20.2034  90.0000  90.0000  90.0000  33 1

