# MOL2 file generated by ConQuest
# Please check atom types

@<TRIPOS>MOLECULE
TOCSUB
    42    43     1
SMALL
NO_CHARGES
****
Generated from CSD

@<TRIPOS>ATOM
      1 C1         3.1880    4.5280   27.8855 C.ar      1 RES1    0.0000
      2 H1         2.3077    4.3615   27.5695 H         1 RES1    0.0000
      3 C2         4.0266    5.3650   27.1739 C.ar      1 RES1    0.0000
      4 H2         3.7239    5.7628   26.3650 H         1 RES1    0.0000
      5 C3         5.3074    5.6265   27.6345 C.ar      1 RES1    0.0000
      6 H3         5.8840    6.1968   27.1384 H         1 RES1    0.0000
      7 C4         5.7439    5.0561   28.8142 C.ar      1 RES1    0.0000
      8 H4         6.6171    5.2430   29.1353 H         1 RES1    0.0000
      9 C5         4.9077    4.2093   29.5283 C.ar      1 RES1    0.0000
     10 H5         5.2135    3.8190   30.3397 H         1 RES1    0.0000
     11 C6         3.6224    3.9268   29.0652 C.ar      1 RES1    0.0000
     12 C7         2.7331    2.9843   29.8098 C.2       1 RES1    0.0000
     13 C8         2.8585    1.4789   29.5870 C.3       1 RES1    0.0000
     14 C9         1.8070    0.6931   30.3727 C.3       1 RES1    0.0000
     15 H6         1.9351    0.8453   31.3318 H         1 RES1    0.0000
     16 H7         1.9012   -0.2629   30.1781 H         1 RES1    0.0000
     17 H8         0.9113    0.9937   30.1115 H         1 RES1    0.0000
     18 C10        4.2628    1.0307   30.0462 C.3       1 RES1    0.0000
     19 H9         4.9424    1.4556   29.4808 H         1 RES1    0.0000
     20 H10        4.3361    0.0565   29.9689 H         1 RES1    0.0000
     21 H11        4.4008    1.2959   30.9800 H         1 RES1    0.0000
     22 C11        2.7484    1.1753   28.0849 C.3       1 RES1    0.0000
     23 H12        3.4543    1.6861   27.6139 H         1 RES1    0.0000
     24 H13        2.9415    0.2132   27.9498 H         1 RES1    0.0000
     25 C12        1.4343    1.4835   27.4297 C.2       1 RES1    0.0000
     26 H14        0.8880    2.1623   27.8072 H         1 RES1    0.0000
     27 C13        0.9985    0.8536   26.3457 C.2       1 RES1    0.0000
     28 H15        1.5551    0.1544   26.0227 H         1 RES1    0.0000
     29 C14       -0.2312    1.0940   25.5790 C.ar      1 RES1    0.0000
     30 C15       -1.1010    2.1510   25.8398 C.ar      1 RES1    0.0000
     31 H16       -0.8964    2.7695   26.5330 H         1 RES1    0.0000
     32 C16       -2.2597    2.3100   25.1029 C.ar      1 RES1    0.0000
     33 H17       -2.8463    3.0310   25.3000 H         1 RES1    0.0000
     34 C17       -2.5768    1.4285   24.0788 C.ar      1 RES1    0.0000
     35 H18       -3.3807    1.5362   23.5853 H         1 RES1    0.0000
     36 C18       -1.7098    0.3918   23.7875 C.ar      1 RES1    0.0000
     37 H19       -1.9064   -0.2049   23.0749 H         1 RES1    0.0000
     38 C19       -0.5544    0.2223   24.5320 C.ar      1 RES1    0.0000
     39 H20        0.0301   -0.4988   24.3269 H         1 RES1    0.0000
     40 N1         1.8666    3.3730   30.6732 N.2       1 RES1    0.0000
     41 O1         1.8656    4.7722   30.8640 O.3       1 RES1    0.0000
     42 H21        1.2973    4.9748   31.4491 H         1 RES1    0.0000
@<TRIPOS>BOND
     1    1    2 1
     2    3    1 ar
     3    4    3 1
     4    5    3 ar
     5    6    5 1
     6    7    5 ar
     7    8    7 1
     8    9    7 ar
     9   10    9 1
    10   11    1 ar
    11   12   11 1
    12   13   12 1
    13   14   13 1
    14   15   14 1
    15   16   14 1
    16   17   14 1
    17   18   13 1
    18   19   18 1
    19   20   18 1
    20   21   18 1
    21   22   13 1
    22   23   22 1
    23   24   22 1
    24   25   22 1
    25   26   25 1
    26   27   25 2
    27   28   27 1
    28   29   27 1
    29   30   29 ar
    30   31   30 1
    31   32   30 ar
    32   33   32 1
    33   34   32 ar
    34   35   34 1
    35   36   34 ar
    36   37   36 1
    37   38   29 ar
    38   39   38 1
    39   40   12 2
    40   41   40 1
    41   42   41 1
    42    9   11 ar
    43   36   38 ar
@<TRIPOS>SUBSTRUCTURE
     1 RES1 1

@<TRIPOS>CRYSIN
   6.5980    7.5341   31.7900  90.0000  94.3990  90.0000 231 1

