# MOL2 file generated by ConQuest
# Please check atom types

@<TRIPOS>MOLECULE
TOCTAI
   216   148     5
SMALL
NO_CHARGES
****
Generated from CSD

@<TRIPOS>ATOM
      1 C1         9.8323   -0.2668   -0.3784 C.ar      1 RES1    0.0000
      2 H1        10.1780    0.5993   -0.5580 H         1 RES1    0.0000
      3 C2         9.9966   -1.2793   -1.3120 C.ar      1 RES1    0.0000
      4 H2        10.4492   -1.0989   -2.1274 H         1 RES1    0.0000
      5 C3         9.5058   -2.5506   -1.0646 C.ar      1 RES1    0.0000
      6 H3         9.6310   -3.2443   -1.7016 H         1 RES1    0.0000
      7 C4         8.8307   -2.8015    0.1186 C.ar      1 RES1    0.0000
      8 H4         8.4855   -3.6704    0.2919 H         1 RES1    0.0000
      9 C5         8.6566   -1.7943    1.0502 C.ar      1 RES1    0.0000
     10 H5         8.1861   -1.9756    1.8561 H         1 RES1    0.0000
     11 C6         9.1643   -0.5099    0.8209 C.ar      1 RES1    0.0000
     12 C7         9.0190    0.5533    1.8467 C.2       1 RES1    0.0000
     13 C8         9.1579    2.0099    1.4954 C.3       1 RES1    0.0000
     14 H6         8.4841    2.5324    1.9969 H         1 RES1    0.0000
     15 H7         8.9807    2.1308    0.5289 H         1 RES1    0.0000
     16 C9        10.5618    2.5441    1.8244 C.3       1 RES1    0.0000
     17 H8        10.7230    2.4599    2.7971 H         1 RES1    0.0000
     18 H9        11.2377    1.9938    1.3548 H         1 RES1    0.0000
     19 C10       10.7274    3.9763    1.4205 C.2       1 RES1    0.0000
     20 H10       10.1787    4.6246    1.8476 H         1 RES1    0.0000
     21 C11       11.5889    4.3986    0.5067 C.2       1 RES1    0.0000
     22 H11       12.1317    3.7329    0.1013 H         1 RES1    0.0000
     23 C12       11.8006    5.7811    0.0489 C.ar      1 RES1    0.0000
     24 C13       10.9744    6.8391    0.4377 C.ar      1 RES1    0.0000
     25 H12       10.2396    6.6732    1.0165 H         1 RES1    0.0000
     26 C14       11.2141    8.1234   -0.0098 C.ar      1 RES1    0.0000
     27 H13       10.6461    8.8332    0.2679 H         1 RES1    0.0000
     28 C15       12.2762    8.3856   -0.8594 C.ar      1 RES1    0.0000
     29 H14       12.4347    9.2705   -1.1659 H         1 RES1    0.0000
     30 C16       13.1022    7.3541   -1.2584 C.ar      1 RES1    0.0000
     31 H15       13.8326    7.5259   -1.8424 H         1 RES1    0.0000
     32 C17       12.8630    6.0637   -0.8048 C.ar      1 RES1    0.0000
     33 H16       13.4363    5.3596   -1.0835 H         1 RES1    0.0000
     34 N1         8.8276    0.1333    3.0409 N.2       1 RES1    0.0000
     35 O1         8.7203    1.1728    3.9757 O.3       1 RES1    0.0000
     36 H17        8.6309    0.8485    4.7459 H         1 RES1    0.0000
     37 C18       -0.1512   -0.8855    3.6493 C.ar      2 RES2    0.0000
     38 H18       -0.3720   -0.0086    3.3568 H         2 RES2    0.0000
     39 C19       -0.0898   -1.9159    2.7299 C.ar      2 RES2    0.0000
     40 H19       -0.2791   -1.7437    1.8149 H         2 RES2    0.0000
     41 C20        0.2463   -3.1983    3.1324 C.ar      2 RES2    0.0000
     42 H20        0.2891   -3.9050    2.4983 H         2 RES2    0.0000
     43 C21        0.5198   -3.4388    4.4667 C.ar      2 RES2    0.0000
     44 H21        0.7515   -4.3154    4.7511 H         2 RES2    0.0000
     45 C22        0.4578   -2.4141    5.3876 C.ar      2 RES2    0.0000
     46 H22        0.6561   -2.5927    6.2999 H         2 RES2    0.0000
     47 C23        0.1076   -1.1167    5.0006 C.ar      2 RES2    0.0000
     48 C24        0.0258   -0.0275    6.0071 C.2       2 RES2    0.0000
     49 C25        0.1136    1.4145    5.5962 C.3       2 RES2    0.0000
     50 H23       -0.2084    1.9835    6.3394 H         2 RES2    0.0000
     51 H24       -0.4786    1.5664    4.8181 H         2 RES2    0.0000
     52 C26        1.5410    1.8296    5.2295 C.3       2 RES2    0.0000
     53 H25        2.1038    1.8110    6.0440 H         2 RES2    0.0000
     54 H26        1.9142    1.1755    4.5863 H         2 RES2    0.0000
     55 C27        1.5977    3.1971    4.6259 C.2       2 RES2    0.0000
     56 H27        1.0240    3.3787    3.8908 H         2 RES2    0.0000
     57 C28        2.3898    4.1722    5.0432 C.2       2 RES2    0.0000
     58 H28        2.9094    3.9861    5.8174 H         2 RES2    0.0000
     59 C29        2.5633    5.5087    4.4547 C.ar      2 RES2    0.0000
     60 C30        1.8406    5.9600    3.3488 C.ar      2 RES2    0.0000
     61 H29        1.1844    5.3957    2.9568 H         2 RES2    0.0000
     62 C31        2.0672    7.2192    2.8158 C.ar      2 RES2    0.0000
     63 H30        1.5710    7.5091    2.0588 H         2 RES2    0.0000
     64 C32        3.0136    8.0579    3.3828 C.ar      2 RES2    0.0000
     65 H31        3.1661    8.9221    3.0186 H         2 RES2    0.0000
     66 C33        3.7310    7.6304    4.4772 C.ar      2 RES2    0.0000
     67 H32        4.3747    8.2045    4.8764 H         2 RES2    0.0000
     68 C34        3.5178    6.3640    5.0001 C.ar      2 RES2    0.0000
     69 H33        4.0319    6.0745    5.7436 H         2 RES2    0.0000
     70 N2        -0.0961   -0.4156    7.2216 N.2       2 RES2    0.0000
     71 O2        -0.0783    0.6317    8.1558 O.3       2 RES2    0.0000
     72 H34       -0.2519    0.3287    8.9201 H         2 RES2    0.0000
     73 C35        2.1361   12.7613    9.2661 C.ar      3 RES3    0.0000
     74 H35        1.8373   11.8910    9.5039 H         3 RES3    0.0000
     75 C36        1.9935   13.8098   10.1663 C.ar      3 RES3    0.0000
     76 H36        1.6013   13.6489   11.0166 H         3 RES3    0.0000
     77 C37        2.4164   15.0833    9.8382 C.ar      3 RES3    0.0000
     78 H37        2.3064   15.7991   10.4534 H         3 RES3    0.0000
     79 C38        3.0013   15.3052    8.6052 C.ar      3 RES3    0.0000
     80 H38        3.2999   16.1774    8.3741 H         3 RES3    0.0000
     81 C39        3.1534   14.2684    7.7080 C.ar      3 RES3    0.0000
     82 H39        3.5632   14.4334    6.8665 H         3 RES3    0.0000
     83 C40        2.7130   12.9765    8.0188 C.ar      3 RES3    0.0000
     84 C41        2.8332   11.8805    7.0238 C.2       3 RES3    0.0000
     85 C42        2.7541   10.4289    7.4148 C.3       3 RES3    0.0000
     86 H40        2.9466   10.3394    8.3810 H         3 RES3    0.0000
     87 H41        3.4406    9.9176    6.9180 H         3 RES3    0.0000
     88 C43        1.3641    9.8404    7.1160 C.3       3 RES3    0.0000
     89 H42        0.6841   10.3362    7.6392 H         3 RES3    0.0000
     90 H43        1.1595    9.9678    6.1556 H         3 RES3    0.0000
     91 C44        1.2671    8.3866    7.4460 C.2       3 RES3    0.0000
     92 H44        1.8911    7.7964    7.0416 H         3 RES3    0.0000
     93 C45        0.3651    7.8693    8.2678 C.2       3 RES3    0.0000
     94 H45       -0.2289    8.4876    8.6763 H         3 RES3    0.0000
     95 C46        0.1688    6.4584    8.6272 C.ar      3 RES3    0.0000
     96 C47        1.0033    5.4311    8.1744 C.ar      3 RES3    0.0000
     97 H46        1.7399    5.6401    7.6134 H         3 RES3    0.0000
     98 C48        0.7701    4.1169    8.5326 C.ar      3 RES3    0.0000
     99 H47        1.3437    3.4312    8.2092 H         3 RES3    0.0000
    100 C49       -0.2926    3.7906    9.3600 C.ar      3 RES3    0.0000
    101 H48       -0.4438    2.8866    9.6104 H         3 RES3    0.0000
    102 C50       -1.1307    4.7896    9.8192 C.ar      3 RES3    0.0000
    103 H49       -1.8620    4.5750   10.3865 H         3 RES3    0.0000
    104 C51       -0.9020    6.1072    9.4490 C.ar      3 RES3    0.0000
    105 H50       -1.4880    6.7854    9.7632 H         3 RES3    0.0000
    106 N3         2.9610   12.2651    5.8078 N.2       3 RES3    0.0000
    107 O3         3.0717   11.2040    4.8957 O.3       3 RES3    0.0000
    108 H51        3.1641   11.5104    4.1192 H         3 RES3    0.0000
    109 C52       -0.3062   13.2871    4.8558 C.ar      4 RES4    0.0000
    110 H52       -0.3393   12.3935    5.1769 H         4 RES4    0.0000
    111 C53       -0.1425   14.3361    5.7573 C.ar      4 RES4    0.0000
    112 H53       -0.0027   14.1539    6.6776 H         4 RES4    0.0000
    113 C54       -0.1842   15.6510    5.3057 C.ar      4 RES4    0.0000
    114 H54       -0.0665   16.3706    5.9153 H         4 RES4    0.0000
    115 C55       -0.3991   15.9025    3.9647 C.ar      4 RES4    0.0000
    116 H55       -0.4940   16.7983    3.6608 H         4 RES4    0.0000
    117 C56       -0.4820   14.8610    3.0667 C.ar      4 RES4    0.0000
    118 H56       -0.5700   15.0505    2.1395 H         4 RES4    0.0000
    119 C57       -0.4219   13.5343    3.4925 C.ar      4 RES4    0.0000
    120 C58       -0.5593   12.4248    2.5121 C.2       4 RES4    0.0000
    121 C59       -1.1607   11.0984    2.9344 C.3       4 RES4    0.0000
    122 H57       -1.7382   11.2360    3.7260 H         4 RES4    0.0000
    123 H58       -1.7258   10.7455    2.2013 H         4 RES4    0.0000
    124 C60       -0.0806   10.0919    3.2658 C.3       4 RES4    0.0000
    125 H59        0.4403    9.9046    2.4451 H         4 RES4    0.0000
    126 H60        0.5371   10.4957    3.9252 H         4 RES4    0.0000
    127 C61       -0.5938    8.7890    3.8187 C.2       4 RES4    0.0000
    128 H61        0.0437    8.2468    4.2686 H         4 RES4    0.0000
    129 C62       -1.7964    8.3177    3.7552 C.2       4 RES4    0.0000
    130 H62       -2.4579    8.8727    3.3603 H         4 RES4    0.0000
    131 C63       -2.2364    6.9938    4.2428 C.ar      4 RES4    0.0000
    132 C64       -3.4183    6.4443    3.7604 C.ar      4 RES4    0.0000
    133 H63       -3.9463    6.9206    3.1302 H         4 RES4    0.0000
    134 C65       -3.8201    5.1889    4.2085 C.ar      4 RES4    0.0000
    135 H64       -4.6334    4.8283    3.8737 H         4 RES4    0.0000
    136 C66       -3.0886    4.4329    5.1288 C.ar      4 RES4    0.0000
    137 H65       -3.3803    3.5726    5.4070 H         4 RES4    0.0000
    138 C67       -1.9151    4.9951    5.6165 C.ar      4 RES4    0.0000
    139 H66       -1.3903    4.5222    6.2518 H         4 RES4    0.0000
    140 C68       -1.5092    6.2563    5.1752 C.ar      4 RES4    0.0000
    141 H67       -0.7073    6.6261    5.5238 H         4 RES4    0.0000
    142 N4        -0.0742   12.6962    1.3633 N.2       4 RES4    0.0000
    143 O4        -0.1398   11.6628    0.3984 O.3       4 RES4    0.0000
    144 H68        0.2242   11.9251   -0.3142 H         4 RES4    0.0000
    145 C69       -0.0915   13.2950    4.9073 Du        5 SUP5    0.0000
    146 H69        0.0174   12.3831    5.1495 Du        5 SUP5    0.0000
    147 C70        0.0783   14.2823    5.8586 Du        5 SUP5    0.0000
    148 H70        0.2664   14.0481    6.7600 Du        5 SUP5    0.0000
    149 C71       -0.0259   15.6081    5.4946 Du        5 SUP5    0.0000
    150 H71        0.0565   16.2898    6.1522 Du        5 SUP5    0.0000
    151 C72       -0.2517   15.9464    4.1793 Du        5 SUP5    0.0000
    152 H72       -0.2649   16.8618    3.9286 Du        5 SUP5    0.0000
    153 C73       -0.4533   14.9831    3.2246 Du        5 SUP5    0.0000
    154 H73       -0.6198   15.2320    2.3215 Du        5 SUP5    0.0000
    155 C74       -0.4240   13.6297    3.5886 Du        5 SUP5    0.0000
    156 C75       -0.6211   12.5906    2.5515 Du        5 SUP5    0.0000
    157 C76       -1.4167   11.3329    2.8417 Du        5 SUP5    0.0000
    158 H74       -2.0513   11.1746    2.0982 Du        5 SUP5    0.0000
    159 H75       -1.9464   11.4699    3.6659 Du        5 SUP5    0.0000
    160 C77       -0.5416   10.1045    3.0134 Du        5 SUP5    0.0000
    161 H76        0.0709   10.2423    3.7775 Du        5 SUP5    0.0000
    162 H77        0.0070    9.9744    2.1995 Du        5 SUP5    0.0000
    163 C78       -1.3906    8.8608    3.2573 Du        5 SUP5    0.0000
    164 H78       -2.1257    8.7097    2.6752 Du        5 SUP5    0.0000
    165 C79       -1.1870    7.9933    4.1999 Du        5 SUP5    0.0000
    166 H79       -0.4714    8.1864    4.7957 Du        5 SUP5    0.0000
    167 C80       -1.9175    6.7554    4.4643 Du        5 SUP5    0.0000
    168 C81       -1.4138    5.8405    5.3933 Du        5 SUP5    0.0000
    169 H80       -0.6044    6.0276    5.8552 Du        5 SUP5    0.0000
    170 C82       -2.0958    4.6628    5.6354 Du        5 SUP5    0.0000
    171 H81       -1.7659    4.0565    6.2879 Du        5 SUP5    0.0000
    172 C83       -3.2622    4.3525    4.9365 Du        5 SUP5    0.0000
    173 H82       -3.7041    3.5275    5.1014 Du        5 SUP5    0.0000
    174 C84       -3.7793    5.2251    4.0093 Du        5 SUP5    0.0000
    175 H83       -4.5713    5.0192    3.5251 Du        5 SUP5    0.0000
    176 C85       -3.0992    6.4264    3.8067 Du        5 SUP5    0.0000
    177 H84       -3.4610    7.0515    3.1886 Du        5 SUP5    0.0000
    178 N5        -0.1875   12.8453    1.3719 Du        5 SUP5    0.0000
    179 O5        -0.3162   11.7541    0.4705 Du        5 SUP5    0.0000
    180 H85       -0.0412   11.9843   -0.2885 Du        5 SUP5    0.0000
    181 C86        0.0558   13.0968    4.8764 Du        5 SUP5    0.0000
    182 H86        0.2155   12.1952    5.1340 Du        5 SUP5    0.0000
    183 C87        0.0458   14.0838    5.8311 Du        5 SUP5    0.0000
    184 H87        0.2074   13.8620    6.7394 Du        5 SUP5    0.0000
    185 C88       -0.2057   15.3891    5.4860 Du        5 SUP5    0.0000
    186 H88       -0.2211   16.0632    6.1539 Du        5 SUP5    0.0000
    187 C89       -0.4503   15.7210    4.1570 Du        5 SUP5    0.0000
    188 H89       -0.5720   16.6288    3.9029 Du        5 SUP5    0.0000
    189 C90       -0.5142   14.7084    3.2075 Du        5 SUP5    0.0000
    190 H90       -0.8037   14.9077    2.3266 Du        5 SUP5    0.0000
    191 C91       -0.1471   13.4076    3.5337 Du        5 SUP5    0.0000
    192 C92       -0.0899   12.3387    2.4914 Du        5 SUP5    0.0000
    193 C93       -0.2798   10.9164    2.9121 Du        5 SUP5    0.0000
    194 H91        0.1741   10.7803    3.7810 Du        5 SUP5    0.0000
    195 H92        0.1621   10.3288    2.2476 Du        5 SUP5    0.0000
    196 C94       -1.7717   10.4810    3.0512 Du        5 SUP5    0.0000
    197 H93       -2.2924   11.1441    3.5698 Du        5 SUP5    0.0000
    198 H94       -2.1946   10.3557    2.1652 Du        5 SUP5    0.0000
    199 C95       -1.6564    9.1426    3.8101 Du        5 SUP5    0.0000
    200 H95       -1.0160    9.0323    4.5038 Du        5 SUP5    0.0000
    201 C96       -2.4195    8.2075    3.4942 Du        5 SUP5    0.0000
    202 H96       -3.0266    8.3839    2.7851 Du        5 SUP5    0.0000
    203 C97       -2.4917    6.8647    4.0900 Du        5 SUP5    0.0000
    204 C98       -3.5234    6.0434    3.6384 Du        5 SUP5    0.0000
    205 H97       -4.1197    6.3565    2.9705 Du        5 SUP5    0.0000
    206 C99       -3.6794    4.7809    4.1570 Du        5 SUP5    0.0000
    207 H98       -4.3925    4.2343    3.8514 Du        5 SUP5    0.0000
    208 C100      -2.8131    4.2903    5.1203 Du        5 SUP5    0.0000
    209 H99       -2.9169    3.4050    5.4499 Du        5 SUP5    0.0000
    210 C101      -1.7977    5.0878    5.5976 Du        5 SUP5    0.0000
    211 H100      -1.2022    4.7682    6.2655 Du        5 SUP5    0.0000
    212 C102      -1.6682    6.3828    5.0962 Du        5 SUP5    0.0000
    213 H101      -0.9969    6.9505    5.4534 Du        5 SUP5    0.0000
    214 N6         0.0408   12.7541    1.2861 Du        5 SUP5    0.0000
    215 O6        -0.5360   11.8348    0.3640 Du        5 SUP5    0.0000
    216 H102      -0.4272   12.1174   -0.4190 Du        5 SUP5    0.0000
@<TRIPOS>BOND
     1    1    2 1
     2    3    1 ar
     3    4    3 1
     4    5    3 ar
     5    6    5 1
     6    7    5 ar
     7    8    7 1
     8    9    7 ar
     9   10    9 1
    10   11    1 ar
    11   12   11 1
    12   13   12 1
    13   14   13 1
    14   15   13 1
    15   16   13 1
    16   17   16 1
    17   18   16 1
    18   19   16 1
    19   20   19 1
    20   21   19 2
    21   22   21 1
    22   23   21 1
    23   24   23 ar
    24   25   24 1
    25   26   24 ar
    26   27   26 1
    27   28   26 ar
    28   29   28 1
    29   30   28 ar
    30   31   30 1
    31   32   23 ar
    32   33   32 1
    33   34   12 2
    34   35   34 1
    35   36   35 1
    36   37   38 1
    37   39   37 ar
    38   40   39 1
    39   41   39 ar
    40   42   41 1
    41   43   41 ar
    42   44   43 1
    43   45   43 ar
    44   46   45 1
    45   47   37 ar
    46   48   47 1
    47   49   48 1
    48   50   49 1
    49   51   49 1
    50   52   49 1
    51   53   52 1
    52   54   52 1
    53   55   52 1
    54   56   55 1
    55   57   55 2
    56   58   57 1
    57   59   57 1
    58   60   59 ar
    59   61   60 1
    60   62   60 ar
    61   63   62 1
    62   64   62 ar
    63   65   64 1
    64   66   64 ar
    65   67   66 1
    66   68   59 ar
    67   69   68 1
    68   70   48 2
    69   71   70 1
    70   72   71 1
    71   73   74 1
    72   75   73 ar
    73   76   75 1
    74   77   75 ar
    75   78   77 1
    76   79   77 ar
    77   80   79 1
    78   81   79 ar
    79   82   81 1
    80   83   73 ar
    81   84   83 1
    82   85   84 1
    83   86   85 1
    84   87   85 1
    85   88   85 1
    86   89   88 1
    87   90   88 1
    88   91   88 1
    89   92   91 1
    90   93   91 2
    91   94   93 1
    92   95   93 1
    93   96   95 ar
    94   97   96 1
    95   98   96 ar
    96   99   98 1
    97  100   98 ar
    98  101  100 1
    99  102  100 ar
   100  103  102 1
   101  104   95 ar
   102  105  104 1
   103  106   84 2
   104  107  106 1
   105  108  107 1
   106  109  110 1
   107  111  109 ar
   108  112  111 1
   109  113  111 ar
   110  114  113 1
   111  115  113 ar
   112  116  115 1
   113  117  115 ar
   114  118  117 1
   115  119  109 ar
   116  120  119 1
   117  121  120 1
   118  122  121 1
   119  123  121 1
   120  124  121 1
   121  125  124 1
   122  126  124 1
   123  127  124 1
   124  128  127 1
   125  129  127 2
   126  130  129 1
   127  131  129 1
   128  132  131 ar
   129  133  132 1
   130  134  132 ar
   131  135  134 1
   132  136  134 ar
   133  137  136 1
   134  138  136 ar
   135  139  138 1
   136  140  131 ar
   137  141  140 1
   138  142  120 2
   139  143  142 1
   140  144  143 1
   141    9   11 ar
   142   30   32 ar
   143   45   47 ar
   144   66   68 ar
   145   81   83 ar
   146  102  104 ar
   147  117  119 ar
   148  138  140 ar
@<TRIPOS>SUBSTRUCTURE
     1 RES1 1
     2 RES2 37
     3 RES3 73
     4 RES4 109
     5 SUP5 145

@<TRIPOS>CRYSIN
  12.0544   14.3292   17.2828  94.1786  92.9499 113.2877   2 1

