# MOL2 file generated by ConQuest
# Please check atom types

@<TRIPOS>MOLECULE
TOCTEM
    45    47     1
SMALL
NO_CHARGES
****
Generated from CSD

@<TRIPOS>ATOM
      1 C1         3.2012    3.3633    2.5790 C.2       1 RES1    0.0000
      2 C2         3.7107    4.7835    2.5364 C.3       1 RES1    0.0000
      3 C3         4.1900    5.0209    3.9901 C.3       1 RES1    0.0000
      4 H1         5.1603    5.2156    4.0032 H         1 RES1    0.0000
      5 H2         3.7095    5.7888    4.3892 H         1 RES1    0.0000
      6 C4         3.8945    3.7411    4.7812 C.3       1 RES1    0.0000
      7 H3         3.2432    3.9455    5.5114 H         1 RES1    0.0000
      8 C5         2.6093    2.6120    1.4513 C.ar      1 RES1    0.0000
      9 C6         1.2329    2.3739    1.3906 C.ar      1 RES1    0.0000
     10 C7         0.2931    2.8528    2.4578 C.3       1 RES1    0.0000
     11 H4         0.8011    3.0681    3.2670 H         1 RES1    0.0000
     12 H5        -0.3590    2.1489    2.6582 H         1 RES1    0.0000
     13 H6        -0.1774    3.6530    2.1449 H         1 RES1    0.0000
     14 C8         0.7370    1.6700    0.2923 C.ar      1 RES1    0.0000
     15 H7        -0.1952    1.4966    0.2348 H         1 RES1    0.0000
     16 C9         1.5722    1.2179   -0.7169 C.ar      1 RES1    0.0000
     17 H8         1.2113    0.7397   -1.4545 H         1 RES1    0.0000
     18 C10        2.9220    1.4615   -0.6528 C.ar      1 RES1    0.0000
     19 H9         3.4950    1.1560   -1.3450 H         1 RES1    0.0000
     20 C11        3.4448    2.1544    0.4254 C.ar      1 RES1    0.0000
     21 H10        4.3786    2.3202    0.4696 H         1 RES1    0.0000
     22 C12        2.5565    5.7186    2.1703 C.3       1 RES1    0.0000
     23 H11        2.2358    5.5040    1.2694 H         1 RES1    0.0000
     24 H12        2.8687    6.6469    2.1926 H         1 RES1    0.0000
     25 H13        1.8261    5.6030    2.8134 H         1 RES1    0.0000
     26 C13        4.8570    4.9590    1.5279 C.3       1 RES1    0.0000
     27 H14        5.5950    4.3583    1.7648 H         1 RES1    0.0000
     28 H15        5.1717    5.8865    1.5480 H         1 RES1    0.0000
     29 H16        4.5362    4.7429    0.6267 H         1 RES1    0.0000
     30 C14        5.1107    3.0055    5.3705 C.3       1 RES1    0.0000
     31 H17        5.5005    3.5594    6.0924 H         1 RES1    0.0000
     32 H18        4.8048    2.1558    5.7760 H         1 RES1    0.0000
     33 C15        6.1855    2.7028    4.3532 C.ar      1 RES1    0.0000
     34 C16        6.0054    1.7037    3.3900 C.ar      1 RES1    0.0000
     35 H19        5.2165    1.1739    3.4004 H         1 RES1    0.0000
     36 C17        6.9709    1.4814    2.4198 C.ar      1 RES1    0.0000
     37 H20        6.8331    0.8112    1.7609 H         1 RES1    0.0000
     38 C18        8.1371    2.2314    2.4057 C.ar      1 RES1    0.0000
     39 H21        8.7942    2.0780    1.7370 H         1 RES1    0.0000
     40 C19        8.3393    3.2016    3.3665 C.ar      1 RES1    0.0000
     41 H22        9.1442    3.7067    3.3685 H         1 RES1    0.0000
     42 C20        7.3668    3.4404    4.3321 C.ar      1 RES1    0.0000
     43 H23        7.5109    4.1154    4.9841 H         1 RES1    0.0000
     44 N1         3.2483    2.8567    3.7760 N.pl3     1 RES1    0.0000
     45 O1         2.8389    1.6855    4.1521 O.2       1 RES1    0.0000
@<TRIPOS>BOND
     1    1    2 1
     2    2    3 1
     3    3    4 1
     4    5    3 1
     5    6    3 1
     6    7    6 1
     7    8    1 1
     8    9    8 ar
     9   10    9 1
    10   11   10 1
    11   12   10 1
    12   13   10 1
    13   14    9 ar
    14   15   14 1
    15   16   14 ar
    16   17   16 1
    17   18   16 ar
    18   19   18 1
    19   20    8 ar
    20   21   20 1
    21   22    2 1
    22   23   22 1
    23   24   22 1
    24   25   22 1
    25   26    2 1
    26   27   26 1
    27   28   26 1
    28   29   26 1
    29   30    6 1
    30   31   30 1
    31   32   30 1
    32   33   30 1
    33   34   33 ar
    34   35   34 1
    35   36   34 ar
    36   37   36 1
    37   38   36 ar
    38   39   38 1
    39   40   38 ar
    40   41   40 1
    41   42   33 ar
    42   43   42 1
    43   44    1 2
    44   45   44 1
    45    6   44 1
    46   18   20 ar
    47   40   42 ar
@<TRIPOS>SUBSTRUCTURE
     1 RES1 1

@<TRIPOS>CRYSIN
  11.7175    6.8808   20.2260  90.0000 100.3520  90.0000 231 1

