# MOL2 file generated by ConQuest
# Please check atom types

@<TRIPOS>MOLECULE
TOFNAD
    37    37     1
SMALL
NO_CHARGES
****
Generated from CSD

@<TRIPOS>ATOM
      1 O1         0.3717    0.1264    1.3785 O.2       1 RES1    0.0000
      2 N1        -2.3936   -0.1069    0.9696 N.pl3     1 RES1    0.0000
      3 O2        -2.4592    1.0791    0.7453 O.2       1 RES1    0.0000
      4 O3        -2.7436   -1.0236    0.2506 O.2       1 RES1    0.0000
      5 O4        -0.4985    0.6783    3.8355 O.2       1 RES1    0.0000
      6 C1        -3.9991   -1.3936    4.8050 C.2       1 RES1    0.0000
      7 C2        -2.3470   -1.7491    2.9879 C.3       1 RES1    0.0000
      8 C3        -1.6704   -2.2106    5.3393 C.2       1 RES1    0.0000
      9 O5        -0.0213   -2.0081    1.4907 O.2       1 RES1    0.0000
     10 O6        -2.5529    1.2661    3.4001 O.2       1 RES1    0.0000
     11 N2        -0.3003   -0.8345    1.6786 N.pl3     1 RES1    0.0000
     12 O7        -2.2456    0.3381    6.3155 O.2       1 RES1    0.0000
     13 C4        -3.7169   -1.4028    3.5024 C.2       1 RES1    0.0000
     14 N3        -2.8089   -0.6176    6.8036 N.pl3     1 RES1    0.0000
     15 O8        -3.1937   -0.6680    7.9446 O.2       1 RES1    0.0000
     16 N4        -1.5496    0.6053    3.2221 N.pl3     1 RES1    0.0000
     17 C5        -3.0302   -1.8673    5.8538 C.3       1 RES1    0.0000
     18 C6        -1.4021   -2.2116    4.0531 C.2       1 RES1    0.0000
     19 C7        -1.6891   -0.5488    2.2591 C.3       1 RES1    0.0000
     20 C8        -5.3747   -1.0041    5.3195 C.3       1 RES1    0.0000
     21 C9        -4.7775   -1.1181    2.4668 C.3       1 RES1    0.0000
     22 C10       -0.6308   -2.5847    6.3584 C.3       1 RES1    0.0000
     23 C11       -3.6304   -2.9814    6.6947 C.3       1 RES1    0.0000
     24 H1        -2.4474   -2.4922    2.3250 H         1 RES1    0.0000
     25 H2        -0.5494   -2.5281    3.7794 H         1 RES1    0.0000
     26 H3        -5.3031   -0.7060    6.2495 H         1 RES1    0.0000
     27 H4        -5.9735   -1.7789    5.2700 H         1 RES1    0.0000
     28 H5        -5.7359   -0.2775    4.7688 H         1 RES1    0.0000
     29 H6        -4.6481   -1.7080    1.6951 H         1 RES1    0.0000
     30 H7        -4.7094   -0.1840    2.1766 H         1 RES1    0.0000
     31 H8        -5.6639   -1.2764    2.8527 H         1 RES1    0.0000
     32 H9        -0.9363   -3.3678    6.8662 H         1 RES1    0.0000
     33 H10       -0.4907   -1.8344    6.9751 H         1 RES1    0.0000
     34 H11        0.2106   -2.7964    5.9065 H         1 RES1    0.0000
     35 H12       -4.5239   -2.7152    6.9982 H         1 RES1    0.0000
     36 H13       -3.0576   -3.1499    7.4730 H         1 RES1    0.0000
     37 H14       -3.6983   -3.7963    6.1572 H         1 RES1    0.0000
@<TRIPOS>BOND
     1    1   11 2
     2    2    3 2
     3    4    2 2
     4    5   16 2
     5    6   13 2
     6    7   13 1
     7    8   17 1
     8    9   11 2
     9   10   16 2
    10   11   19 1
    11   12   14 2
    12   13   21 1
    13   14   15 2
    14   16   19 1
    15   17    6 1
    16   18    7 1
    17   19    2 1
    18   20    6 1
    19   21   29 1
    20   22    8 1
    21   23   17 1
    22   24    7 1
    23   25   18 1
    24   26   20 1
    25   27   20 1
    26   28   20 1
    27   30   21 1
    28   31   21 1
    29   32   22 1
    30   33   22 1
    31   34   22 1
    32   35   23 1
    33   36   23 1
    34   37   23 1
    35    7   19 1
    36    8   18 2
    37   14   17 1
@<TRIPOS>SUBSTRUCTURE
     1 RES1 1

@<TRIPOS>CRYSIN
   8.3170   10.2770   33.1000  90.0000  94.9000  90.0000  15 1

