# MOL2 file generated by ConQuest
# Please check atom types

@<TRIPOS>MOLECULE
TOFNEH
    40    40     2
SMALL
NO_CHARGES
****
Generated from CSD

@<TRIPOS>ATOM
      1 O1        -3.7892    9.9274    3.4801 O.2       1 RES1    0.0000
      2 O2        -4.2239   12.0193    3.8276 O.2       1 RES1    0.0000
      3 O3        -1.6140   12.4568    4.5679 O.2       1 RES1    0.0000
      4 O4        -2.5310   12.9937    6.4506 O.2       1 RES1    0.0000
      5 O5        -5.2476   11.2653    6.2558 O.2       1 RES1    0.0000
      6 O6        -3.2573   10.8042    7.7192 O.2       1 RES1    0.0000
      7 N1        -3.7486   10.9355    4.1222 N.pl3     1 RES1    0.0000
      8 N2        -2.3292   12.2515    5.5482 N.pl3     1 RES1    0.0000
      9 N3        -4.1001   10.9910    6.5893 N.pl3     1 RES1    0.0000
     10 C1        -2.1388    9.7272    5.6869 C.ar      1 RES1    0.0000
     11 C2        -2.6644    8.4431    5.8770 C.ar      1 RES1    0.0000
     12 C3        -1.7572    7.3509    6.0189 C.ar      1 RES1    0.0000
     13 C4        -0.3943    7.5630    5.9783 C.ar      1 RES1    0.0000
     14 C5         0.1184    8.8537    5.8038 C.ar      1 RES1    0.0000
     15 C6        -0.7406    9.9039    5.6807 C.ar      1 RES1    0.0000
     16 C7        -3.0339   10.8917    5.4999 C.3       1 RES1    0.0000
     17 C8        -4.1456    8.1637    5.9659 C.3       1 RES1    0.0000
     18 C9        -2.3184    5.9625    6.2417 C.3       1 RES1    0.0000
     19 C10        0.5660    6.3849    6.1311 C.3       1 RES1    0.0000
     20 C11        1.6103    9.1079    5.7602 C.3       1 RES1    0.0000
     21 O7         3.3414    6.0685    4.1456 O.2       2 RES2    0.0000
     22 O8         3.4561    4.3267    2.8988 O.2       2 RES2    0.0000
     23 O9         2.8455    5.8834   -0.2322 O.2       2 RES2    0.0000
     24 O10        4.5358    4.7626    0.5159 O.2       2 RES2    0.0000
     25 O11        5.5817    7.3442    0.9024 O.2       2 RES2    0.0000
     26 O12        5.6975    6.8864    3.0110 O.2       2 RES2    0.0000
     27 N4         3.4829    5.5351    3.0796 N.pl3     2 RES2    0.0000
     28 N5         3.6670    5.5906    0.5953 N.pl3     2 RES2    0.0000
     29 N6         5.1429    6.9335    1.9590 N.pl3     2 RES2    0.0000
     30 C12        2.6924    7.6000    1.9169 C.ar      2 RES2    0.0000
     31 C13        1.3099    7.3846    1.9465 C.ar      2 RES2    0.0000
     32 C14        0.4777    8.4616    1.9995 C.ar      2 RES2    0.0000
     33 C15        0.9810    9.7962    1.9590 C.ar      2 RES2    0.0000
     34 C16        2.3537    9.9964    1.9247 C.ar      2 RES2    0.0000
     35 C17        3.1789    8.9059    1.8936 C.ar      2 RES2    0.0000
     36 C18        3.6673    6.4438    1.8749 C.3       2 RES2    0.0000
     37 C19        0.7259    5.9911    1.9699 C.3       2 RES2    0.0000
     38 C20       -1.0288    8.2580    1.9964 C.3       2 RES2    0.0000
     39 C21        0.0454   10.9961    1.9964 C.3       2 RES2    0.0000
     40 C22        2.9543   11.3764    1.9060 C.3       2 RES2    0.0000
@<TRIPOS>BOND
     1    1    7 2
     2    2    7 2
     3    3    8 2
     4    4    8 2
     5    5    9 2
     6    6    9 2
     7    7   16 1
     8    8   16 1
     9    9   16 1
    10   10   11 ar
    11   11   12 ar
    12   12   13 ar
    13   13   14 ar
    14   14   15 ar
    15   15   10 ar
    16   16   10 1
    17   17   11 1
    18   18   12 1
    19   19   13 1
    20   20   14 1
    21   21   27 2
    22   22   27 2
    23   23   28 2
    24   24   28 2
    25   25   29 2
    26   26   29 2
    27   27   36 1
    28   28   36 1
    29   29   36 1
    30   30   31 ar
    31   31   32 ar
    32   32   33 ar
    33   33   34 ar
    34   34   35 ar
    35   35   30 ar
    36   36   30 1
    37   37   31 1
    38   38   32 1
    39   39   33 1
    40   40   34 1
@<TRIPOS>SUBSTRUCTURE
     1 RES1 1
     2 RES2 21

@<TRIPOS>CRYSIN
   9.8460   16.8290   15.5850  90.0000  90.2500  90.0000  14 2

