# MOL2 file generated by ConQuest
# Please check atom types

@<TRIPOS>MOLECULE
TOGWIX
    39    38     2
SMALL
NO_CHARGES
****
Generated from CSD

@<TRIPOS>ATOM
      1 O1         4.5956   17.0410   13.0185 O.2       1 RES1    0.0000
      2 O2         5.4758   15.3535   14.0001 O.2       1 RES1    0.0000
      3 O3         1.7305   11.5039   14.8137 O.2       1 RES1    0.0000
      4 O4         0.4504   16.7623   10.9623 O.2       1 RES1    0.0000
      5 O5        -0.6671   14.9673   10.7132 O.2       1 RES1    0.0000
      6 N1         4.5799   15.8805   13.3786 N.pl3     1 RES1    0.0000
      7 N2         0.2829   15.5720   11.1507 N.pl3     1 RES1    0.0000
      8 C1         3.4053   15.0671   13.0209 C.ar      1 RES1    0.0000
      9 C2         3.3504   13.7425   13.4195 C.ar      1 RES1    0.0000
     10 H1         4.0553   13.3577   13.8883 H         1 RES1    0.0000
     11 C3         2.2208   13.0044   13.1048 C.ar      1 RES1    0.0000
     12 C4         2.1239   11.5986   13.6772 C.2       1 RES1    0.0000
     13 C5         2.5380   10.3778   12.8546 C.3       1 RES1    0.0000
     14 C6         1.4817   10.0609   11.7628 C.3       1 RES1    0.0000
     15 H2         1.7354    9.2240   11.3430 H         1 RES1    0.0000
     16 H3         0.6336    9.9107   12.2080 H         1 RES1    0.0000
     17 C7         1.2458   11.0833   10.6500 C.3       1 RES1    0.0000
     18 H4         2.0205   11.6655   10.5976 H         1 RES1    0.0000
     19 H5         1.1795   10.6091    9.8063 H         1 RES1    0.0000
     20 C8         0.0021   11.9491   10.8176 C.3       1 RES1    0.0000
     21 H6        -0.7826   11.3857   10.7271 H         1 RES1    0.0000
     22 H7        -0.0214   12.6025   10.0993 H         1 RES1    0.0000
     23 C9        -0.0770   12.6884   12.1548 C.3       1 RES1    0.0000
     24 H8        -0.8716   13.2442   12.1642 H         1 RES1    0.0000
     25 H9        -0.1575   12.0411   12.8718 H         1 RES1    0.0000
     26 C10        1.1353   13.5527   12.4016 C.ar      1 RES1    0.0000
     27 C11        1.2921   14.8838   11.9876 C.ar      1 RES1    0.0000
     28 C12        2.3968   15.6509   12.2981 C.ar      1 RES1    0.0000
     29 H10        2.4553   16.5386   12.0247 H         1 RES1    0.0000
     30 C13        2.6377    9.1710   13.7976 C.3       1 RES1    0.0000
     31 H11        3.2165    9.3864   14.5321 H         1 RES1    0.0000
     32 H12        2.9941    8.4200   13.3182 H         1 RES1    0.0000
     33 H13        1.7640    8.9521   14.1314 H         1 RES1    0.0000
     34 C14        3.9042   10.6255   12.2021 C.3       1 RES1    0.0000
     35 H14        3.8558   11.4033   11.6420 H         1 RES1    0.0000
     36 H15        4.1480    9.8637   11.6699 H         1 RES1    0.0000
     37 H16        4.5649   10.7636   12.8857 H         1 RES1    0.0000
     38 O6         0.6300   16.2413   10.2488 Du        2 SUP2    0.0000
     39 O7        -0.8524   15.2533   11.1876 Du        2 SUP2    0.0000
@<TRIPOS>BOND
     1    1    6 2
     2    2    6 2
     3    3   12 2
     4    4    7 2
     5    5    7 2
     6    6    8 1
     7    7   27 1
     8    8    9 ar
     9    9   10 1
    10   11    9 ar
    11   12   11 1
    12   13   12 1
    13   14   13 1
    14   15   14 1
    15   16   14 1
    16   17   14 1
    17   18   17 1
    18   19   17 1
    19   20   17 1
    20   21   20 1
    21   22   20 1
    22   23   20 1
    23   24   23 1
    24   25   23 1
    25   26   11 ar
    26   27   26 ar
    27   28    8 ar
    28   29   28 1
    29   30   13 1
    30   31   30 1
    31   32   30 1
    32   33   30 1
    33   34   13 1
    34   35   34 1
    35   36   34 1
    36   37   34 1
    37   23   26 1
    38   27   28 ar
@<TRIPOS>SUBSTRUCTURE
     1 RES1 1
     2 SUP2 38

@<TRIPOS>CRYSIN
   7.1271   19.5631   19.9315  90.0000  90.0000  90.0000  61 1

