# MOL2 file generated by ConQuest
# Please check atom types

@<TRIPOS>MOLECULE
TOGWIX01
    37    38     1
SMALL
NO_CHARGES
****
Generated from CSD

@<TRIPOS>ATOM
      1 O1         2.4528   16.9585   12.7000 O.2       1 RES1    0.0000
      2 O2         1.5643   15.2538   13.6949 O.2       1 RES1    0.0000
      3 O3         5.3551   11.4388   14.5632 O.2       1 RES1    0.0000
      4 O4         6.6627   16.7048   10.7216 O.2       1 RES1    0.0000
      5 O5         7.8356   14.9256   10.5954 O.2       1 RES1    0.0000
      6 N1         2.4719   15.7964   13.0763 N.pl3     1 RES1    0.0000
      7 N2         6.8535   15.5241   10.9688 N.pl3     1 RES1    0.0000
      8 C1         3.6653   14.9941   12.7521 C.ar      1 RES1    0.0000
      9 C2         3.7178   13.6674   13.1429 C.ar      1 RES1    0.0000
     10 H1         2.9881   13.2649   13.5991 H         1 RES1    0.0000
     11 C3         4.8680   12.9364   12.8508 C.ar      1 RES1    0.0000
     12 C4         4.9750   11.5332   13.4202 C.2       1 RES1    0.0000
     13 C5         4.5808   10.3071   12.5931 C.3       1 RES1    0.0000
     14 C6         5.6678    9.9967   11.5206 C.3       1 RES1    0.0000
     15 H2         6.5273    9.8548   11.9911 H         1 RES1    0.0000
     16 H3         5.4289    9.1404   11.0864 H         1 RES1    0.0000
     17 C7         5.9033   11.0324   10.4170 C.3       1 RES1    0.0000
     18 H4         5.9805   10.5594    9.5507 H         1 RES1    0.0000
     19 H5         5.1112   11.6241   10.3654 H         1 RES1    0.0000
     20 C8         7.1428   11.8958   10.6130 C.3       1 RES1    0.0000
     21 H6         7.1803   12.5662    9.8848 H         1 RES1    0.0000
     22 H7         7.9448   11.3204   10.5315 H         1 RES1    0.0000
     23 C9         7.1988   12.6275   11.9567 C.3       1 RES1    0.0000
     24 H8         7.2626   11.9628   12.6886 H         1 RES1    0.0000
     25 H9         8.0107   13.1929   11.9872 H         1 RES1    0.0000
     26 C10        5.9720   13.4989   12.1761 C.ar      1 RES1    0.0000
     27 C11        5.8175   14.8267   11.7707 C.ar      1 RES1    0.0000
     28 C12        4.7035   15.5934   12.0624 C.ar      1 RES1    0.0000
     29 H10        4.6531   16.5038   11.7976 H         1 RES1    0.0000
     30 C13        3.2292   10.5415   11.9121 C.3       1 RES1    0.0000
     31 H11        2.5336   10.6470   12.5948 H         1 RES1    0.0000
     32 H12        3.0137    9.7750   11.3404 H         1 RES1    0.0000
     33 H13        3.2753   11.3535   11.3658 H         1 RES1    0.0000
     34 C14        4.4758    9.0945   13.5261 C.3       1 RES1    0.0000
     35 H14        5.3594    8.8913   13.8981 H         1 RES1    0.0000
     36 H15        4.1475    8.3210   13.0208 H         1 RES1    0.0000
     37 H16        3.8540    9.2961   14.2557 H         1 RES1    0.0000
@<TRIPOS>BOND
     1    1    6 2
     2    2    6 2
     3    3   12 2
     4    4    7 2
     5    5    7 2
     6    6    8 1
     7    7   27 1
     8    8    9 ar
     9    9   10 1
    10   11    9 ar
    11   12   11 1
    12   13   12 1
    13   14   13 1
    14   15   14 1
    15   16   14 1
    16   17   14 1
    17   18   17 1
    18   19   17 1
    19   20   17 1
    20   21   20 1
    21   22   20 1
    22   23   20 1
    23   24   23 1
    24   25   23 1
    25   26   11 ar
    26   27   26 ar
    27   28    8 ar
    28   29   28 1
    29   30   13 1
    30   31   30 1
    31   32   30 1
    32   33   30 1
    33   34   13 1
    34   35   34 1
    35   36   34 1
    36   37   34 1
    37   23   26 1
    38   27   28 ar
@<TRIPOS>SUBSTRUCTURE
     1 RES1 1

@<TRIPOS>CRYSIN
   7.0910   19.4643   19.5390  90.0000  90.0000  90.0000  61 1

