# MOL2 file generated by ConQuest
# Please check atom types

@<TRIPOS>MOLECULE
TOHXAP
    56    58     2
SMALL
NO_CHARGES
****
Generated from CSD

@<TRIPOS>ATOM
      1 O1        -4.7725    2.4892   11.2840 O.2       1 RES1    0.0000
      2 O2        -3.2553    1.9652    9.8714 O.2       1 RES1    0.0000
      3 N1        -3.6755    2.6801   10.7705 N.pl3     1 RES1    0.0000
      4 N2        -1.3897    0.3591    7.8967 N.3       1 RES1    0.0000
      5 C1        -1.5497    3.9896   10.7791 C.ar      1 RES1    0.0000
      6 C2        -2.8510    3.7970   11.2529 C.ar      1 RES1    0.0000
      7 C3        -3.4251    4.6356   12.1953 C.ar      1 RES1    0.0000
      8 C4        -2.7137    5.6933   12.6915 C.ar      1 RES1    0.0000
      9 C5        -1.4301    5.9282   12.2316 C.ar      1 RES1    0.0000
     10 C6        -0.8565    5.0953   11.3030 C.ar      1 RES1    0.0000
     11 C7        -0.8696    3.1697    9.8281 C.1       1 RES1    0.0000
     12 C8        -0.1642    2.5812    9.0552 C.1       1 RES1    0.0000
     13 C9         0.5590    1.7675    8.1440 C.ar      1 RES1    0.0000
     14 C10       -0.0779    0.6336    7.6011 C.ar      1 RES1    0.0000
     15 C11        0.6438   -0.1875    6.7434 C.ar      1 RES1    0.0000
     16 C12        1.9324    0.1135    6.4011 C.ar      1 RES1    0.0000
     17 C13        2.5679    1.2356    6.9164 C.ar      1 RES1    0.0000
     18 C14        1.8806    2.0527    7.7861 C.ar      1 RES1    0.0000
     19 O3         7.9587    2.6225   11.5503 O.2       2 RES2    0.0000
     20 O4         7.8523    2.0442    9.4996 O.2       2 RES2    0.0000
     21 N3         7.5182    2.7659   10.4160 N.pl3     2 RES2    0.0000
     22 N4         7.8982    0.3174    6.8385 N.3       2 RES2    0.0000
     23 C15        5.9145    3.9727    8.9394 C.ar      2 RES2    0.0000
     24 C16        6.5579    3.8496   10.1791 C.ar      2 RES2    0.0000
     25 C17        6.3285    4.7243   11.2270 C.ar      2 RES2    0.0000
     26 C18        5.4238    5.7407   11.0662 C.ar      2 RES2    0.0000
     27 C19        4.7447    5.8763    9.8610 C.ar      2 RES2    0.0000
     28 C20        4.9976    5.0207    8.8218 C.ar      2 RES2    0.0000
     29 C21        6.0997    3.1177    7.8051 C.1       2 RES2    0.0000
     30 C22        6.1540    2.4982    6.7798 C.1       2 RES2    0.0000
     31 C23        6.2712    1.6410    5.6507 C.ar      2 RES2    0.0000
     32 C24        7.1255    0.5240    5.7285 C.ar      2 RES2    0.0000
     33 C25        7.1822   -0.3405    4.6288 C.ar      2 RES2    0.0000
     34 C26        6.4153   -0.1033    3.5100 C.ar      2 RES2    0.0000
     35 C27        5.5885    1.0069    3.4184 C.ar      2 RES2    0.0000
     36 C28        5.5262    1.8793    4.4887 C.ar      2 RES2    0.0000
     37 H1        -1.7458   -0.3608    7.5907 H         1 RES1    0.0000
     38 H2        -1.7377    0.8199    8.5071 H         1 RES1    0.0000
     39 H3        -4.3063    4.4272   12.4650 H         1 RES1    0.0000
     40 H4        -3.1744    6.2868   13.4143 H         1 RES1    0.0000
     41 H5        -0.9137    6.6691   12.5342 H         1 RES1    0.0000
     42 H6         0.0544    5.2071   10.9763 H         1 RES1    0.0000
     43 H7         0.1673   -0.9555    6.3769 H         1 RES1    0.0000
     44 H8         2.3813   -0.4614    5.7890 H         1 RES1    0.0000
     45 H9         3.4333    1.4626    6.7054 H         1 RES1    0.0000
     46 H10        2.2425    2.8371    8.1769 H         1 RES1    0.0000
     47 H11        8.3462   -0.4636    6.9302 H         2 RES2    0.0000
     48 H12        7.6333    0.7256    7.5423 H         2 RES2    0.0000
     49 H13        6.8329    4.6565   12.1123 H         2 RES2    0.0000
     50 H14        5.2462    6.3071   11.8460 H         2 RES2    0.0000
     51 H15        4.0862    6.5341    9.7330 H         2 RES2    0.0000
     52 H16        4.5080    5.1122    7.9797 H         2 RES2    0.0000
     53 H17        7.7925   -1.1062    4.7861 H         2 RES2    0.0000
     54 H18        6.5603   -0.6579    2.7821 H         2 RES2    0.0000
     55 H19        4.9745    1.1486    2.6438 H         2 RES2    0.0000
     56 H20        4.8780    2.6597    4.4835 H         2 RES2    0.0000
@<TRIPOS>BOND
     1    1    3 2
     2    2    3 2
     3    3    6 1
     4    4   14 1
     5    5    6 ar
     6    6    7 ar
     7    7    8 ar
     8    8    9 ar
     9    9   10 ar
    10   10    5 ar
    11   11    5 1
    12   12   11 3
    13   13   12 1
    14   14   13 ar
    15   15   14 ar
    16   16   15 ar
    17   17   16 ar
    18   18   13 ar
    19   19   21 2
    20   20   21 2
    21   21   24 1
    22   22   32 1
    23   23   24 ar
    24   24   25 ar
    25   25   26 ar
    26   26   27 ar
    27   27   28 ar
    28   28   23 ar
    29   29   23 1
    30   30   29 3
    31   31   30 1
    32   32   31 ar
    33   33   32 ar
    34   34   33 ar
    35   35   34 ar
    36   36   31 ar
    37   37    4 1
    38   38    4 1
    39   39    7 1
    40   40    8 1
    41   41    9 1
    42   42   10 1
    43   43   15 1
    44   44   16 1
    45   45   17 1
    46   46   18 1
    47   47   22 1
    48   48   22 1
    49   49   25 1
    50   50   26 1
    51   51   27 1
    52   52   28 1
    53   53   33 1
    54   54   34 1
    55   55   35 1
    56   56   36 1
    57   17   18 ar
    58   35   36 ar
@<TRIPOS>SUBSTRUCTURE
     1 RES1 1
     2 RES2 19

@<TRIPOS>CRYSIN
  24.4450    5.6470   18.5840  90.0000 111.5000  90.0000  14 1

