# MOL2 file generated by ConQuest
# Please check atom types

@<TRIPOS>MOLECULE
TOHXAP01
    56    58     2
SMALL
NO_CHARGES
****
Generated from CSD

@<TRIPOS>ATOM
      1 O1        -3.2535    1.9661    9.8551 O.2       1 RES1    0.0000
      2 O2        -4.7654    2.4875   11.2694 O.2       1 RES1    0.0000
      3 N1        -1.3880    0.3624    7.8875 N.3       1 RES1    0.0000
      4 N2        -3.6729    2.6724   10.7530 N.pl3     1 RES1    0.0000
      5 C1        -0.0841    0.6251    7.5843 C.ar      1 RES1    0.0000
      6 C2         0.6413   -0.1933    6.7251 C.ar      1 RES1    0.0000
      7 C3         1.9240    0.1133    6.3902 C.ar      1 RES1    0.0000
      8 C4         2.5591    1.2356    6.9047 C.ar      1 RES1    0.0000
      9 C5         1.8766    2.0507    7.7708 C.ar      1 RES1    0.0000
     10 C6         0.5553    1.7615    8.1316 C.ar      1 RES1    0.0000
     11 C7        -0.1694    2.5805    9.0473 C.1       1 RES1    0.0000
     12 C8        -0.8704    3.1645    9.8166 C.1       1 RES1    0.0000
     13 C9        -1.5520    3.9807   10.7645 C.ar      1 RES1    0.0000
     14 C10       -0.8581    5.0850   11.2872 C.ar      1 RES1    0.0000
     15 C11       -1.4271    5.9181   12.2158 C.ar      1 RES1    0.0000
     16 C12       -2.7131    5.6836   12.6688 C.ar      1 RES1    0.0000
     17 C13       -3.4281    4.6250   12.1731 C.ar      1 RES1    0.0000
     18 C14       -2.8561    3.7885   11.2380 C.ar      1 RES1    0.0000
     19 O3         7.8417    2.0400    9.4856 O.2       2 RES2    0.0000
     20 O4         7.9506    2.6200   11.5350 O.2       2 RES2    0.0000
     21 N3         7.8796    0.3174    6.8263 N.3       2 RES2    0.0000
     22 N4         7.5105    2.7609   10.4066 N.pl3     2 RES2    0.0000
     23 C15        7.1126    0.5237    5.7192 C.ar      2 RES2    0.0000
     24 C16        7.1637   -0.3376    4.6204 C.ar      2 RES2    0.0000
     25 C17        6.4150   -0.1009    3.5085 C.ar      2 RES2    0.0000
     26 C18        5.5795    1.0107    3.4152 C.ar      2 RES2    0.0000
     27 C19        5.5156    1.8697    4.4788 C.ar      2 RES2    0.0000
     28 C20        6.2579    1.6414    5.6400 C.ar      2 RES2    0.0000
     29 C21        6.1441    2.5027    6.7738 C.1       2 RES2    0.0000
     30 C22        6.0928    3.1149    7.7962 C.1       2 RES2    0.0000
     31 C23        5.9055    3.9615    8.9285 C.ar      2 RES2    0.0000
     32 C24        4.9833    5.0117    8.8143 C.ar      2 RES2    0.0000
     33 C25        4.7412    5.8724    9.8538 C.ar      2 RES2    0.0000
     34 C26        5.4084    5.7338   11.0538 C.ar      2 RES2    0.0000
     35 C27        6.3108    4.7163   11.2069 C.ar      2 RES2    0.0000
     36 C28        6.5523    3.8420   10.1628 C.ar      2 RES2    0.0000
     37 H1        -1.7860    0.7610    8.6158 H         1 RES1    0.0000
     38 H2        -1.7245   -0.3889    7.5798 H         1 RES1    0.0000
     39 H3         7.6757    0.7215    7.5625 H         2 RES2    0.0000
     40 H4         8.3128   -0.4509    6.8564 H         2 RES2    0.0000
     41 H5         0.1398   -0.9808    6.3487 H         1 RES1    0.0000
     42 H6         2.4215   -0.4058    5.7807 H         1 RES1    0.0000
     43 H7         3.4733    1.4768    6.7044 H         1 RES1    0.0000
     44 H8         2.3001    2.8522    8.2014 H         1 RES1    0.0000
     45 H9         0.0685    5.2479   10.9657 H         1 RES1    0.0000
     46 H10       -0.9316    6.6740   12.5870 H         1 RES1    0.0000
     47 H11       -3.1476    6.2005   13.3104 H         1 RES1    0.0000
     48 H12       -4.3529    4.4643   12.4230 H         1 RES1    0.0000
     49 H13        7.7720   -1.1274    4.7223 H         2 RES2    0.0000
     50 H14        6.5177   -0.5975    2.8006 H         2 RES2    0.0000
     51 H15        5.0130    1.1386    2.5985 H         2 RES2    0.0000
     52 H16        4.9257    2.6324    4.4806 H         2 RES2    0.0000
     53 H17        4.5138    5.1126    7.9856 H         2 RES2    0.0000
     54 H18        4.0917    6.6007    9.7260 H         2 RES2    0.0000
     55 H19        5.2533    6.2794   11.7962 H         2 RES2    0.0000
     56 H20        6.8315    4.6278   11.9913 H         2 RES2    0.0000
@<TRIPOS>BOND
     1    1    4 2
     2    2    4 2
     3    3    5 1
     4    4   18 1
     5    5    6 ar
     6    6    7 ar
     7    7    8 ar
     8    8    9 ar
     9    9   10 ar
    10   10    5 ar
    11   11   10 1
    12   12   11 3
    13   13   12 1
    14   14   13 ar
    15   15   14 ar
    16   16   15 ar
    17   17   16 ar
    18   18   13 ar
    19   19   22 2
    20   20   22 2
    21   21   23 1
    22   22   36 1
    23   23   24 ar
    24   24   25 ar
    25   25   26 ar
    26   26   27 ar
    27   27   28 ar
    28   28   23 ar
    29   29   28 1
    30   30   29 3
    31   31   30 1
    32   32   31 ar
    33   33   32 ar
    34   34   33 ar
    35   35   34 ar
    36   36   31 ar
    37   37    3 1
    38   38    3 1
    39   39   21 1
    40   40   21 1
    41   41    6 1
    42   42    7 1
    43   43    8 1
    44   44    9 1
    45   45   14 1
    46   46   15 1
    47   47   16 1
    48   48   17 1
    49   49   24 1
    50   50   25 1
    51   51   26 1
    52   52   27 1
    53   53   32 1
    54   54   33 1
    55   55   34 1
    56   56   35 1
    57   17   18 ar
    58   35   36 ar
@<TRIPOS>SUBSTRUCTURE
     1 RES1 1
     2 RES2 19

@<TRIPOS>CRYSIN
  24.4110    5.6368   18.5580  90.0000 111.5050  90.0000  14 1

