# MOL2 file generated by ConQuest
# Please check atom types

@<TRIPOS>MOLECULE
TOHZAR
    28    34     1
SMALL
NO_CHARGES
****
Generated from CSD

@<TRIPOS>ATOM
      1 O1        -0.5890    7.7255    7.7035 O.2       1 RES1    0.0000
      2 O2        -0.0910    6.8898    9.6371 O.2       1 RES1    0.0000
      3 N1        -1.2205    8.7892    9.5619 N.pl3     1 RES1    0.0000
      4 N2        -0.5846    7.7464    8.9182 N.pl3     1 RES1    0.0000
      5 N3        -0.8436   11.0513    9.7025 N.ar      1 RES1    0.0000
      6 C1        -1.2339    8.7231   10.9997 C.3       1 RES1    0.0000
      7 C2        -0.0662    8.9483   12.0035 C.3       1 RES1    0.0000
      8 C3        -1.7333    7.5020   11.8358 C.3       1 RES1    0.0000
      9 C4        -2.1485    9.6589   11.8309 C.3       1 RES1    0.0000
     10 C5        -1.2764   10.0755    8.9182 C.ar      1 RES1    0.0000
     11 C6        -1.7846   10.2512    7.6530 C.ar      1 RES1    0.0000
     12 C7        -1.8489   11.5427    7.1819 C.ar      1 RES1    0.0000
     13 C8        -1.4179   12.5819    7.9687 C.ar      1 RES1    0.0000
     14 C9        -0.9435   12.2941    9.2043 C.ar      1 RES1    0.0000
     15 C3B       -0.9808    9.8920   12.8273 C.3       1 RES1    0.0000
     16 C1B       -1.4802    8.6709   13.6634 C.3       1 RES1    0.0000
     17 N1B       -1.4936    8.6048   15.1012 N.pl3     1 RES1    0.0000
     18 N2B       -2.1296    9.6476   15.7449 N.pl3     1 RES1    0.0000
     19 O1B       -2.1252    9.6685   16.9596 O.2       1 RES1    0.0000
     20 O2B       -2.6231   10.5042   15.0260 O.2       1 RES1    0.0000
     21 C5B       -1.4377    7.3185   15.7449 C.ar      1 RES1    0.0000
     22 N3B       -1.8705    6.3427   14.9606 N.ar      1 RES1    0.0000
     23 C9B       -1.7706    5.0999   15.4588 C.ar      1 RES1    0.0000
     24 C8B       -1.2962    4.8121   16.6945 C.ar      1 RES1    0.0000
     25 C7B       -0.8652    5.8513   17.4812 C.ar      1 RES1    0.0000
     26 C6B       -0.9296    7.1428   17.0101 C.ar      1 RES1    0.0000
     27 C2B       -2.6479    8.4457   12.6596 C.3       1 RES1    0.0000
     28 C4B       -0.5656    7.7351   12.8322 C.3       1 RES1    0.0000
@<TRIPOS>BOND
     1    1    4 2
     2    2    4 2
     3    3    4 1
     4    5   10 ar
     5    6    3 1
     6    7    6 1
     7    8    6 1
     8    9    6 1
     9   10    3 1
    10   11   10 ar
    11   12   11 ar
    12   13   12 ar
    13   14    5 ar
    14   15    7 1
    15   16   15 1
    16   17   16 1
    17   18   17 1
    18   19   18 2
    19   20   18 2
    20   21   17 1
    21   22   21 ar
    22   23   22 ar
    23   24   23 ar
    24   25   24 ar
    25   26   21 ar
    26   27    8 1
    27   28    7 1
    28    8   28 1
    29    9   27 1
    30    9   15 1
    31   13   14 ar
    32   16   27 1
    33   16   28 1
    34   25   26 ar
@<TRIPOS>SUBSTRUCTURE
     1 RES1 1

@<TRIPOS>CRYSIN
   7.5450    8.6970   12.4060  90.0000  96.2800  90.0000  14 2

