# MOL2 file generated by ConQuest
# Please check atom types

@<TRIPOS>MOLECULE
TOJBOJ
    31    33     1
SMALL
NO_CHARGES
****
Generated from CSD

@<TRIPOS>ATOM
      1 O1         8.1419    0.9490    6.8361 O.3       1 RES1    0.0000
      2 O2         9.2105    2.4915    2.5048 O.2       1 RES1    0.0000
      3 N1         8.3913    1.9731    5.8928 N.3       1 RES1    0.0000
      4 C1         9.2901    1.6048    4.7769 C.3       1 RES1    0.0000
      5 C2         8.6825    2.3963    3.6036 C.2       1 RES1    0.0000
      6 C3         7.4149    2.9486    4.0557 C.ar      1 RES1    0.0000
      7 C4         6.4365    3.6915    3.3854 C.ar      1 RES1    0.0000
      8 C5         5.3009    4.0432    4.0831 C.ar      1 RES1    0.0000
      9 C6         5.1374    3.6438    5.4211 C.ar      1 RES1    0.0000
     10 C7         6.0866    2.9138    6.0848 C.ar      1 RES1    0.0000
     11 C8         7.2578    2.5840    5.3950 C.ar      1 RES1    0.0000
     12 C9         9.1916    0.1099    4.4398 C.3       1 RES1    0.0000
     13 C10       10.7232    2.0592    5.0343 C.ar      1 RES1    0.0000
     14 C11       11.0354    2.8543    6.1306 C.ar      1 RES1    0.0000
     15 C12       12.3470    3.3049    6.3239 C.ar      1 RES1    0.0000
     16 C13       13.3318    2.9816    5.4198 C.ar      1 RES1    0.0000
     17 C14       13.0363    2.1938    4.3392 C.ar      1 RES1    0.0000
     18 C15       11.7331    1.7239    4.1419 C.ar      1 RES1    0.0000
     19 H1         8.5484    1.3282    7.7612 H         1 RES1    0.0000
     20 H2         6.5789    3.9388    2.4825 H         1 RES1    0.0000
     21 H3         4.6094    4.5617    3.6193 H         1 RES1    0.0000
     22 H4         4.4418    3.7190    5.9320 H         1 RES1    0.0000
     23 H5         5.9294    2.6014    7.0818 H         1 RES1    0.0000
     24 H6         8.2341   -0.1191    4.2987 H         1 RES1    0.0000
     25 H7         9.4913   -0.4214    5.2133 H         1 RES1    0.0000
     26 H8         9.6798   -0.0366    3.6193 H         1 RES1    0.0000
     27 H9        10.3293    3.1694    6.8466 H         1 RES1    0.0000
     28 H10       12.4874    3.8472    7.1994 H         1 RES1    0.0000
     29 H11       14.3102    3.3892    5.6053 H         1 RES1    0.0000
     30 H12       13.7655    2.0060    3.6846 H         1 RES1    0.0000
     31 H13       11.5026    1.2000    3.3188 H         1 RES1    0.0000
@<TRIPOS>BOND
     1    1    3 1
     2    2    5 2
     3    3    4 1
     4    4    5 1
     5    5    6 1
     6    6    7 ar
     7    7    8 ar
     8    8    9 ar
     9    9   10 ar
    10   10   11 ar
    11   11    3 1
    12   12    4 1
    13   13    4 1
    14   14   13 ar
    15   15   14 ar
    16   16   15 ar
    17   17   16 ar
    18   18   13 ar
    19   19    1 1
    20   20    7 1
    21   21    8 1
    22   22    9 1
    23   23   10 1
    24   24   12 1
    25   25   12 1
    26   26   12 1
    27   27   14 1
    28   28   15 1
    29   29   16 1
    30   30   17 1
    31   31   18 1
    32    6   11 ar
    33   17   18 ar
@<TRIPOS>SUBSTRUCTURE
     1 RES1 1

@<TRIPOS>CRYSIN
  20.9520    9.1600   13.0660  90.0000  90.0000  90.0000  61 1

