# MOL2 file generated by ConQuest
# Please check atom types

@<TRIPOS>MOLECULE
TOJBUP
    68    72     2
SMALL
NO_CHARGES
****
Generated from CSD

@<TRIPOS>ATOM
      1 O1         2.1740   -1.2051    9.3950 O.3       1 RES1    0.0000
      2 O2         0.0757    1.7054    6.4076 O.2       1 RES1    0.0000
      3 N1         1.6386    0.0868    9.1327 N.3       1 RES1    0.0000
      4 C1         0.4788    0.0995    8.1998 C.3       1 RES1    0.0000
      5 C2         0.8079    1.3092    7.2883 C.2       1 RES1    0.0000
      6 C3         2.1178    1.7912    7.6699 C.ar      1 RES1    0.0000
      7 C4         2.8937    2.8446    7.1614 C.ar      1 RES1    0.0000
      8 C5         4.1443    3.0250    7.6603 C.ar      1 RES1    0.0000
      9 C6         4.6484    2.1769    8.6433 C.ar      1 RES1    0.0000
     10 C7         3.9040    1.1232    9.1583 C.ar      1 RES1    0.0000
     11 C8         2.6056    0.9690    8.6700 C.ar      1 RES1    0.0000
     12 C9         0.4180   -1.1538    7.3309 C.3       1 RES1    0.0000
     13 C10        1.8567   -1.5915   10.7202 C.3       1 RES1    0.0000
     14 C11       -0.8249    0.3803    8.9525 C.ar      1 RES1    0.0000
     15 C12       -0.8059    0.8840   10.2372 C.ar      1 RES1    0.0000
     16 C13       -1.9853    1.1823   10.8993 C.ar      1 RES1    0.0000
     17 C14       -3.1892    0.9640   10.3033 C.ar      1 RES1    0.0000
     18 C15       -3.2231    0.4713    9.0261 C.ar      1 RES1    0.0000
     19 C16       -2.0528    0.1839    8.3470 C.ar      1 RES1    0.0000
     20 H1         2.4989    3.4356    6.5142 H         1 RES1    0.0000
     21 H2         4.7349    3.6789    7.3778 H         1 RES1    0.0000
     22 H3         5.6107    2.3480    8.9984 H         1 RES1    0.0000
     23 H4         4.3292    0.4956    9.8300 H         1 RES1    0.0000
     24 H5         1.3749   -1.3064    6.9833 H         1 RES1    0.0000
     25 H6         0.2393   -1.8838    7.9535 H         1 RES1    0.0000
     26 H7        -0.1914   -0.9841    6.6422 H         1 RES1    0.0000
     27 H8         2.2855   -2.4533   10.8322 H         1 RES1    0.0000
     28 H9         0.7705   -1.7399   10.7362 H         1 RES1    0.0000
     29 H10        2.3185   -0.8997   11.3546 H         1 RES1    0.0000
     30 H11        0.0629    1.1007   10.6722 H         1 RES1    0.0000
     31 H12       -1.8476    1.4215   11.8237 H         1 RES1    0.0000
     32 H13       -4.0788    1.0832   10.7575 H         1 RES1    0.0000
     33 H14       -4.0155    0.3692    8.5506 H         1 RES1    0.0000
     34 H15       -2.0800   -0.3025    7.3672 H         1 RES1    0.0000
     35 O3         4.0617   -0.1077    3.9682 O.3       2 RES2    0.0000
     36 O4         6.0069    3.4135    1.5086 O.2       2 RES2    0.0000
     37 N2         4.4244    1.2454    3.7923 N.3       2 RES2    0.0000
     38 C17        5.6237    1.4611    2.9458 C.3       2 RES2    0.0000
     39 C18        5.2359    2.7671    2.1899 C.2       2 RES2    0.0000
     40 C19        3.8393    3.0137    2.4479 C.ar      2 RES2    0.0000
     41 C20        2.9745    3.9918    1.9585 C.ar      2 RES2    0.0000
     42 C21        1.6517    3.9561    2.3477 C.ar      2 RES2    0.0000
     43 C22        1.2070    2.9606    3.2038 C.ar      2 RES2    0.0000
     44 C23        2.0384    1.9902    3.6921 C.ar      2 RES2    0.0000
     45 C24        3.3840    2.0402    3.3200 C.ar      2 RES2    0.0000
     46 C25        5.8071    0.3586    1.9106 C.3       2 RES2    0.0000
     47 C26        4.1872   -0.4659    5.3404 C.3       2 RES2    0.0000
     48 C27        6.8527    1.7096    3.8094 C.ar      2 RES2    0.0000
     49 C28        6.7031    2.2476    5.0760 C.ar      2 RES2    0.0000
     50 C29        7.7987    2.5360    5.8681 C.ar      2 RES2    0.0000
     51 C30        9.0510    2.3174    5.4171 C.ar      2 RES2    0.0000
     52 C31        9.2287    1.8010    4.1633 C.ar      2 RES2    0.0000
     53 C32        8.1338    1.4886    3.3445 C.ar      2 RES2    0.0000
     54 H16        3.3271    4.6010    1.3967 H         2 RES2    0.0000
     55 H17        1.0144    4.7509    1.8445 H         2 RES2    0.0000
     56 H18        0.2178    3.0333    3.4544 H         2 RES2    0.0000
     57 H19        1.6914    1.2821    4.2540 H         2 RES2    0.0000
     58 H20        6.0896   -0.5420    2.3349 H         2 RES2    0.0000
     59 H21        5.0003    0.0818    1.3434 H         2 RES2    0.0000
     60 H22        6.4723    0.7335    1.3434 H         2 RES2    0.0000
     61 H23        4.0041   -1.5240    5.2775 H         2 RES2    0.0000
     62 H24        5.1316   -0.2508    5.6293 H         2 RES2    0.0000
     63 H25        3.5078   -0.1032    5.8319 H         2 RES2    0.0000
     64 H26        5.8087    2.3076    5.3521 H         2 RES2    0.0000
     65 H27        7.6301    3.0083    6.8554 H         2 RES2    0.0000
     66 H28        9.8296    2.4650    5.9172 H         2 RES2    0.0000
     67 H29       10.0769    1.5943    3.8595 H         2 RES2    0.0000
     68 H30        8.2721    1.1367    2.4522 H         2 RES2    0.0000
@<TRIPOS>BOND
     1    1    3 1
     2    2    5 2
     3    3    4 1
     4    4    5 1
     5    5    6 1
     6    6    7 ar
     7    7    8 ar
     8    8    9 ar
     9    9   10 ar
    10   10   11 ar
    11   11    3 1
    12   12    4 1
    13   13    1 1
    14   14    4 1
    15   15   14 ar
    16   16   15 ar
    17   17   16 ar
    18   18   17 ar
    19   19   14 ar
    20   20    7 1
    21   21    8 1
    22   22    9 1
    23   23   10 1
    24   24   12 1
    25   25   12 1
    26   26   12 1
    27   27   13 1
    28   28   13 1
    29   29   13 1
    30   30   15 1
    31   31   16 1
    32   32   17 1
    33   33   18 1
    34   34   19 1
    35   35   37 1
    36   36   39 2
    37   37   38 1
    38   38   39 1
    39   39   40 1
    40   40   41 ar
    41   41   42 ar
    42   42   43 ar
    43   43   44 ar
    44   44   45 ar
    45   45   37 1
    46   46   38 1
    47   47   35 1
    48   48   38 1
    49   49   48 ar
    50   50   49 ar
    51   51   50 ar
    52   52   51 ar
    53   53   48 ar
    54   54   41 1
    55   55   42 1
    56   56   43 1
    57   57   44 1
    58   58   46 1
    59   59   46 1
    60   60   46 1
    61   61   47 1
    62   62   47 1
    63   63   47 1
    64   64   49 1
    65   65   50 1
    66   66   51 1
    67   67   52 1
    68   68   53 1
    69    6   11 ar
    70   18   19 ar
    71   40   45 ar
    72   52   53 ar
@<TRIPOS>SUBSTRUCTURE
     1 RES1 1
     2 RES2 35

@<TRIPOS>CRYSIN
  12.1080   10.5340   10.8840 101.6000  90.5000  86.2000   2 1

