# MOL2 file generated by ConQuest
# Please check atom types

@<TRIPOS>MOLECULE
TOJWIA
    25    26     1
SMALL
NO_CHARGES
****
Generated from CSD

@<TRIPOS>ATOM
      1 O1         0.8074    7.4992    9.7803 O.2       1 RES1    0.0000
      2 O2         3.6869    7.2555    6.0558 O.2       1 RES1    0.0000
      3 O3         0.0737    1.7862    5.6294 O.2       1 RES1    0.0000
      4 O4         1.4217    2.7785    4.2948 O.2       1 RES1    0.0000
      5 N1         0.8373    2.6879    5.3545 N.pl3     1 RES1    0.0000
      6 C1         1.3745    7.1587    8.7704 C.2       1 RES1    0.0000
      7 C2         1.1645    5.8716    8.0622 C.ar      1 RES1    0.0000
      8 C3         0.3117    4.8234    8.3727 C.ar      1 RES1    0.0000
      9 H1        -0.1963    4.8359    9.1511 H         1 RES1    0.0000
     10 C4         0.2372    3.7596    7.4923 C.ar      1 RES1    0.0000
     11 H2        -0.3246    3.0400    7.6693 H         1 RES1    0.0000
     12 C5         1.0100    3.7792    6.3421 C.ar      1 RES1    0.0000
     13 C6         1.8949    4.7835    6.0357 C.ar      1 RES1    0.0000
     14 H3         2.4215    4.7560    5.2697 H         1 RES1    0.0000
     15 C7         1.9594    5.8370    6.9278 C.ar      1 RES1    0.0000
     16 C8         2.8078    7.0543    6.8617 C.2       1 RES1    0.0000
     17 C9         2.4014    7.9853    8.0024 C.3       1 RES1    0.0000
     18 C10        3.6082    8.3154    8.8738 C.3       1 RES1    0.0000
     19 H4         3.3450    8.9232    9.5688 H         1 RES1    0.0000
     20 H5         4.2907    8.7216    8.3353 H         1 RES1    0.0000
     21 H6         3.9492    7.5078    9.2666 H         1 RES1    0.0000
     22 C11        1.7451    9.2419    7.4420 C.3       1 RES1    0.0000
     23 H7         1.0210    8.9936    6.8633 H         1 RES1    0.0000
     24 H8         2.3929    9.7469    6.9444 H         1 RES1    0.0000
     25 H9         1.4088    9.7764    8.1645 H         1 RES1    0.0000
@<TRIPOS>BOND
     1    1    6 2
     2    2   16 2
     3    3    5 2
     4    4    5 2
     5    5   12 1
     6    6    7 1
     7    7    8 ar
     8    8    9 1
     9   10    8 ar
    10   11   10 1
    11   12   10 ar
    12   13   12 ar
    13   14   13 1
    14   15    7 ar
    15   16   15 1
    16   17    6 1
    17   18   17 1
    18   19   18 1
    19   20   18 1
    20   21   18 1
    21   22   17 1
    22   23   22 1
    23   24   22 1
    24   25   22 1
    25   13   15 ar
    26   16   17 1
@<TRIPOS>SUBSTRUCTURE
     1 RES1 1

@<TRIPOS>CRYSIN
   9.0190    9.5120   12.3460  90.0000  95.6210  90.0000  14 1

