# MOL2 file generated by ConQuest
# Please check atom types

@<TRIPOS>MOLECULE
TOJWOG
    29    30     1
SMALL
NO_CHARGES
****
Generated from CSD

@<TRIPOS>ATOM
      1 O1         5.1370    8.5353    5.0808 O.2       1 RES1    0.0000
      2 O2         1.8233    3.8667    2.6138 O.2       1 RES1    0.0000
      3 O3         1.7688    6.0105    2.6439 O.2       1 RES1    0.0000
      4 N1         2.2730    4.9520    2.9511 N.pl3     1 RES1    0.0000
      5 C1         3.5112    4.9645    3.7444 C.ar      1 RES1    0.0000
      6 C2         3.9805    6.1679    4.2112 C.ar      1 RES1    0.0000
      7 H1         3.5199    6.9564    4.0356 H         1 RES1    0.0000
      8 C3         5.1617    6.1860    4.9548 C.ar      1 RES1    0.0000
      9 C4         5.6587    7.5063    5.4510 C.2       1 RES1    0.0000
     10 C5         6.8101    7.4850    6.4452 C.3       1 RES1    0.0000
     11 C6         7.7740    6.3547    6.0592 C.3       1 RES1    0.0000
     12 H2         8.1556    6.5520    5.1900 H         1 RES1    0.0000
     13 H3         8.4999    6.3294    6.7021 H         1 RES1    0.0000
     14 C7         7.1168    4.9875    6.0074 C.3       1 RES1    0.0000
     15 H4         7.7359    4.3525    5.6148 H         1 RES1    0.0000
     16 H5         6.9233    4.6941    6.9112 H         1 RES1    0.0000
     17 C8         5.8420    4.9902    5.2071 C.ar      1 RES1    0.0000
     18 C9         5.3132    3.7916    4.7264 C.ar      1 RES1    0.0000
     19 H6         5.7570    2.9935    4.9028 H         1 RES1    0.0000
     20 C10        4.1495    3.7680    3.9971 C.ar      1 RES1    0.0000
     21 H7         3.8004    2.9658    3.6812 H         1 RES1    0.0000
     22 C11        6.1945    7.2454    7.8351 C.3       1 RES1    0.0000
     23 H8         5.6288    7.9852    8.0668 H         1 RES1    0.0000
     24 H9         6.8955    7.1626    8.4861 H         1 RES1    0.0000
     25 H10        5.6755    6.4379    7.8202 H         1 RES1    0.0000
     26 C12        7.5369    8.8289    6.4358 C.3       1 RES1    0.0000
     27 H11        7.8500    9.0173    5.5477 H         1 RES1    0.0000
     28 H12        8.2850    8.7923    7.0367 H         1 RES1    0.0000
     29 H13        6.9341    9.5211    6.7164 H         1 RES1    0.0000
@<TRIPOS>BOND
     1    1    9 2
     2    2    4 2
     3    3    4 2
     4    4    5 1
     5    5    6 ar
     6    6    7 1
     7    8    6 ar
     8    9    8 1
     9   10    9 1
    10   11   10 1
    11   12   11 1
    12   13   11 1
    13   14   11 1
    14   15   14 1
    15   16   14 1
    16   17    8 ar
    17   18   17 ar
    18   19   18 1
    19   20    5 ar
    20   21   20 1
    21   22   10 1
    22   23   22 1
    23   24   22 1
    24   25   22 1
    25   26   10 1
    26   27   26 1
    27   28   26 1
    28   29   26 1
    29   14   17 1
    30   18   20 ar
@<TRIPOS>SUBSTRUCTURE
     1 RES1 1

@<TRIPOS>CRYSIN
  12.2792    8.1523   12.4468  90.0000 117.8500  90.0000  14 1

