# MOL2 file generated by ConQuest
# Please check atom types

@<TRIPOS>MOLECULE
TOKXUN
   129   133     1
SMALL
NO_CHARGES
****
Generated from CSD

@<TRIPOS>ATOM
      1 O1         3.4144    9.7405   -1.8925 O.2       1 RES1    0.0000
      2 O2         7.0818    8.9073   -0.0646 O.3       1 RES1    0.0000
      3 O3         6.6544    6.6556   -0.6043 O.3       1 RES1    0.0000
      4 O4         9.6094    7.5685    0.9658 O.3       1 RES1    0.0000
      5 O5         9.4664    4.8163    0.8854 O.3       1 RES1    0.0000
      6 O6         9.2392    3.0155   -0.4393 O.2       1 RES1    0.0000
      7 O7         5.9585    8.6526    3.6408 O.3       1 RES1    0.0000
      8 O8         6.8355    6.5940    4.0301 O.3       1 RES1    0.0000
      9 O9         8.6086    9.7700    4.6433 O.3       1 RES1    0.0000
     10 O10       10.5382   10.7299    5.3392 O.2       1 RES1    0.0000
     11 O11        3.0486    8.4279    1.4639 O.3       1 RES1    0.0000
     12 H1         2.8723    7.7137    1.1668 H         1 RES1    0.0000
     13 O12        0.1416    7.3588    3.1394 O.3       1 RES1    0.0000
     14 O13       -0.2515   10.3658    0.0188 O.3       1 RES1    0.0000
     15 O14       -1.9613   11.3570   -1.0532 O.2       1 RES1    0.0000
     16 O15       -0.1659   12.5415   -0.4065 O.3       1 RES1    0.0000
     17 O16        3.3670   11.6859   -0.7443 O.3       1 RES1    0.0000
     18 N1        10.2286    8.4397    5.4423 N.am      1 RES1    0.0000
     19 N2        -0.0424    8.5997    2.4735 N.2       1 RES1    0.0000
     20 C1         3.9741   10.5844   -1.2497 C.2       1 RES1    0.0000
     21 C2         5.4526   10.5827   -0.9210 C.3       1 RES1    0.0000
     22 H2         5.6609   11.3652   -0.4481 H         1 RES1    0.0000
     23 C3         5.7298    9.3874    0.0351 C.3       1 RES1    0.0000
     24 H3         5.1076    8.6358   -0.2132 H         1 RES1    0.0000
     25 C4         5.4720    9.8100    1.4846 C.3       1 RES1    0.0000
     26 H4         4.6366   10.3492    1.4471 H         1 RES1    0.0000
     27 C5         5.2377    8.5638    2.3825 C.3       1 RES1    0.0000
     28 H5         5.5758    7.7668    1.9031 H         1 RES1    0.0000
     29 C6         3.7450    8.3381    2.7177 C.3       1 RES1    0.0000
     30 C7         3.2175    9.4468    3.6276 C.3       1 RES1    0.0000
     31 H6         3.3597   10.3439    3.1469 H         1 RES1    0.0000
     32 H7         3.7414    9.5155    4.4301 H         1 RES1    0.0000
     33 C8         1.7412    9.3201    4.0690 C.3       1 RES1    0.0000
     34 H8         1.5831    8.3916    4.4281 H         1 RES1    0.0000
     35 C9         0.7575    9.4952    2.9254 C.2       1 RES1    0.0000
     36 C10        0.5990   10.8712    2.2689 C.3       1 RES1    0.0000
     37 H9         1.2179   11.4006    2.6316 H         1 RES1    0.0000
     38 C11        0.9065   10.8400    0.7658 C.3       1 RES1    0.0000
     39 H10        1.6078   10.2271    0.5903 H         1 RES1    0.0000
     40 C12        1.1768   12.2031    0.0687 C.3       1 RES1    0.0000
     41 C13        2.0183   11.9877   -1.1991 C.3       1 RES1    0.0000
     42 H11        1.6394   11.1899   -1.6840 H         1 RES1    0.0000
     43 C14        6.2245   10.5825   -2.2435 C.3       1 RES1    0.0000
     44 H12        5.8970    9.8430   -2.8389 H         1 RES1    0.0000
     45 H13        7.2110   10.4448   -2.1025 H         1 RES1    0.0000
     46 H14        6.0687   11.3829   -2.7422 H         1 RES1    0.0000
     47 C15        7.2564    7.8800   -1.0193 C.3       1 RES1    0.0000
     48 H15        6.7648    8.0818   -1.8281 H         1 RES1    0.0000
     49 C16        8.7264    7.7353   -1.3407 C.3       1 RES1    0.0000
     50 H16        8.8119    7.2835   -2.1578 H         1 RES1    0.0000
     51 H17        9.1263    8.6854   -1.4846 H         1 RES1    0.0000
     52 C17        9.5503    6.9373   -0.3200 C.3       1 RES1    0.0000
     53 C18        8.7678    5.6421   -0.0896 C.3       1 RES1    0.0000
     54 H18        8.7048    5.1436   -0.8785 H         1 RES1    0.0000
     55 C19        7.3689    5.9530    0.4343 C.3       1 RES1    0.0000
     56 H19        7.4073    6.5366    1.2378 H         1 RES1    0.0000
     57 C20       10.9442    6.6649   -0.8773 C.3       1 RES1    0.0000
     58 H20       11.3657    7.5137   -1.1549 H         1 RES1    0.0000
     59 H21       10.8659    6.1083   -1.6998 H         1 RES1    0.0000
     60 H22       11.4906    6.1791   -0.1856 H         1 RES1    0.0000
     61 C21       10.2357    8.8550    1.0130 C.3       1 RES1    0.0000
     62 H23       10.1465    9.1190    1.9939 H         1 RES1    0.0000
     63 H24        9.8032    9.5261    0.4639 H         1 RES1    0.0000
     64 H25       11.1762    8.8341    0.8825 H         1 RES1    0.0000
     65 C22        9.6109    3.4984    0.5917 C.2       1 RES1    0.0000
     66 C23       10.2865    2.7647    1.6952 C.3       1 RES1    0.0000
     67 H26        9.8032    1.9470    1.7156 H         1 RES1    0.0000
     68 H27       10.1053    3.1010    2.5882 H         1 RES1    0.0000
     69 H28       11.1213    2.7329    1.4826 H         1 RES1    0.0000
     70 C24        6.5400    4.7379    0.7644 C.3       1 RES1    0.0000
     71 H29        6.9721    4.1860    1.5122 H         1 RES1    0.0000
     72 H30        6.4078    4.2622   -0.0395 H         1 RES1    0.0000
     73 H31        5.6293    5.0197    1.0878 H         1 RES1    0.0000
     74 C25        6.5529   10.7464    2.0135 C.3       1 RES1    0.0000
     75 H32        6.3803   11.0696    2.9416 H         1 RES1    0.0000
     76 H33        7.4938   10.3173    2.0354 H         1 RES1    0.0000
     77 H34        6.5808   11.5687    1.4510 H         1 RES1    0.0000
     78 C26        7.1568    7.9485    3.6625 C.3       1 RES1    0.0000
     79 H35        7.5872    7.9827    2.7757 H         1 RES1    0.0000
     80 C27        8.0776    8.4296    4.7480 C.3       1 RES1    0.0000
     81 H36        7.6380    8.3579    5.5830 H         1 RES1    0.0000
     82 C28        9.3246    7.5724    4.6968 C.3       1 RES1    0.0000
     83 H37        9.6096    7.5544    3.7312 H         1 RES1    0.0000
     84 C29        8.9975    6.1759    5.1442 C.3       1 RES1    0.0000
     85 H38        8.6581    6.1862    6.0450 H         1 RES1    0.0000
     86 H39        9.7387    5.6304    5.0836 H         1 RES1    0.0000
     87 C30        7.9473    5.6594    4.1496 C.3       1 RES1    0.0000
     88 H40        8.3698    5.5507    3.2673 H         1 RES1    0.0000
     89 C31        7.3442    4.3326    4.5511 C.3       1 RES1    0.0000
     90 H41        6.9131    4.4710    5.4843 H         1 RES1    0.0000
     91 H42        8.0320    3.6338    4.5900 H         1 RES1    0.0000
     92 H43        6.5904    4.0126    3.8477 H         1 RES1    0.0000
     93 C32        9.8783    9.7350    5.1712 C.2       1 RES1    0.0000
     94 C33       11.6430    8.0783    5.5234 C.3       1 RES1    0.0000
     95 H44       11.9451    7.9296    4.6354 H         1 RES1    0.0000
     96 H45       12.1373    8.8518    5.9423 H         1 RES1    0.0000
     97 H46       11.5881    7.2039    6.1023 H         1 RES1    0.0000
     98 C34        3.5688    6.9515    3.3409 C.3       1 RES1    0.0000
     99 H47        3.9515    6.9242    4.2189 H         1 RES1    0.0000
    100 H48        4.0352    6.3118    2.7955 H         1 RES1    0.0000
    101 H49        2.6362    6.7207    3.4746 H         1 RES1    0.0000
    102 C35        1.4572   10.3308    5.1842 C.3       1 RES1    0.0000
    103 H50        0.5396   10.3315    5.4271 H         1 RES1    0.0000
    104 H51        1.7451   11.2891    4.8763 H         1 RES1    0.0000
    105 H52        1.9922   10.1102    5.9423 H         1 RES1    0.0000
    106 C36       -0.6041    6.3727    2.4225 C.3       1 RES1    0.0000
    107 H53       -0.3913    6.4410    1.4116 H         1 RES1    0.0000
    108 H54       -1.6064    6.4941    2.4776 H         1 RES1    0.0000
    109 C37       -0.3405    5.0362    3.0349 C.2       1 RES1    0.0000
    110 H55       -0.7826    4.3188    2.5625 H         1 RES1    0.0000
    111 C38        0.4284    4.7808    4.0426 C.2       1 RES1    0.0000
    112 H56        0.9886    5.5012    4.4913 H         1 RES1    0.0000
    113 H57        0.5492    3.8409    4.3432 H         1 RES1    0.0000
    114 C39       -0.7843   11.4664    2.5900 C.3       1 RES1    0.0000
    115 H58       -0.8664   12.4219    2.2387 H         1 RES1    0.0000
    116 H59       -0.9240   11.4183    3.5457 H         1 RES1    0.0000
    117 H60       -1.5515   10.9085    2.1262 H         1 RES1    0.0000
    118 C40       -0.8919   11.4140   -0.5297 C.2       1 RES1    0.0000
    119 C41        1.6874   13.3293    0.9332 C.3       1 RES1    0.0000
    120 H61        1.1794   13.4467    1.6899 H         1 RES1    0.0000
    121 H62        2.6224   13.1546    1.2398 H         1 RES1    0.0000
    122 H63        1.6778   14.1157    0.3968 H         1 RES1    0.0000
    123 C42        2.1257   13.2014   -2.1284 C.3       1 RES1    0.0000
    124 H64        2.6211   13.9122   -1.6386 H         1 RES1    0.0000
    125 H65        1.2137   13.4024   -2.3809 H         1 RES1    0.0000
    126 C43        2.8421   12.8789   -3.4298 C.3       1 RES1    0.0000
    127 H66        3.7208   12.5493   -3.2041 H         1 RES1    0.0000
    128 H67        2.8517   13.6662   -4.0076 H         1 RES1    0.0000
    129 H68        2.3204   12.1599   -3.8675 H         1 RES1    0.0000
@<TRIPOS>BOND
     1    1   20 2
     2    2   23 1
     3    3   47 1
     4    4   52 1
     5    5   53 1
     6    6   65 2
     7    7   27 1
     8    8   78 1
     9    9   80 1
    10   10   93 2
    11   11   12 1
    12   13   19 1
    13   14   38 1
    14   15  118 2
    15   16   40 1
    16   17   20 1
    17   18   82 1
    18   19   35 2
    19   20   21 1
    20   21   22 1
    21   23   21 1
    22   24   23 1
    23   25   23 1
    24   26   25 1
    25   27   25 1
    26   28   27 1
    27   29   11 1
    28   30   29 1
    29   31   30 1
    30   32   30 1
    31   33   30 1
    32   34   33 1
    33   35   33 1
    34   36   35 1
    35   37   36 1
    36   38   36 1
    37   39   38 1
    38   40   38 1
    39   41   17 1
    40   42   41 1
    41   43   21 1
    42   44   43 1
    43   45   43 1
    44   46   43 1
    45   47    2 1
    46   48   47 1
    47   49   47 1
    48   50   49 1
    49   51   49 1
    50   52   49 1
    51   53   52 1
    52   54   53 1
    53   55    3 1
    54   56   55 1
    55   57   52 1
    56   58   57 1
    57   59   57 1
    58   60   57 1
    59   61    4 1
    60   62   61 1
    61   63   61 1
    62   64   61 1
    63   65    5 1
    64   66   65 1
    65   67   66 1
    66   68   66 1
    67   69   66 1
    68   70   55 1
    69   71   70 1
    70   72   70 1
    71   73   70 1
    72   74   25 1
    73   75   74 1
    74   76   74 1
    75   77   74 1
    76   78    7 1
    77   79   78 1
    78   80   78 1
    79   81   80 1
    80   82   80 1
    81   83   82 1
    82   84   82 1
    83   85   84 1
    84   86   84 1
    85   87    8 1
    86   88   87 1
    87   89   87 1
    88   90   89 1
    89   91   89 1
    90   92   89 1
    91   93    9 1
    92   94   18 1
    93   95   94 1
    94   96   94 1
    95   97   94 1
    96   98   29 1
    97   99   98 1
    98  100   98 1
    99  101   98 1
   100  102   33 1
   101  103  102 1
   102  104  102 1
   103  105  102 1
   104  106   13 1
   105  107  106 1
   106  108  106 1
   107  109  106 1
   108  110  109 1
   109  111  109 2
   110  112  111 1
   111  113  111 1
   112  114   36 1
   113  115  114 1
   114  116  114 1
   115  117  114 1
   116  118   14 1
   117  119   40 1
   118  120  119 1
   119  121  119 1
   120  122  119 1
   121  123   41 1
   122  124  123 1
   123  125  123 1
   124  126  123 1
   125  127  126 1
   126  128  126 1
   127  129  126 1
   128   16  118 1
   129   18   93 1
   130   27   29 1
   131   40   41 1
   132   53   55 1
   133   84   87 1
@<TRIPOS>SUBSTRUCTURE
     1 RES1 1

@<TRIPOS>CRYSIN
  13.7300   17.7000   19.7420  90.0000  90.0000  90.0000  19 1

