# MOL2 file generated by ConQuest
# Please check atom types

@<TRIPOS>MOLECULE
TOLFEF
    40    42     1
SMALL
NO_CHARGES
****
Generated from CSD

@<TRIPOS>ATOM
      1 O1         2.6445    1.0323   12.7767 O.2       1 RES1    0.0000
      2 N1         3.4058    2.0489   12.8164 N.3       1 RES1    0.0000
      3 C1         4.8729    1.9838   12.5388 C.3       1 RES1    0.0000
      4 C2         5.1892    3.4783   12.3202 C.3       1 RES1    0.0000
      5 C3         4.1899    4.2114   13.2027 C.3       1 RES1    0.0000
      6 C4         2.8811    3.4272   13.0445 C.3       1 RES1    0.0000
      7 C5         5.1493    1.1491   11.2932 C.ar      1 RES1    0.0000
      8 C6         6.4004    0.5986   11.0712 C.ar      1 RES1    0.0000
      9 C7         6.6700   -0.1181    9.9003 C.ar      1 RES1    0.0000
     10 C8         5.7044   -0.2652    8.9466 C.ar      1 RES1    0.0000
     11 C9         4.4616    0.2797    9.1400 C.ar      1 RES1    0.0000
     12 C10        4.1734    0.9957   10.2940 C.ar      1 RES1    0.0000
     13 C11        2.0255    3.4910   14.3118 C.ar      1 RES1    0.0000
     14 C12        2.0083    2.4605   15.2564 C.ar      1 RES1    0.0000
     15 C13        1.2352    2.5931   16.4134 C.ar      1 RES1    0.0000
     16 C14        0.5069    3.7309   16.6476 C.ar      1 RES1    0.0000
     17 C15        0.5433    4.7613   15.7278 C.ar      1 RES1    0.0000
     18 C16        1.2999    4.6502   14.5806 C.ar      1 RES1    0.0000
     19 C17        5.5551    1.4339   13.8068 C.3       1 RES1    0.0000
     20 C18        2.1018    3.8332   11.7755 C.3       1 RES1    0.0000
     21 H1         7.0703    0.6377   11.7432 H         1 RES1    0.0000
     22 H2         7.5104   -0.5241    9.7408 H         1 RES1    0.0000
     23 H3         5.9286   -0.6630    8.1117 H         1 RES1    0.0000
     24 H4         3.8034    0.1073    8.4850 H         1 RES1    0.0000
     25 H5         3.2738    1.2375   10.4875 H         1 RES1    0.0000
     26 H6         2.4897    1.6606   15.0694 H         1 RES1    0.0000
     27 H7         1.1417    1.8689   17.0039 H         1 RES1    0.0000
     28 H8        -0.2407    3.9083   17.5470 H         1 RES1    0.0000
     29 H9         0.1100    5.5815   15.9179 H         1 RES1    0.0000
     30 H10        1.2586    5.3226   13.9154 H         1 RES1    0.0000
     31 H11        4.8281    3.4348   11.2341 H         1 RES1    0.0000
     32 H12        6.0111    3.9399   12.4560 H         1 RES1    0.0000
     33 H13        3.8034    5.2153   12.8972 H         1 RES1    0.0000
     34 H14        4.6700    4.2429   14.0172 H         1 RES1    0.0000
     35 H15        6.6095    1.1744   13.4742 H         1 RES1    0.0000
     36 H16        5.0826    0.6756   14.1190 H         1 RES1    0.0000
     37 H17        5.5434    2.1088   14.4584 H         1 RES1    0.0000
     38 H18        1.4168    2.9612   11.7093 H         1 RES1    0.0000
     39 H19        2.4278    4.0093   10.8608 H         1 RES1    0.0000
     40 H20        1.8226    4.7228   11.9808 H         1 RES1    0.0000
@<TRIPOS>BOND
     1    1    2 1
     2    2    3 1
     3    3    4 1
     4    4    5 1
     5    5    6 1
     6    6    2 1
     7    7    3 1
     8    8    7 ar
     9    9    8 ar
    10   10    9 ar
    11   11   10 ar
    12   12    7 ar
    13   13    6 1
    14   14   13 ar
    15   15   14 ar
    16   16   15 ar
    17   17   16 ar
    18   18   13 ar
    19   19    3 1
    20   20    6 1
    21   21    8 1
    22   22    9 1
    23   23   10 1
    24   24   11 1
    25   25   12 1
    26   26   14 1
    27   27   15 1
    28   28   16 1
    29   29   17 1
    30   30   18 1
    31   31    4 1
    32   32    4 1
    33   33    5 1
    34   34    5 1
    35   35   19 1
    36   36   19 1
    37   37   19 1
    38   38   20 1
    39   39   20 1
    40   40   20 1
    41   11   12 ar
    42   17   18 ar
@<TRIPOS>SUBSTRUCTURE
     1 RES1 1

@<TRIPOS>CRYSIN
   6.8777    6.3139   33.9400  90.0000  90.0000  90.0000  19 1

