# MOL2 file generated by ConQuest
# Please check atom types

@<TRIPOS>MOLECULE
TOLHIL
    35    36     1
SMALL
NO_CHARGES
****
Generated from CSD

@<TRIPOS>ATOM
      1 C1         0.8924    2.4516    3.0443 C.3       1 RES1    0.0000
      2 H1         0.1317    2.6162    2.4159 H         1 RES1    0.0000
      3 C2         1.1974    0.9656    3.1420 C.3       1 RES1    0.0000
      4 H2         0.9854    0.5043    2.2916 H         1 RES1    0.0000
      5 H3         2.1509    0.8140    3.3615 H         1 RES1    0.0000
      6 C3         0.1366    1.5849    5.0669 C.3       1 RES1    0.0000
      7 C4        -1.3150    1.6360    5.4119 C.3       1 RES1    0.0000
      8 H4        -1.4972    2.4427    5.9378 H         1 RES1    0.0000
      9 H5        -1.5542    0.8431    5.9366 H         1 RES1    0.0000
     10 H6        -1.8460    1.6555    4.5881 H         1 RES1    0.0000
     11 C5         1.0131    1.4650    6.3044 C.3       1 RES1    0.0000
     12 H7         0.8994    2.2619    6.8641 H         1 RES1    0.0000
     13 H8         1.9516    1.3871    6.0343 H         1 RES1    0.0000
     14 H9         0.7529    0.6696    6.8134 H         1 RES1    0.0000
     15 C6         2.0797    3.2728    2.6655 C.3       1 RES1    0.0000
     16 H10        2.9160    2.9940    3.1383 H         1 RES1    0.0000
     17 C7         2.3200    3.7098    1.2508 C.3       1 RES1    0.0000
     18 C8         2.0501    4.7418    2.3351 C.3       1 RES1    0.0000
     19 C9         1.3823    3.4706    0.1025 C.3       1 RES1    0.0000
     20 H11        0.4606    3.4407    0.4342 H         1 RES1    0.0000
     21 H12        1.6026    2.6170   -0.3257 H         1 RES1    0.0000
     22 H13        1.4716    4.1962   -0.5488 H         1 RES1    0.0000
     23 C10        3.1471    5.6125    2.8609 C.3       1 RES1    0.0000
     24 H14        2.9181    5.9166    3.7643 H         1 RES1    0.0000
     25 H15        3.2579    6.3884    2.2735 H         1 RES1    0.0000
     26 H16        3.9837    5.1026    2.8899 H         1 RES1    0.0000
     27 C11        0.7231    5.4780    2.2579 C.3       1 RES1    0.0000
     28 H17        0.7650    6.1541    1.5499 H         1 RES1    0.0000
     29 H18        0.5427    5.9158    3.1166 H         1 RES1    0.0000
     30 H19        0.0063    4.8399    2.0589 H         1 RES1    0.0000
     31 N1         3.7392    3.6531    0.7852 N.pl3     1 RES1    0.0000
     32 O1         0.3708    0.5172    4.1720 O.3       1 RES1    0.0000
     33 O2         0.5239    2.7872    4.3843 O.3       1 RES1    0.0000
     34 O3         4.5658    3.0823    1.4401 O.2       1 RES1    0.0000
     35 O4         4.0081    4.2173   -0.2412 O.2       1 RES1    0.0000
@<TRIPOS>BOND
     1    1    2 1
     2    3    1 1
     3    4    3 1
     4    5    3 1
     5    6    7 1
     6    7    8 1
     7    9    7 1
     8   10    7 1
     9   11    6 1
    10   12   11 1
    11   13   11 1
    12   14   11 1
    13   15    1 1
    14   16   15 1
    15   17   15 1
    16   18   15 1
    17   19   17 1
    18   20   19 1
    19   21   19 1
    20   22   19 1
    21   23   18 1
    22   24   23 1
    23   25   23 1
    24   26   23 1
    25   27   18 1
    26   28   27 1
    27   29   27 1
    28   30   27 1
    29   31   17 1
    30   32    3 1
    31   33    1 1
    32   34   31 2
    33   35   31 2
    34    6   32 1
    35    6   33 1
    36   17   18 1
@<TRIPOS>SUBSTRUCTURE
     1 RES1 1

@<TRIPOS>CRYSIN
   6.6380    8.1071   12.0630  90.0000  90.9700  90.0000   4 1

