# MOL2 file generated by ConQuest
# Please check atom types

@<TRIPOS>MOLECULE
TOLKEK02
    96    96     4
SMALL
NO_CHARGES
****
Generated from CSD

@<TRIPOS>ATOM
      1 O1         9.9318   10.1102    4.8325 O.2       1 RES1    0.0000
      2 O2        10.4321    5.6118    4.0191 O.2       1 RES1    0.0000
      3 N1        10.4970    8.9792    4.6244 N.3       1 RES1    0.0000
      4 N2        10.7428    6.8450    4.2585 N.pl3     1 RES1    0.0000
      5 C1         9.8752    7.8345    4.4364 C.2       1 RES1    0.0000
      6 C2        11.9881    8.8352    4.5338 C.3       1 RES1    0.0000
      7 C3        12.1537    7.2875    4.3905 C.3       1 RES1    0.0000
      8 C4        12.4391    9.6351    3.3143 C.3       1 RES1    0.0000
      9 H1        12.0198    9.2814    2.5270 H         1 RES1    0.0000
     10 H2        13.3922    9.5719    3.2244 H         1 RES1    0.0000
     11 H3        12.1872   10.5556    3.4240 H         1 RES1    0.0000
     12 C5        12.6043    9.4358    5.7850 C.3       1 RES1    0.0000
     13 H4        12.3697   10.3648    5.8423 H         1 RES1    0.0000
     14 H5        13.5597    9.3502    5.7435 H         1 RES1    0.0000
     15 H6        12.2740    8.9741    6.5575 H         1 RES1    0.0000
     16 C6        12.9285    6.8088    3.1847 C.3       1 RES1    0.0000
     17 H7        12.9424    5.8490    3.1731 H         1 RES1    0.0000
     18 H8        13.8274    7.1428    3.2304 H         1 RES1    0.0000
     19 H9        12.5074    7.1330    2.3847 H         1 RES1    0.0000
     20 C7        12.6993    6.5857    5.6325 C.3       1 RES1    0.0000
     21 H10       12.1407    6.7892    6.3856 H         1 RES1    0.0000
     22 H11       13.5938    6.8902    5.8048 H         1 RES1    0.0000
     23 H12       12.7070    5.6371    5.4867 H         1 RES1    0.0000
     24 H13        9.0161    7.6817    4.5067 H         1 RES1    0.0000
     25 O3         4.5313   13.7587    5.0158 O.2       2 RES2    0.0000
     26 O4         3.8560    9.2719    4.2253 O.2       2 RES2    0.0000
     27 N3         4.7761   12.5236    4.7863 N.3       2 RES2    0.0000
     28 N4         4.4578   10.3889    4.4093 N.pl3     2 RES2    0.0000
     29 C8         3.8692   11.5621    4.6424 C.2       2 RES2    0.0000
     30 C9         6.1592   12.0479    4.5000 C.3       2 RES2    0.0000
     31 C10        5.9540   10.4944    4.5276 C.3       2 RES2    0.0000
     32 C11        6.5186   12.6185    3.1345 C.3       2 RES2    0.0000
     33 H14        5.9030   12.2845    2.4776 H         2 RES2    0.0000
     34 H15        7.4104   12.3518    2.9024 H         2 RES2    0.0000
     35 H16        6.4676   13.5755    3.1652 H         2 RES2    0.0000
     36 C12        7.1047   12.5820    5.5651 C.3       2 RES2    0.0000
     37 H17        7.1414   13.5404    5.5084 H         2 RES2    0.0000
     38 H18        7.9819   12.2199    5.4254 H         2 RES2    0.0000
     39 H19        6.7862   12.3252    6.4330 H         2 RES2    0.0000
     40 C13        6.6138    9.7333    3.3896 C.3       2 RES2    0.0000
     41 H20        6.3511    8.8099    3.4279 H         2 RES2    0.0000
     42 H21        7.5686    9.7978    3.4714 H         2 RES2    0.0000
     43 H22        6.3395   10.1108    2.5507 H         2 RES2    0.0000
     44 C14        6.3173    9.8339    5.8536 C.3       2 RES2    0.0000
     45 H23        5.8872   10.3030    6.5733 H         2 RES2    0.0000
     46 H24        7.2688    9.8624    5.9747 H         2 RES2    0.0000
     47 H25        6.0233    8.9208    5.8463 H         2 RES2    0.0000
     48 H26        2.9954   11.7400    4.7398 H         2 RES2    0.0000
     49 O5         4.2840   -0.4709   -0.0223 O.2       3 RES3    0.0000
     50 O6         4.9254    4.0136    0.7826 O.2       3 RES3    0.0000
     51 N5         4.0315    0.7524    0.2359 N.3       3 RES3    0.0000
     52 N6         4.3337    2.8860    0.5977 N.pl3     3 RES3    0.0000
     53 C15        4.9301    1.7179    0.4056 C.2       3 RES3    0.0000
     54 C16        2.6447    1.2280    0.5042 C.3       3 RES3    0.0000
     55 C17        2.8394    2.7740    0.4202 C.3       3 RES3    0.0000
     56 C18        1.7061    0.6455   -0.5273 C.3       3 RES3    0.0000
     57 H27        2.0613    0.7985   -1.4067 H         3 RES3    0.0000
     58 H28        0.8467    1.0665   -0.4524 H         3 RES3    0.0000
     59 H29        1.6138   -0.2989   -0.3793 H         3 RES3    0.0000
     60 C19        2.2927    0.7087    1.8912 C.3       3 RES3    0.0000
     61 H30        2.3443   -0.2498    1.8967 H         3 RES3    0.0000
     62 H31        1.4011    0.9823    2.1200 H         3 RES3    0.0000
     63 H32        2.9116    1.0651    2.5329 H         3 RES3    0.0000
     64 C20        2.5283    3.3626   -0.9501 C.3       3 RES3    0.0000
     65 H33        2.8489    4.2660   -0.9899 H         3 RES3    0.0000
     66 H34        1.5791    3.3539   -1.0946 H         3 RES3    0.0000
     67 H35        2.9598    2.8389   -1.6280 H         3 RES3    0.0000
     68 C21        2.1327    3.5828    1.4939 C.3       3 RES3    0.0000
     69 H36        2.4285    3.2921    2.3590 H         3 RES3    0.0000
     70 H37        1.1835    3.4535    1.4186 H         3 RES3    0.0000
     71 H38        2.3377    4.5130    1.3811 H         3 RES3    0.0000
     72 H39        5.8098    1.5212    0.3339 H         3 RES3    0.0000
     73 O7        10.9873    3.0586   -0.0816 O.2       4 RES4    0.0000
     74 O8        10.3299    7.5405    0.6477 O.2       4 RES4    0.0000
     75 N7        10.3855    4.1670    0.1274 N.3       4 RES4    0.0000
     76 N8        10.0657    6.3040    0.4530 N.pl3     4 RES4    0.0000
     77 C22       10.9656    5.3513    0.2567 C.2       4 RES4    0.0000
     78 C23        8.8950    4.2425    0.3213 C.3       4 RES4    0.0000
     79 C24        8.6610    5.7993    0.3859 C.3       4 RES4    0.0000
     80 C25        8.2275    3.5492   -0.8531 C.3       4 RES4    0.0000
     81 H40        8.5156    3.9587   -1.6715 H         4 RES4    0.0000
     82 H41        7.2737    3.6303   -0.7725 H         4 RES4    0.0000
     83 H42        8.4702    2.6200   -0.8575 H         4 RES4    0.0000
     84 C26        8.5780    3.5054    1.6047 C.3       4 RES4    0.0000
     85 H43        8.8503    2.5877    1.5213 H         4 RES4    0.0000
     86 H44        7.6341    3.5447    1.7722 H         4 RES4    0.0000
     87 H45        9.0499    3.9138    2.3334 H         4 RES4    0.0000
     88 C27        8.0514    6.4019   -0.8768 C.3       4 RES4    0.0000
     89 H46        8.0562    7.3603   -0.8081 H         4 RES4    0.0000
     90 H47        7.1481    6.0931   -0.9760 H         4 RES4    0.0000
     91 H48        8.5670    6.1338   -1.6399 H         4 RES4    0.0000
     92 C28        7.8985    6.2854    1.5867 C.3       4 RES4    0.0000
     93 H49        8.3739    6.0454    2.3867 H         4 RES4    0.0000
     94 H50        7.0280    5.8812    1.5984 H         4 RES4    0.0000
     95 H51        7.8079    7.2396    1.5431 H         4 RES4    0.0000
     96 H52       11.8729    5.5472    0.1660 H         4 RES4    0.0000
@<TRIPOS>BOND
     1    1    3 1
     2    2    4 1
     3    3    5 1
     4    4    5 2
     5    5   24 1
     6    6    3 1
     7    7    4 1
     8    8    6 1
     9    9    8 1
    10   10    8 1
    11   11    8 1
    12   12    6 1
    13   13   12 1
    14   14   12 1
    15   15   12 1
    16   16    7 1
    17   17   16 1
    18   18   16 1
    19   19   16 1
    20   20    7 1
    21   21   20 1
    22   22   20 1
    23   23   20 1
    24   25   27 1
    25   26   28 1
    26   27   29 1
    27   28   29 2
    28   29   48 1
    29   30   27 1
    30   31   28 1
    31   32   30 1
    32   33   32 1
    33   34   32 1
    34   35   32 1
    35   36   30 1
    36   37   36 1
    37   38   36 1
    38   39   36 1
    39   40   31 1
    40   41   40 1
    41   42   40 1
    42   43   40 1
    43   44   31 1
    44   45   44 1
    45   46   44 1
    46   47   44 1
    47   49   51 1
    48   50   52 1
    49   51   53 1
    50   52   53 2
    51   53   72 1
    52   54   51 1
    53   55   52 1
    54   56   54 1
    55   57   56 1
    56   58   56 1
    57   59   56 1
    58   60   54 1
    59   61   60 1
    60   62   60 1
    61   63   60 1
    62   64   55 1
    63   65   64 1
    64   66   64 1
    65   67   64 1
    66   68   55 1
    67   69   68 1
    68   70   68 1
    69   71   68 1
    70   73   75 1
    71   74   76 1
    72   75   77 1
    73   76   77 2
    74   77   96 1
    75   78   75 1
    76   79   76 1
    77   80   78 1
    78   81   80 1
    79   82   80 1
    80   83   80 1
    81   84   78 1
    82   85   84 1
    83   86   84 1
    84   87   84 1
    85   88   79 1
    86   89   88 1
    87   90   88 1
    88   91   88 1
    89   92   79 1
    90   93   92 1
    91   94   92 1
    92   95   92 1
    93    6    7 1
    94   30   31 1
    95   54   55 1
    96   78   79 1
@<TRIPOS>SUBSTRUCTURE
     1 RES1 1
     2 RES2 25
     3 RES3 49
     4 RES4 73

@<TRIPOS>CRYSIN
  12.0650   14.0330   19.7850  90.0000  93.0200  90.0000  14 1

