# MOL2 file generated by ConQuest
# Please check atom types

@<TRIPOS>MOLECULE
TOMCIJ
   100    94     3
SMALL
NO_CHARGES
****
Generated from CSD

@<TRIPOS>ATOM
      1 O1        -2.0333    4.0071   17.3902 O.3       1 RES1    0.0000
      2 O2         0.3408    6.5982   10.4283 O.3       1 RES1    0.0000
      3 O3        -4.0288   10.0071   17.0112 O.3       1 RES1    0.0000
      4 O4        -5.0651    7.7920   18.4878 O.3       1 RES1    0.0000
      5 O5        -2.0831    9.6634   15.2903 O.3       1 RES1    0.0000
      6 N1        -1.2940    2.8166   17.1009 N.2       1 RES1    0.0000
      7 N2         0.1076    2.1344   15.3538 N.pl3     1 RES1    0.0000
      8 H1         0.4192    2.2953   14.5593 H         1 RES1    0.0000
      9 H2         0.1709    1.3401   15.6851 H         1 RES1    0.0000
     10 C1        -0.6893    3.0594   15.9497 C.2       1 RES1    0.0000
     11 C2        -0.9822    4.3612   15.4412 C.2       1 RES1    0.0000
     12 C3        -1.8184    4.8896   16.3844 C.2       1 RES1    0.0000
     13 C4        -0.5756    4.9237   14.1348 C.ar      1 RES1    0.0000
     14 C5         0.7132    5.3740   13.8924 C.ar      1 RES1    0.0000
     15 H3         1.3570    5.2932   14.5593 H         1 RES1    0.0000
     16 C6         1.0642    5.9458   12.6689 C.ar      1 RES1    0.0000
     17 H4         1.9324    6.2464   12.5247 H         1 RES1    0.0000
     18 C7         0.1108    6.0619   11.6733 C.ar      1 RES1    0.0000
     19 C8        -1.1844    5.6083   11.8966 C.ar      1 RES1    0.0000
     20 H5        -1.8248    5.6821   11.2264 H         1 RES1    0.0000
     21 C9        -1.5214    5.0470   13.1172 C.ar      1 RES1    0.0000
     22 H6        -2.3907    4.7481   13.2593 H         1 RES1    0.0000
     23 C10        1.6601    7.0951   10.1688 C.3       1 RES1    0.0000
     24 H7         1.7165    7.3937    9.2575 H         1 RES1    0.0000
     25 H8         2.3003    6.3954   10.3159 H         1 RES1    0.0000
     26 H9         1.8470    7.8292   10.7580 H         1 RES1    0.0000
     27 C11       -2.4517    6.1993   16.5224 C.ar      1 RES1    0.0000
     28 C12       -1.9326    7.2874   15.7995 C.ar      1 RES1    0.0000
     29 H10       -1.2180    7.1641   15.2183 H         1 RES1    0.0000
     30 C13       -2.4910    8.5381   15.9590 C.ar      1 RES1    0.0000
     31 C14       -3.5534    8.7340   16.8542 C.ar      1 RES1    0.0000
     32 C15       -4.6023   10.1579   18.4226 C.3       1 RES1    0.0000
     33 H11       -3.9137   10.0203   19.0919 H         1 RES1    0.0000
     34 H12       -4.9887   11.0391   18.5463 H         1 RES1    0.0000
     35 C16       -5.6688    9.0837   18.5167 C.3       1 RES1    0.0000
     36 H13       -6.1689    9.1918   19.3417 H         1 RES1    0.0000
     37 H14       -6.2862    9.1717   17.7739 H         1 RES1    0.0000
     38 C17       -4.0595    7.6475   17.5670 C.ar      1 RES1    0.0000
     39 C18       -3.5201    6.3796   17.3959 C.ar      1 RES1    0.0000
     40 H15       -3.8703    5.6553   17.8626 H         1 RES1    0.0000
     41 C19       -0.9619    9.5195   14.4101 C.3       1 RES1    0.0000
     42 H16       -0.7739   10.3623   13.9923 H         1 RES1    0.0000
     43 H17       -1.1663    8.8671   13.7359 H         1 RES1    0.0000
     44 H18       -0.1960    9.2331   14.9127 H         1 RES1    0.0000
     45 C20       -5.4471    9.9843   17.5216 Du        3 SUP3    0.0000
     46 H19       -5.7616   10.8822   17.7114 Du        3 SUP3    0.0000
     47 H20       -6.0408    9.5723   16.8749 Du        3 SUP3    0.0000
     48 C21       -5.3707    9.1728   18.7682 Du        3 SUP3    0.0000
     49 H21       -4.6860    9.5404   19.3483 Du        3 SUP3    0.0000
     50 H22       -6.2182    9.2238   19.2366 Du        3 SUP3    0.0000
     51 O6        -0.6996    3.2350    5.3240 O.3       2 RES2    0.0000
     52 O7         1.6429    2.3065   12.7259 O.3       2 RES2    0.0000
     53 O8         0.9843   -2.8474    5.5422 O.3       2 RES2    0.0000
     54 O9         0.3463   -1.1231    3.3594 O.3       2 RES2    0.0000
     55 O10        1.0618   -1.9146    7.9786 O.3       2 RES2    0.0000
     56 N3        -1.0120    4.5721    5.7164 N.2       2 RES2    0.0000
     57 N4        -0.8263    5.7800    7.7096 N.pl3     2 RES2    0.0000
     58 H23       -0.6363    5.7774    8.5246 H         2 RES2    0.0000
     59 H24       -1.3054    6.4084    7.3742 H         2 RES2    0.0000
     60 C22       -0.6730    4.6423    6.9911 C.2       2 RES2    0.0000
     61 C23       -0.1384    3.4064    7.4831 C.2       2 RES2    0.0000
     62 C24       -0.1910    2.5825    6.3966 C.2       2 RES2    0.0000
     63 C25        0.3453    3.1503    8.8598 C.ar      2 RES2    0.0000
     64 C26        1.6498    3.4568    9.2225 C.ar      2 RES2    0.0000
     65 H25        2.2176    3.8440    8.5969 H         2 RES2    0.0000
     66 C27        2.1252    3.1963   10.5071 C.ar      2 RES2    0.0000
     67 H26        2.9999    3.4127   10.7366 H         2 RES2    0.0000
     68 C28        1.2774    2.6090   11.4404 C.ar      2 RES2    0.0000
     69 C29       -0.0331    2.3004   11.0946 C.ar      2 RES2    0.0000
     70 H27       -0.5994    1.9091   11.7194 H         2 RES2    0.0000
     71 C30       -0.4938    2.5757    9.8191 C.ar      2 RES2    0.0000
     72 H28       -1.3741    2.3756    9.5961 H         2 RES2    0.0000
     73 C31        2.9529    2.7073   13.1476 C.3       2 RES2    0.0000
     74 H29        3.0658    2.5020   14.0794 H         2 RES2    0.0000
     75 H30        3.0570    3.6523   13.0128 H         2 RES2    0.0000
     76 H31        3.6123    2.2362   12.6332 H         2 RES2    0.0000
     77 C32        0.1512    1.1772    6.1685 C.ar      2 RES2    0.0000
     78 C33        0.4460    0.3283    7.2507 C.ar      2 RES2    0.0000
     79 H32        0.4478    0.6612    8.1186 H         2 RES2    0.0000
     80 C34        0.7333   -1.0019    7.0156 C.ar      2 RES2    0.0000
     81 C35        0.7099   -1.5146    5.7092 C.ar      2 RES2    0.0000
     82 C36        1.3060   -3.1399    4.1057 C.3       2 RES2    0.0000
     83 H33        2.1838   -2.7916    3.8884 H         2 RES2    0.0000
     84 H34        1.3130   -4.0990    3.9591 H         2 RES2    0.0000
     85 C37        0.2783   -2.5026    3.2323 C.3       2 RES2    0.0000
     86 H35        0.4325   -2.7541    2.3090 H         2 RES2    0.0000
     87 H36       -0.6049   -2.8119    3.4874 H         2 RES2    0.0000
     88 C38        0.4129   -0.6675    4.6487 C.ar      2 RES2    0.0000
     89 C39        0.1538    0.6780    4.8741 C.ar      2 RES2    0.0000
     90 H37       -0.0179    1.2446    4.1563 H         2 RES2    0.0000
     91 C40        1.0359   -1.4633    9.3353 C.3       2 RES2    0.0000
     92 H38        1.2664   -2.1902    9.9182 H         2 RES2    0.0000
     93 H39        0.1561   -1.1462    9.5501 H         2 RES2    0.0000
     94 H40        1.6692   -0.7501    9.4482 H         2 RES2    0.0000
     95 C41        0.3775   -3.4127    4.3403 Du        3 SUP3    0.0000
     96 H41       -0.5913   -3.3805    4.3929 Du        3 SUP3    0.0000
     97 H42        0.6563   -4.3325    4.2105 Du        3 SUP3    0.0000
     98 C42        0.8882   -2.5286    3.2294 Du        3 SUP3    0.0000
     99 H43        0.6215   -2.8998    2.3731 Du        3 SUP3    0.0000
    100 H44        1.8577   -2.5047    3.2557 Du        3 SUP3    0.0000
@<TRIPOS>BOND
     1    1    6 1
     2    2   18 1
     3    3   31 1
     4    4   35 1
     5    5   30 1
     6    6   10 2
     7    7    8 1
     8    9    7 1
     9   10    7 1
    10   11   10 1
    11   12    1 1
    12   13   11 1
    13   14   13 ar
    14   15   14 1
    15   16   14 ar
    16   17   16 1
    17   18   16 ar
    18   19   18 ar
    19   20   19 1
    20   21   13 ar
    21   22   21 1
    22   23    2 1
    23   24   23 1
    24   25   23 1
    25   26   23 1
    26   27   12 1
    27   28   27 ar
    28   29   28 1
    29   30   28 ar
    30   31   30 ar
    31   32    3 1
    32   33   32 1
    33   34   32 1
    34   35   32 1
    35   36   35 1
    36   37   35 1
    37   38    4 1
    38   39   27 ar
    39   40   39 1
    40   41    5 1
    41   42   41 1
    42   43   41 1
    43   44   41 1
    44   51   56 1
    45   52   68 1
    46   53   81 1
    47   54   85 1
    48   55   80 1
    49   56   60 2
    50   57   58 1
    51   59   57 1
    52   60   57 1
    53   61   60 1
    54   62   51 1
    55   63   61 1
    56   64   63 ar
    57   65   64 1
    58   66   64 ar
    59   67   66 1
    60   68   66 ar
    61   69   68 ar
    62   70   69 1
    63   71   63 ar
    64   72   71 1
    65   73   52 1
    66   74   73 1
    67   75   73 1
    68   76   73 1
    69   77   62 1
    70   78   77 ar
    71   79   78 1
    72   80   78 ar
    73   81   80 ar
    74   82   53 1
    75   83   82 1
    76   84   82 1
    77   85   82 1
    78   86   85 1
    79   87   85 1
    80   88   54 1
    81   89   77 ar
    82   90   89 1
    83   91   55 1
    84   92   91 1
    85   93   91 1
    86   94   91 1
    87   11   12 2
    88   19   21 ar
    89   31   38 ar
    90   38   39 ar
    91   61   62 2
    92   69   71 ar
    93   81   88 ar
    94   88   89 ar
@<TRIPOS>SUBSTRUCTURE
     1 RES1 1
     2 RES2 51
     3 SUP3 45

@<TRIPOS>CRYSIN
  10.2560   10.8950   17.2580 105.4280  93.5050 107.8010   2 1

