# MOL2 file generated by ConQuest
# Please check atom types

@<TRIPOS>MOLECULE
TOMMUE
    33    34     1
SMALL
NO_CHARGES
****
Generated from CSD

@<TRIPOS>ATOM
      1 O1         7.4146   -1.6263    6.2040 O.2       1 RES1    0.0000
      2 O2         3.6564   -0.1029    8.6861 O.3       1 RES1    0.0000
      3 O3         8.0677    3.3230   11.1967 O.2       1 RES1    0.0000
      4 O4         6.0833    3.8950   10.9061 O.2       1 RES1    0.0000
      5 N1         6.8317    0.3368    7.2288 N.am      1 RES1    0.0000
      6 N2         7.0402    3.3350   10.5443 N.pl3     1 RES1    0.0000
      7 C1         6.1540    1.3212    9.4409 C.3       1 RES1    0.0000
      8 C2         6.6201   -0.9427    6.8622 C.2       1 RES1    0.0000
      9 C3         7.0446    2.5608    9.2916 C.3       1 RES1    0.0000
     10 H1         7.9509    2.2889    9.0789 H         1 RES1    0.0000
     11 H2         6.7163    3.1142    8.5654 H         1 RES1    0.0000
     12 C4         5.3006   -1.3353    7.3649 C.2       1 RES1    0.0000
     13 C5         4.7977   -0.2860    8.0412 C.2       1 RES1    0.0000
     14 C6         5.7576    0.8699    8.0264 C.3       1 RES1    0.0000
     15 C7         6.7282    0.2196   10.2843 C.ar      1 RES1    0.0000
     16 C8         5.9355   -0.3741   11.2615 C.ar      1 RES1    0.0000
     17 C9         6.4256   -1.4114   12.0292 C.ar      1 RES1    0.0000
     18 C10        7.7166   -1.8496   11.8645 C.ar      1 RES1    0.0000
     19 C11        8.5041   -1.2646   10.9152 C.ar      1 RES1    0.0000
     20 C12        8.0333   -0.2544   10.1319 C.ar      1 RES1    0.0000
     21 C13        2.7520   -1.2092    8.7301 C.3       1 RES1    0.0000
     22 H3         1.9650   -0.9601    9.2203 H         1 RES1    0.0000
     23 H4         3.1761   -1.9529    9.1632 H         1 RES1    0.0000
     24 H5         2.5066   -1.4571    7.8353 H         1 RES1    0.0000
     25 H6         8.6156    0.1305    9.6093 H         1 RES1    0.0000
     26 H7         9.3322   -1.5332   10.9191 H         1 RES1    0.0000
     27 H8         8.0653   -2.6206   12.2807 H         1 RES1    0.0000
     28 H9         5.9155   -1.9464   12.5531 H         1 RES1    0.0000
     29 H10        5.0342   -0.1196   11.3341 H         1 RES1    0.0000
     30 H11        4.8547   -2.1965    7.1973 H         1 RES1    0.0000
     31 H12        7.5518    0.7394    7.0935 H         1 RES1    0.0000
     32 H13        5.3352    1.7072    7.6122 H         1 RES1    0.0000
     33 H14        5.3620    1.7507    9.8427 H         1 RES1    0.0000
@<TRIPOS>BOND
     1    1    8 2
     2    2   13 1
     3    3    6 2
     4    4    6 2
     5    5    8 1
     6    6    9 1
     7    7    9 1
     8    8   12 1
     9    9   10 1
    10   11    9 1
    11   12   13 2
    12   13   14 1
    13   14    5 1
    14   15    7 1
    15   16   15 ar
    16   17   16 ar
    17   18   17 ar
    18   19   18 ar
    19   20   15 ar
    20   21    2 1
    21   22   21 1
    22   23   21 1
    23   24   21 1
    24   25   20 1
    25   26   19 1
    26   27   18 1
    27   28   17 1
    28   29   16 1
    29   30   12 1
    30   31    5 1
    31   32   14 1
    32   33    7 1
    33    7   14 1
    34   19   20 ar
@<TRIPOS>SUBSTRUCTURE
     1 RES1 1

@<TRIPOS>CRYSIN
   9.4065   10.8737   13.1263  90.0000  98.9060  90.0000  14 2

