# MOL2 file generated by ConQuest
# Please check atom types

@<TRIPOS>MOLECULE
TOMMIS
    46    50     1
SMALL
NO_CHARGES
****
Generated from CSD

@<TRIPOS>ATOM
      1 C1        -0.1400   -0.3186   12.2787 C.ar      1 RES1    0.0000
      2 H1        -0.5252   -0.1899   13.1146 H         1 RES1    0.0000
      3 C2         0.3530   -1.5469   11.9460 C.ar      1 RES1    0.0000
      4 H2         0.2910   -2.2477   12.5531 H         1 RES1    0.0000
      5 C3         0.9526   -1.7604   10.6949 C.ar      1 RES1    0.0000
      6 H3         1.2852   -2.6010   10.4791 H         1 RES1    0.0000
      7 C4         0.5478    0.5502   10.0972 C.ar      1 RES1    0.0000
      8 C5         1.0511   -0.7380    9.7947 C.ar      1 RES1    0.0000
      9 H4         1.4544   -0.8907    8.9700 H         1 RES1    0.0000
     10 C6         0.6419    1.6283    9.1915 C.ar      1 RES1    0.0000
     11 H5         1.0583    1.5008    8.3699 H         1 RES1    0.0000
     12 C7         0.1306    2.8557    9.5031 C.ar      1 RES1    0.0000
     13 H6         0.1955    3.5559    8.8928 H         1 RES1    0.0000
     14 C8        -0.4902    3.0571   10.7356 C.ar      1 RES1    0.0000
     15 O1        -1.1028    4.3108   10.9286 O.3       1 RES1    0.0000
     16 C9        -0.5966    5.0545   11.9765 C.ar      1 RES1    0.0000
     17 C10       -0.1911    6.3499   11.7112 C.ar      1 RES1    0.0000
     18 H7        -0.2064    6.6957   10.8476 H         1 RES1    0.0000
     19 C11        0.2378    7.1080   12.7802 C.ar      1 RES1    0.0000
     20 C12        0.3217    6.6326   14.0727 C.ar      1 RES1    0.0000
     21 H8         0.6579    7.1606   14.7605 H         1 RES1    0.0000
     22 C13       -0.1123    5.3417   14.3064 C.ar      1 RES1    0.0000
     23 C14       -0.6127    4.5332   13.2718 C.ar      1 RES1    0.0000
     24 C15       -1.2480    3.2497   13.5923 C.2       1 RES1    0.0000
     25 H9        -1.6893    3.2152   14.4096 H         1 RES1    0.0000
     26 N1        -1.2823    2.1707   12.9051 N.2       1 RES1    0.0000
     27 C16       -0.6083    2.0556   11.6800 C.ar      1 RES1    0.0000
     28 C17       -0.0744    0.7665   11.3620 C.ar      1 RES1    0.0000
     29 N2         0.6156    8.5164   12.5454 N.pl3     1 RES1    0.0000
     30 O2         0.4843    8.9609   11.4115 O.2       1 RES1    0.0000
     31 O3         1.0343    9.1724   13.4898 O.2       1 RES1    0.0000
     32 O4        -0.1357    4.8050   15.5733 O.3       1 RES1    0.0000
     33 C18        0.9934    5.0260   16.3791 C.ar      1 RES1    0.0000
     34 C19        0.7841    5.4430   17.6695 C.ar      1 RES1    0.0000
     35 H10       -0.0773    5.6152   17.9751 H         1 RES1    0.0000
     36 C20        1.8731    5.6051   18.5110 C.ar      1 RES1    0.0000
     37 H11        1.7345    5.8944   19.3824 H         1 RES1    0.0000
     38 C21        3.1626    5.3451   18.0815 C.ar      1 RES1    0.0000
     39 C22        3.3457    4.9075   16.7721 C.ar      1 RES1    0.0000
     40 H12        4.2042    4.7189   16.4696 H         1 RES1    0.0000
     41 C23        2.2648    4.7483   15.9109 C.ar      1 RES1    0.0000
     42 H13        2.3953    4.4606   15.0378 H         1 RES1    0.0000
     43 C24        4.3464    5.5523   18.9813 C.3       1 RES1    0.0000
     44 H14        4.0474    5.6431   19.8878 H         1 RES1    0.0000
     45 H15        4.8132    6.3481   18.7191 H         1 RES1    0.0000
     46 H16        4.9365    4.7984   18.9122 H         1 RES1    0.0000
@<TRIPOS>BOND
     1    1    2 1
     2    3    1 ar
     3    4    3 1
     4    5    3 ar
     5    6    5 1
     6    7    8 ar
     7    8    5 ar
     8    9    8 1
     9   10    7 ar
    10   11   10 1
    11   12   10 ar
    12   13   12 1
    13   14   12 ar
    14   15   14 1
    15   16   15 1
    16   17   16 ar
    17   18   17 1
    18   19   17 ar
    19   20   19 ar
    20   21   20 1
    21   22   20 ar
    22   23   16 ar
    23   24   23 1
    24   25   24 1
    25   26   24 2
    26   27   14 ar
    27   28    1 ar
    28   29   19 1
    29   30   29 2
    30   31   29 2
    31   32   22 1
    32   33   32 1
    33   34   33 ar
    34   35   34 1
    35   36   34 ar
    36   37   36 1
    37   38   36 ar
    38   39   38 ar
    39   40   39 1
    40   41   33 ar
    41   42   41 1
    42   43   38 1
    43   44   43 1
    44   45   43 1
    45   46   43 1
    46    7   28 ar
    47   22   23 ar
    48   26   27 1
    49   27   28 ar
    50   39   41 ar
@<TRIPOS>SUBSTRUCTURE
     1 RES1 1

@<TRIPOS>CRYSIN
   7.2939   13.9611   35.0940  90.0000  90.0000  90.0000  61 1

