# MOL2 file generated by ConQuest
# Please check atom types

@<TRIPOS>MOLECULE
TONFUX
    31    32     1
SMALL
NO_CHARGES
****
Generated from CSD

@<TRIPOS>ATOM
      1 C1         6.8529    0.2875    7.4672 C.ar      1 RES1    0.0000
      2 C2         6.1446    0.1932    6.2324 C.ar      1 RES1    0.0000
      3 C3         6.2431    1.1381    5.2385 C.ar      1 RES1    0.0000
      4 C4         7.1104    2.1910    5.4109 C.ar      1 RES1    0.0000
      5 C5         7.9277    2.2679    6.5368 C.ar      1 RES1    0.0000
      6 C6         7.8056    1.3349    7.5242 C.ar      1 RES1    0.0000
      7 C7         7.5928   -0.7343    9.5999 C.3       1 RES1    0.0000
      8 C8         7.1380   -0.1538   10.9176 C.3       1 RES1    0.0000
      9 C9         5.7738   -0.6986   11.2895 C.3       1 RES1    0.0000
     10 C10        4.7887   -0.5091   10.1558 C.3       1 RES1    0.0000
     11 C11        5.2963   -1.0648    8.8380 C.3       1 RES1    0.0000
     12 O1         5.8457   -2.0995    6.2272 O.2       1 RES1    0.0000
     13 O2         4.3995   -0.8900    5.1802 O.2       1 RES1    0.0000
     14 O3         6.5744    3.0544    3.3455 O.2       1 RES1    0.0000
     15 O4         7.9522    4.1605    4.5635 O.2       1 RES1    0.0000
     16 N1         6.6126   -0.5118    8.5322 N.3       1 RES1    0.0000
     17 N2         5.3991   -1.0163    5.8721 N.pl3     1 RES1    0.0000
     18 N3         7.2202    3.2073    4.3782 N.pl3     1 RES1    0.0000
     19 H1         5.7399    1.0209    4.4391 H         1 RES1    0.0000
     20 H2         8.5418    2.9647    6.6392 H         1 RES1    0.0000
     21 H3         8.3160    1.4347    8.2757 H         1 RES1    0.0000
     22 H4         8.4418   -0.3699    9.3395 H         1 RES1    0.0000
     23 H5         7.6831   -1.7149    9.6763 H         1 RES1    0.0000
     24 H6         7.7923   -0.3589   11.5603 H         1 RES1    0.0000
     25 H7         7.1754    0.8323   10.8451 H         1 RES1    0.0000
     26 H8         5.4709   -0.3021   12.1058 H         1 RES1    0.0000
     27 H9         5.8789   -1.6673   11.4929 H         1 RES1    0.0000
     28 H10        4.5712    0.4258   10.0262 H         1 RES1    0.0000
     29 H11        3.9309   -0.9431   10.3592 H         1 RES1    0.0000
     30 H12        4.6262   -0.7938    8.1202 H         1 RES1    0.0000
     31 H13        5.3601   -2.0372    8.8613 H         1 RES1    0.0000
@<TRIPOS>BOND
     1    1    2 ar
     2    2    3 ar
     3    3    4 ar
     4    4    5 ar
     5    5    6 ar
     6    6    1 ar
     7    7    8 1
     8    8    9 1
     9    9   10 1
    10   10   11 1
    11   11   16 1
    12   12   17 2
    13   13   17 2
    14   14   18 2
    15   15   18 2
    16   16    1 1
    17   17    2 1
    18   18    4 1
    19   19    3 1
    20   20    5 1
    21   21    6 1
    22   22    7 1
    23   23    7 1
    24   24    8 1
    25   25    8 1
    26   26    9 1
    27   27    9 1
    28   28   10 1
    29   29   10 1
    30   30   11 1
    31   31   11 1
    32    7   16 1
@<TRIPOS>SUBSTRUCTURE
     1 RES1 1

@<TRIPOS>CRYSIN
   9.9680    9.1560   13.2490  90.0000 102.0500  90.0000 231 1

