# MOL2 file generated by ConQuest
# Please check atom types

@<TRIPOS>MOLECULE
TONZUS
    42    40     2
SMALL
NO_CHARGES
****
Generated from CSD

@<TRIPOS>ATOM
      1 C1         8.9089    6.1355    3.3394 C.3       1 RES1    0.0000
      2 H1         8.7475    5.2987    3.8239 H         1 RES1    0.0000
      3 C2         7.6237    6.6436    2.7886 C.3       1 RES1    0.0000
      4 H2         7.2573    5.9972    2.1644 H         1 RES1    0.0000
      5 H3         7.7803    7.4727    2.3082 H         1 RES1    0.0000
      6 C3         6.6372    6.8849    3.9116 C.3       1 RES1    0.0000
      7 H4         5.9166    7.4571    3.6035 H         1 RES1    0.0000
      8 H5         6.2549    6.0425    4.2043 H         1 RES1    0.0000
      9 C4         7.3621    7.5376    5.0414 C.2       1 RES1    0.0000
     10 C5         8.6656    7.6594    5.1524 C.2       1 RES1    0.0000
     11 C6         9.4000    8.4008    6.2055 C.3       1 RES1    0.0000
     12 H6        10.3440    8.3297    6.0474 H         1 RES1    0.0000
     13 H7         9.1905    8.0281    7.0653 H         1 RES1    0.0000
     14 H8         9.1411    9.3250    6.1861 H         1 RES1    0.0000
     15 C7        10.9525    5.1462    2.6805 C.3       1 RES1    0.0000
     16 H9        10.6771    4.3451    3.1527 H         1 RES1    0.0000
     17 H10       11.5190    5.6674    3.2710 H         1 RES1    0.0000
     18 C8        11.7060    4.7761    1.4514 C.3       1 RES1    0.0000
     19 H11       11.1306    4.2859    0.8588 H         1 RES1    0.0000
     20 H12       12.4592    4.2314    1.6891 H         1 RES1    0.0000
     21 H13       12.0129    5.5727    1.0118 H         1 RES1    0.0000
     22 C9         5.8872    7.4651    6.8845 C.2       1 RES1    0.0000
     23 C10        5.0141    8.2950    7.7560 C.ar      1 RES1    0.0000
     24 C11        4.2776    7.6530    8.7417 C.ar      1 RES1    0.0000
     25 H14        4.3398    6.7305    8.8390 H         1 RES1    0.0000
     26 C12        3.4570    8.3757    9.5761 C.ar      1 RES1    0.0000
     27 H15        2.9587    7.9519   10.2374 H         1 RES1    0.0000
     28 C13        3.3905    9.7332    9.4093 C.ar      1 RES1    0.0000
     29 C14        4.1125   10.3964    8.4453 C.ar      1 RES1    0.0000
     30 H16        4.0507   11.3199    8.3566 H         1 RES1    0.0000
     31 C15        4.9229    9.6669    7.6179 C.ar      1 RES1    0.0000
     32 H17        5.4166   10.0976    6.9582 H         1 RES1    0.0000
     33 N1         2.5428   10.5225   10.3231 N.pl3     1 RES1    0.0000
     34 O1         9.5121    7.0971    4.2268 O.3       1 RES1    0.0000
     35 O2         9.8084    5.9072    2.3106 O.3       1 RES1    0.0000
     36 O3         6.5565    8.2146    5.9952 O.3       1 RES1    0.0000
     37 O4         5.9801    6.2800    6.9492 O.2       1 RES1    0.0000
     38 O5         2.0549    9.9586   11.2914 O.2       1 RES1    0.0000
     39 O6         2.3756   11.6962   10.0660 O.2       1 RES1    0.0000
     40 H18        8.7725    8.7925    6.8175 Du        2 SUP2    0.0000
     41 H19        9.9269    9.0941    5.8005 Du        2 SUP2    0.0000
     42 H20        9.9763    7.7972    6.6798 Du        2 SUP2    0.0000
@<TRIPOS>BOND
     1    1    2 1
     2    3    1 1
     3    4    3 1
     4    5    3 1
     5    6    3 1
     6    7    6 1
     7    8    6 1
     8    9    6 1
     9   10    9 2
    10   11   10 1
    11   12   11 1
    12   13   11 1
    13   14   11 1
    14   15   16 1
    15   17   15 1
    16   18   15 1
    17   19   18 1
    18   20   18 1
    19   21   18 1
    20   22   23 1
    21   23   24 ar
    22   24   25 1
    23   26   24 ar
    24   27   26 1
    25   28   26 ar
    26   29   28 ar
    27   30   29 1
    28   31   23 ar
    29   32   31 1
    30   33   28 1
    31   34    1 1
    32   35    1 1
    33   36    9 1
    34   37   22 2
    35   38   33 2
    36   39   33 2
    37   10   34 1
    38   15   35 1
    39   22   36 1
    40   29   31 ar
@<TRIPOS>SUBSTRUCTURE
     1 RES1 1
     2 SUP2 40

@<TRIPOS>CRYSIN
   7.8575   10.1281   10.3925  86.2870  78.9570  72.8790   2 1

