# MOL2 file generated by ConQuest
# Please check atom types

@<TRIPOS>MOLECULE
TOPPAP
    62    62     1
SMALL
NO_CHARGES
****
Generated from CSD

@<TRIPOS>ATOM
      1 O1        11.2330   11.4089    3.2962 O.2       1 RES1    0.0000
      2 O2         8.4794   11.8748    1.1920 O.3       1 RES1    0.0000
      3 O3         6.2208   14.2635    1.5715 O.2       1 RES1    0.0000
      4 N1        11.1420   11.8368    2.1309 N.3       1 RES1    0.0000
      5 N2         7.1872   14.2635    0.7325 N.3       1 RES1    0.0000
      6 C1        11.0911   14.2635    2.1775 C.ar      1 RES1    0.0000
      7 C2        10.4741   13.0749    1.9444 C.ar      1 RES1    0.0000
      8 C3         9.1710   13.0197    1.4716 C.ar      1 RES1    0.0000
      9 C4         8.5358   14.2635    1.2519 C.ar      1 RES1    0.0000
     10 C5        11.8555   11.0761    1.0654 C.3       1 RES1    0.0000
     11 C6        11.5934   11.6390   -0.1998 C.3       1 RES1    0.0000
     12 C7        13.2423   10.9734    1.3718 C.3       1 RES1    0.0000
     13 C8        11.2804    9.6916    1.0455 C.3       1 RES1    0.0000
     14 C9         7.9352   11.1655    2.3307 C.3       1 RES1    0.0000
     15 C10        6.7850   14.2635   -0.7391 C.3       1 RES1    0.0000
     16 C11        8.0626   14.2635   -1.5449 C.3       1 RES1    0.0000
     17 C12        5.9914   13.0083   -1.0321 C.3       1 RES1    0.0000
     18 H1        11.9811   14.2635    2.5131 H         1 RES1    0.0000
     19 H2        11.9410   12.5215   -0.2331 H         1 RES1    0.0000
     20 H3        12.0102   11.1103   -0.8730 H         1 RES1    0.0000
     21 H4        10.6561   11.6599   -0.3516 H         1 RES1    0.0000
     22 H5        13.6282   11.8425    1.3817 H         1 RES1    0.0000
     23 H6        13.6737   10.4409    0.7178 H         1 RES1    0.0000
     24 H7        13.3479   10.5721    2.2288 H         1 RES1    0.0000
     25 H8        11.7408    9.1686    0.3955 H         1 RES1    0.0000
     26 H9        11.3841    9.2922    1.9005 H         1 RES1    0.0000
     27 H10       10.3594    9.7334    0.8231 H         1 RES1    0.0000
     28 H11        8.6377   10.9373    2.9266 H         1 RES1    0.0000
     29 H12        7.5057   10.3724    2.0303 H         1 RES1    0.0000
     30 H13        7.3055   11.7170    2.7761 H         1 RES1    0.0000
     31 H14        6.5265   12.2457   -0.8484 H         1 RES1    0.0000
     32 H15        5.2161   12.9893   -0.4801 H         1 RES1    0.0000
     33 H16        5.7294   13.0007   -1.9438 H         1 RES1    0.0000
     34 H17        8.5576   13.4876   -1.3371 H         1 RES1    0.0000
     35 H18        7.8369   14.2635   -2.4718 H         1 RES1    0.0000
     36 C2G       10.4741   15.4521    1.9444 C.ar      1 RES1    0.0000
     37 N1G       11.1420   16.6902    2.1309 N.3       1 RES1    0.0000
     38 O1G       11.2330   17.1181    3.2962 O.2       1 RES1    0.0000
     39 C5G       11.8555   17.4509    1.0654 C.3       1 RES1    0.0000
     40 C6G       11.5934   16.8880   -0.1998 C.3       1 RES1    0.0000
     41 H2G       11.9410   16.0055   -0.2331 H         1 RES1    0.0000
     42 H3G       12.0102   17.4167   -0.8730 H         1 RES1    0.0000
     43 H4G       10.6561   16.8671   -0.3516 H         1 RES1    0.0000
     44 C7G       13.2423   17.5536    1.3718 C.3       1 RES1    0.0000
     45 H5G       13.6282   16.6845    1.3817 H         1 RES1    0.0000
     46 H6G       13.6737   18.0861    0.7178 H         1 RES1    0.0000
     47 H7G       13.3479   17.9549    2.2288 H         1 RES1    0.0000
     48 C8G       11.2804   18.8354    1.0455 C.3       1 RES1    0.0000
     49 H8G       11.7408   19.3584    0.3955 H         1 RES1    0.0000
     50 H9G       11.3841   19.2348    1.9005 H         1 RES1    0.0000
     51 H10G      10.3594   18.7936    0.8231 H         1 RES1    0.0000
     52 C3G        9.1710   15.5073    1.4716 C.ar      1 RES1    0.0000
     53 O2G        8.4794   16.6522    1.1920 O.3       1 RES1    0.0000
     54 C9G        7.9352   17.3615    2.3307 C.3       1 RES1    0.0000
     55 H11G       8.6377   17.5897    2.9266 H         1 RES1    0.0000
     56 H12G       7.5057   18.1546    2.0303 H         1 RES1    0.0000
     57 H13G       7.3055   16.8100    2.7761 H         1 RES1    0.0000
     58 H17G       8.5576   15.0394   -1.3371 H         1 RES1    0.0000
     59 C12G       5.9914   15.5187   -1.0321 C.3       1 RES1    0.0000
     60 H14G       6.5265   16.2813   -0.8484 H         1 RES1    0.0000
     61 H15G       5.2161   15.5377   -0.4801 H         1 RES1    0.0000
     62 H16G       5.7294   15.5263   -1.9438 H         1 RES1    0.0000
@<TRIPOS>BOND
     1    1    4 1
     2    2    8 1
     3    3    5 1
     4    4    7 1
     5    5    9 1
     6    6    7 ar
     7    7    8 ar
     8    8    9 ar
     9    9   52 ar
    10   10    4 1
    11   11   10 1
    12   12   10 1
    13   13   10 1
    14   14    2 1
    15   15    5 1
    16   16   15 1
    17   17   15 1
    18   18    6 1
    19   19   11 1
    20   20   11 1
    21   21   11 1
    22   22   12 1
    23   23   12 1
    24   24   12 1
    25   25   13 1
    26   26   13 1
    27   27   13 1
    28   28   14 1
    29   29   14 1
    30   30   14 1
    31   31   17 1
    32   32   17 1
    33   33   17 1
    34   34   16 1
    35   35   16 1
    36   36    6 ar
    37   37   36 1
    38   38   37 1
    39   39   37 1
    40   40   39 1
    41   41   40 1
    42   42   40 1
    43   43   40 1
    44   44   39 1
    45   45   44 1
    46   46   44 1
    47   47   44 1
    48   48   39 1
    49   49   48 1
    50   50   48 1
    51   51   48 1
    52   52   36 ar
    53   53   52 1
    54   54   53 1
    55   55   54 1
    56   56   54 1
    57   57   54 1
    58   58   16 1
    59   59   15 1
    60   60   59 1
    61   61   59 1
    62   62   59 1
@<TRIPOS>SUBSTRUCTURE
     1 RES1 1

@<TRIPOS>CRYSIN
  18.2000   19.0180    6.6590  90.0000  90.0000  90.0000  62 1

