# MOL2 file generated by ConQuest
# Please check atom types

@<TRIPOS>MOLECULE
TOPXUT
    41    42     1
SMALL
NO_CHARGES
****
Generated from CSD

@<TRIPOS>ATOM
      1 C1         5.1393    9.4555    9.7144 C.3       1 RES1    0.0000
      2 H1         4.2610    9.4945   10.1014 H         1 RES1    0.0000
      3 H2         5.3858   10.3251    9.3942 H         1 RES1    0.0000
      4 H3         5.7693    9.1683   10.3797 H         1 RES1    0.0000
      5 C2         5.1404    8.5170    8.6112 C.3       1 RES1    0.0000
      6 H4         6.0380    8.4236    8.2551 H         1 RES1    0.0000
      7 H5         4.5621    8.8378    7.9010 H         1 RES1    0.0000
      8 C3         4.4234    6.3015    8.1807 C.2       1 RES1    0.0000
      9 C4         3.9067    5.0528    8.8424 C.3       1 RES1    0.0000
     10 H6         4.5799    4.6800    9.4331 H         1 RES1    0.0000
     11 H7         3.1127    5.2507    9.3643 H         1 RES1    0.0000
     12 C5         3.1926    2.8827    8.1496 C.ar      1 RES1    0.0000
     13 C6         2.9459    2.0194    7.0730 C.ar      1 RES1    0.0000
     14 C7         3.2014    2.4797    5.7081 C.2       1 RES1    0.0000
     15 H8         3.6175    3.3007    5.5749 H         1 RES1    0.0000
     16 C8         2.4796    0.7329    7.3481 C.ar      1 RES1    0.0000
     17 H9         2.2873    0.1542    6.6462 H         1 RES1    0.0000
     18 C9         2.2990    0.3098    8.6550 C.ar      1 RES1    0.0000
     19 C10        2.5755    1.1815    9.7074 C.ar      1 RES1    0.0000
     20 H10        2.4648    0.8946   10.5852 H         1 RES1    0.0000
     21 C11        3.0093    2.4586    9.4557 C.ar      1 RES1    0.0000
     22 H11        3.1801    3.0385   10.1613 H         1 RES1    0.0000
     23 C12        1.3520   -2.6857   10.3383 C.ar      1 RES1    0.0000
     24 C13        0.9713   -3.6550    9.4281 C.ar      1 RES1    0.0000
     25 H12        0.9834   -3.4704    8.5174 H         1 RES1    0.0000
     26 C14        0.5743   -4.8920    9.8730 C.ar      1 RES1    0.0000
     27 H13        0.3136   -5.5393    9.2585 H         1 RES1    0.0000
     28 C15        0.5588   -5.1831   11.2146 C.ar      1 RES1    0.0000
     29 H14        0.2878   -6.0241   11.5059 H         1 RES1    0.0000
     30 C16        0.9465   -4.2294   12.1263 C.ar      1 RES1    0.0000
     31 H15        0.9433   -4.4266   13.0350 H         1 RES1    0.0000
     32 C17        1.3389   -2.9827   11.6904 C.ar      1 RES1    0.0000
     33 H16        1.5963   -2.3378   12.3078 H         1 RES1    0.0000
     34 N1         2.8678    1.7870    4.7096 N.2       1 RES1    0.0000
     35 N2         1.8269   -1.0296    8.8456 N.2       1 RES1    0.0000
     36 N3         1.7909   -1.3597   10.0451 N.2       1 RES1    0.0000
     37 O1         4.6583    7.2272    9.1068 O.3       1 RES1    0.0000
     38 O2         4.6083    6.4410    7.0174 O.2       1 RES1    0.0000
     39 O3         3.6005    4.1408    7.8051 O.3       1 RES1    0.0000
     40 O4         3.2418    2.4167    3.5215 O.3       1 RES1    0.0000
     41 H17        3.0174    1.9522    2.8837 H         1 RES1    0.0000
@<TRIPOS>BOND
     1    1    2 1
     2    3    1 1
     3    4    1 1
     4    5    1 1
     5    6    5 1
     6    7    5 1
     7    8    9 1
     8    9   10 1
     9   11    9 1
    10   12   13 ar
    11   13   14 1
    12   14   15 1
    13   16   13 ar
    14   17   16 1
    15   18   16 ar
    16   19   18 ar
    17   20   19 1
    18   21   12 ar
    19   22   21 1
    20   23   24 ar
    21   24   25 1
    22   26   24 ar
    23   27   26 1
    24   28   26 ar
    25   29   28 1
    26   30   28 ar
    27   31   30 1
    28   32   23 ar
    29   33   32 1
    30   34   14 2
    31   35   18 1
    32   36   23 1
    33   37    5 1
    34   38    8 2
    35   39    9 1
    36   40   34 1
    37   41   40 1
    38    8   37 1
    39   12   39 1
    40   19   21 ar
    41   30   32 ar
    42   35   36 2
@<TRIPOS>SUBSTRUCTURE
     1 RES1 1

@<TRIPOS>CRYSIN
   7.4640   22.0340   10.5312  90.0000 108.7090  90.0000  14 1

