# MOL2 file generated by ConQuest
# Please check atom types

@<TRIPOS>MOLECULE
TOQBIM
   171   172     3
SMALL
NO_CHARGES
****
Generated from CSD

@<TRIPOS>ATOM
      1 O1        23.1838    6.7093   13.9507 O.3       1 RES1    0.0000
      2 N1        22.2575    7.2098   14.8503 N.2       1 RES1    0.0000
      3 C1        19.5419    9.4610   14.8581 C.3       1 RES1    0.0000
      4 O2        17.7380    7.6947    5.5283 O.3       1 RES1    0.0000
      5 C2        20.2927    8.3174   15.2854 C.2       1 RES1    0.0000
      6 O3        20.3452    7.9654   16.4394 O.2       1 RES1    0.0000
      7 C3        21.2614    7.7834   14.2821 C.2       1 RES1    0.0000
      8 C4        21.0644    7.9534   12.8107 C.3       1 RES1    0.0000
      9 H1        21.3349    7.1391   12.3598 H         1 RES1    0.0000
     10 H2        21.6381    8.6707   12.4960 H         1 RES1    0.0000
     11 C5        19.6168    8.2731   12.4361 C.3       1 RES1    0.0000
     12 C6        19.5895    8.6802   10.9290 C.3       1 RES1    0.0000
     13 H3        20.2748    9.3760   10.8540 H         1 RES1    0.0000
     14 C7        20.0514    7.5954    9.9840 C.3       1 RES1    0.0000
     15 H4        19.4053    6.8733    9.9899 H         1 RES1    0.0000
     16 H5        20.8973    7.2397   10.2999 H         1 RES1    0.0000
     17 C8        20.2254    8.0935    8.5597 C.3       1 RES1    0.0000
     18 H6        20.9650    8.7222    8.5295 H         1 RES1    0.0000
     19 H7        20.4503    7.3439    7.9863 H         1 RES1    0.0000
     20 C9        18.9747    8.7701    8.0298 C.3       1 RES1    0.0000
     21 H8        18.2482    8.1127    8.0474 H         1 RES1    0.0000
     22 C10       19.1733    9.2179    6.5603 C.3       1 RES1    0.0000
     23 H9        20.0086    9.7184    6.4570 H         1 RES1    0.0000
     24 C11       19.1148    8.0384    5.5820 C.3       1 RES1    0.0000
     25 H10       19.6246    7.2852    5.9451 H         1 RES1    0.0000
     26 C12       19.6175    8.3617    4.1653 C.3       1 RES1    0.0000
     27 C13       18.7337    9.4933    3.6159 C.3       1 RES1    0.0000
     28 H11       19.1821    9.9040    2.8599 H         1 RES1    0.0000
     29 H12       17.8999    9.1149    3.2950 H         1 RES1    0.0000
     30 C14       18.4232   10.5686    4.6522 C.3       1 RES1    0.0000
     31 H13       17.7185   11.1398    4.3094 H         1 RES1    0.0000
     32 H14       19.2123   11.1182    4.7790 H         1 RES1    0.0000
     33 C15       17.9897   10.0082    6.0109 C.3       1 RES1    0.0000
     34 C16       17.4962   11.0751    6.9454 C.3       1 RES1    0.0000
     35 H15       16.6458   11.4080    6.6198 H         1 RES1    0.0000
     36 H16       18.1241   11.8139    6.9360 H         1 RES1    0.0000
     37 C17       17.3187   10.5949    8.3855 C.3       1 RES1    0.0000
     38 H17       16.5871    9.9591    8.4199 H         1 RES1    0.0000
     39 H18       17.0787   11.3517    8.9427 H         1 RES1    0.0000
     40 C18       18.5782    9.9352    8.9568 C.3       1 RES1    0.0000
     41 C19       18.2967    9.3568   10.4032 C.3       1 RES1    0.0000
     42 C20       17.9252   10.4908   11.3580 C.3       1 RES1    0.0000
     43 H19       18.5750   11.2056   11.2594 H         1 RES1    0.0000
     44 H20       17.0586   10.8428   11.1013 H         1 RES1    0.0000
     45 C21       17.8715   10.0800   12.8060 C.3       1 RES1    0.0000
     46 H21       17.1746    9.4167   12.9249 H         1 RES1    0.0000
     47 H22       17.6489   10.8512   13.3507 H         1 RES1    0.0000
     48 C22       19.6867   11.0021    8.9787 C.3       1 RES1    0.0000
     49 H23       19.9633   11.1949    8.0802 H         1 RES1    0.0000
     50 H24       20.4363   10.6752    9.4812 H         1 RES1    0.0000
     51 H25       19.3529   11.8032    9.3889 H         1 RES1    0.0000
     52 C23       21.0855    8.7748    4.1904 C.3       1 RES1    0.0000
     53 H26       21.5839    8.1546    4.7273 H         1 RES1    0.0000
     54 H27       21.1625    9.6562    4.5629 H         1 RES1    0.0000
     55 H28       21.4333    8.7748    3.2950 H         1 RES1    0.0000
     56 C24       19.4583    7.1152    3.2982 C.3       1 RES1    0.0000
     57 H29       20.0152    6.4135    3.6410 H         1 RES1    0.0000
     58 H30       19.7166    7.3176    2.3965 H         1 RES1    0.0000
     59 H31       18.5415    6.8314    3.3122 H         1 RES1    0.0000
     60 C25       17.1387    8.3474   10.3547 C.3       1 RES1    0.0000
     61 H32       16.6484    8.3821   11.1780 H         1 RES1    0.0000
     62 H33       17.4896    7.4636   10.2279 H         1 RES1    0.0000
     63 H34       16.5539    8.5677    9.6252 H         1 RES1    0.0000
     64 C26       16.9851    8.8730    5.7995 C.3       1 RES1    0.0000
     65 H35       16.4428    8.7509    6.5932 H         1 RES1    0.0000
     66 H36       16.3998    9.0778    5.0529 H         1 RES1    0.0000
     67 C27       18.7910    7.0134   12.7606 C.3       1 RES1    0.0000
     68 H37       18.9096    6.7823   13.6857 H         1 RES1    0.0000
     69 H38       19.0849    6.2866   12.2080 H         1 RES1    0.0000
     70 H39       17.8611    7.1882   12.5915 H         1 RES1    0.0000
     71 C28       20.2440   10.7051   15.3825 C.3       1 RES1    0.0000
     72 H40       20.1903   10.7219   16.3420 H         1 RES1    0.0000
     73 H41       19.8196   11.4870   15.0240 H         1 RES1    0.0000
     74 H42       21.1657   10.6895   15.1148 H         1 RES1    0.0000
     75 C29       18.1397    9.3688   15.5390 C.3       1 RES1    0.0000
     76 H43       18.2491    9.3053   16.4908 H         1 RES1    0.0000
     77 H44       17.6788    8.5904   15.2181 H         1 RES1    0.0000
     78 H45       17.6287   10.1531   15.3261 H         1 RES1    0.0000
     79 C30       19.2177    9.4969   13.2753 C.3       1 RES1    0.0000
     80 H46       19.8507   10.1735   12.9562 H         1 RES1    0.0000
     81 H47       23.6933    6.3824   14.6202 H         1 RES1    0.0000
     82 C31       19.2675   10.5494   15.4905 Du        3 SUP3    0.0000
     83 H48       20.1279   10.8883   15.2307 Du        3 SUP3    0.0000
     84 H49       19.2493   10.4213   16.4422 Du        3 SUP3    0.0000
     85 H50       18.5867   11.1769   15.2385 Du        3 SUP3    0.0000
     86 C32       17.7239    8.5904   15.3653 Du        3 SUP3    0.0000
     87 H51       17.5325    7.7582   14.9254 Du        3 SUP3    0.0000
     88 H52       16.9947    9.1987   15.2291 Du        3 SUP3    0.0000
     89 H53       17.8406    8.4348   16.3045 Du        3 SUP3    0.0000
     90 C33       19.0099    9.1939   14.7814 Du        3 SUP3    0.0000
     91 O4        15.7204   12.4019   13.9123 O.3       2 RES2    0.0000
     92 N2        14.7208   11.9995   14.7809 N.2       2 RES2    0.0000
     93 C34       11.3346   10.8069   14.6546 C.3       2 RES2    0.0000
     94 O5        12.1611    7.7723    5.4959 O.3       2 RES2    0.0000
     95 C35       12.7327   10.9482   15.1759 C.2       2 RES2    0.0000
     96 O6        12.9775   10.8728   16.3716 O.2       2 RES2    0.0000
     97 C36       13.7941   11.3014   14.2304 C.2       2 RES2    0.0000
     98 C37       13.7623   10.9302   12.7783 C.3       2 RES2    0.0000
     99 H54       14.5662   10.4345   12.5555 H         2 RES2    0.0000
    100 H55       13.7490   11.7373   12.2393 H         2 RES2    0.0000
    101 C38       12.5173   10.0669   12.4444 C.3       2 RES2    0.0000
    102 C39       12.3387   10.1555   10.8884 C.3       2 RES2    0.0000
    103 H56       12.3848   11.1146   10.6912 H         2 RES2    0.0000
    104 C40       13.4969    9.5496   10.1000 C.3       2 RES2    0.0000
    105 H57       13.4931    8.5856   10.2153 H         2 RES2    0.0000
    106 H58       14.3352    9.8885   10.4517 H         2 RES2    0.0000
    107 C41       13.4047    9.8801    8.6062 C.3       2 RES2    0.0000
    108 H59       13.5626   10.8284    8.4857 H         2 RES2    0.0000
    109 H60       14.1052    9.4011    8.1350 H         2 RES2    0.0000
    110 C42       12.0738    9.5256    7.9894 C.3       2 RES2    0.0000
    111 H61       11.9759    8.5521    8.0568 H         2 RES2    0.0000
    112 C43       12.0368    9.8753    6.5008 C.3       2 RES2    0.0000
    113 H62       12.2740   10.8189    6.3772 H         2 RES2    0.0000
    114 C44       12.9039    9.0059    5.6039 C.3       2 RES2    0.0000
    115 H63       13.7679    8.8395    6.0328 H         2 RES2    0.0000
    116 C45       13.1176    9.6119    4.2154 C.3       2 RES2    0.0000
    117 C46       11.7568    9.7747    3.5314 C.3       2 RES2    0.0000
    118 H64       11.8531   10.3806    2.7816 H         2 RES2    0.0000
    119 H65       11.4744    8.9137    3.1839 H         2 RES2    0.0000
    120 C47       10.6741   10.3088    4.4643 C.3       2 RES2    0.0000
    121 H66        9.8071   10.1866    4.0479 H         2 RES2    0.0000
    122 H67       10.8100   11.2595    4.5974 H         2 RES2    0.0000
    123 C48       10.6825    9.5927    5.8434 C.3       2 RES2    0.0000
    124 C49        9.4850   10.0501    6.6683 C.3       2 RES2    0.0000
    125 H68        9.3975   11.0141    6.5932 H         2 RES2    0.0000
    126 H69        8.6796    9.6502    6.3067 H         2 RES2    0.0000
    127 C50        9.6111    9.6753    8.1335 C.3       2 RES2    0.0000
    128 H70        9.5559    8.7114    8.2149 H         2 RES2    0.0000
    129 H71        8.8617   10.0549    8.6171 H         2 RES2    0.0000
    130 C51       10.9126   10.1507    8.7893 C.3       2 RES2    0.0000
    131 C52       10.9894    9.7053   10.2905 C.3       2 RES2    0.0000
    132 C53        9.8536   10.3591   11.0941 C.3       2 RES2    0.0000
    133 H72        9.8387   11.3098   10.9025 H         2 RES2    0.0000
    134 H73        9.0071    9.9855   10.8039 H         2 RES2    0.0000
    135 C54        9.9944   10.1603   12.5884 C.3       2 RES2    0.0000
    136 H74        9.9634    9.2131   12.7903 H         2 RES2    0.0000
    137 H75        9.2506   10.5890   13.0408 H         2 RES2    0.0000
    138 C55       10.9595   11.6906    8.6400 C.3       2 RES2    0.0000
    139 H76       11.0336   11.9193    7.7108 H         2 RES2    0.0000
    140 H77       11.7168   12.0355    9.1165 H         2 RES2    0.0000
    141 H78       10.1549   12.0714    8.9991 H         2 RES2    0.0000
    142 C56       13.9723    8.6347    3.3583 C.3       2 RES2    0.0000
    143 H79       13.4969    7.8085    3.2449 H         2 RES2    0.0000
    144 H80       14.8070    8.4659    3.8022 H         2 RES2    0.0000
    145 H81       14.1405    9.0275    2.4983 H         2 RES2    0.0000
    146 C57       13.8732   10.9674    4.3250 C.3       2 RES2    0.0000
    147 H82       13.3573   11.5804    4.8541 H         2 RES2    0.0000
    148 H83       14.0022   11.3326    3.4469 H         2 RES2    0.0000
    149 H84       14.7273   10.8261    4.7414 H         2 RES2    0.0000
    150 C58       10.7965    8.1534   10.4047 C.3       2 RES2    0.0000
    151 H85       10.9772    7.8744   11.3048 H         2 RES2    0.0000
    152 H86       11.4021    7.7115    9.8052 H         2 RES2    0.0000
    153 H87        9.8936    7.9259   10.1731 H         2 RES2    0.0000
    154 C59       10.7815    8.0947    5.6368 C.3       2 RES2    0.0000
    155 H88       10.4042    7.6253    6.3975 H         2 RES2    0.0000
    156 H89       10.2930    7.8325    4.8416 H         2 RES2    0.0000
    157 C60       12.8065    8.6407   12.9686 C.3       2 RES2    0.0000
    158 H90       13.1757    8.6946   13.8532 H         2 RES2    0.0000
    159 H91       13.4341    8.2073   12.3865 H         2 RES2    0.0000
    160 H92       11.9903    8.1366   12.9922 H         2 RES2    0.0000
    161 C61       10.6006   12.1145   15.1086 C.3       2 RES2    0.0000
    162 H93       10.6347   12.1851   16.0650 H         2 RES2    0.0000
    163 H94        9.6848   12.0822   14.8221 H         2 RES2    0.0000
    164 H95       11.0325   12.8761   14.7157 H         2 RES2    0.0000
    165 C62       10.6680    9.6214   15.3684 C.3       2 RES2    0.0000
    166 H96       11.1368    8.8120   15.1524 H         2 RES2    0.0000
    167 H97        9.7551    9.5472   15.0820 H         2 RES2    0.0000
    168 H98       10.6946    9.7627   16.3170 H         2 RES2    0.0000
    169 C63       11.3056   10.7458   13.1057 C.3       2 RES2    0.0000
    170 H99       11.3215   11.6762   12.8013 H         2 RES2    0.0000
    171 H100      16.2754   12.6809   14.5419 H         2 RES2    0.0000
@<TRIPOS>BOND
     1    1    2 1
     2    2    7 2
     3    3    5 1
     4    4   24 1
     5    5    6 2
     6    7    5 1
     7    8    7 1
     8    9    8 1
     9   10    8 1
    10   11    8 1
    11   12   11 1
    12   13   12 1
    13   14   12 1
    14   15   14 1
    15   16   14 1
    16   17   14 1
    17   18   17 1
    18   19   17 1
    19   20   17 1
    20   21   20 1
    21   22   20 1
    22   23   22 1
    23   24   22 1
    24   25   24 1
    25   26   24 1
    26   27   26 1
    27   28   27 1
    28   29   27 1
    29   30   27 1
    30   31   30 1
    31   32   30 1
    32   33   22 1
    33   34   33 1
    34   35   34 1
    35   36   34 1
    36   37   34 1
    37   38   37 1
    38   39   37 1
    39   40   20 1
    40   41   12 1
    41   42   41 1
    42   43   42 1
    43   44   42 1
    44   45   42 1
    45   46   45 1
    46   47   45 1
    47   48   40 1
    48   49   48 1
    49   50   48 1
    50   51   48 1
    51   52   26 1
    52   53   52 1
    53   54   52 1
    54   55   52 1
    55   56   26 1
    56   57   56 1
    57   58   56 1
    58   59   56 1
    59   60   41 1
    60   61   60 1
    61   62   60 1
    62   63   60 1
    63   64    4 1
    64   65   64 1
    65   66   64 1
    66   67   11 1
    67   68   67 1
    68   69   67 1
    69   70   67 1
    70   71    3 1
    71   72   71 1
    72   73   71 1
    73   74   71 1
    74   75    3 1
    75   76   75 1
    76   77   75 1
    77   78   75 1
    78   79    3 1
    79   80   79 1
    80   81    1 1
    81   91   92 1
    82   92   97 2
    83   93   95 1
    84   94  114 1
    85   95   96 2
    86   97   95 1
    87   98   97 1
    88   99   98 1
    89  100   98 1
    90  101   98 1
    91  102  101 1
    92  103  102 1
    93  104  102 1
    94  105  104 1
    95  106  104 1
    96  107  104 1
    97  108  107 1
    98  109  107 1
    99  110  107 1
   100  111  110 1
   101  112  110 1
   102  113  112 1
   103  114  112 1
   104  115  114 1
   105  116  114 1
   106  117  116 1
   107  118  117 1
   108  119  117 1
   109  120  117 1
   110  121  120 1
   111  122  120 1
   112  123  112 1
   113  124  123 1
   114  125  124 1
   115  126  124 1
   116  127  124 1
   117  128  127 1
   118  129  127 1
   119  130  110 1
   120  131  102 1
   121  132  131 1
   122  133  132 1
   123  134  132 1
   124  135  132 1
   125  136  135 1
   126  137  135 1
   127  138  130 1
   128  139  138 1
   129  140  138 1
   130  141  138 1
   131  142  116 1
   132  143  142 1
   133  144  142 1
   134  145  142 1
   135  146  116 1
   136  147  146 1
   137  148  146 1
   138  149  146 1
   139  150  131 1
   140  151  150 1
   141  152  150 1
   142  153  150 1
   143  154   94 1
   144  155  154 1
   145  156  154 1
   146  157  101 1
   147  158  157 1
   148  159  157 1
   149  160  157 1
   150  161   93 1
   151  162  161 1
   152  163  161 1
   153  164  161 1
   154  165   93 1
   155  166  165 1
   156  167  165 1
   157  168  165 1
   158  169   93 1
   159  170  169 1
   160  171   91 1
   161   11   79 1
   162   30   33 1
   163   33   64 1
   164   37   40 1
   165   40   41 1
   166   45   79 1
   167  101  169 1
   168  120  123 1
   169  123  154 1
   170  127  130 1
   171  130  131 1
   172  135  169 1
@<TRIPOS>SUBSTRUCTURE
     1 RES1 1
     2 RES2 91
     3 SUP3 82

@<TRIPOS>CRYSIN
  14.3403   11.9744   15.7895  90.0000  97.5310  90.0000   4 1

