# MOL2 file generated by ConQuest
# Please check atom types

@<TRIPOS>MOLECULE
TOQBEI
    34    35     1
SMALL
NO_CHARGES
****
Generated from CSD

@<TRIPOS>ATOM
      1 N1         2.7670    3.8525    5.4796 N.3       1 RES1    0.0000
      2 H1         3.3319    4.4718    5.2049 H         1 RES1    0.0000
      3 C1         2.4687    2.8016    4.6765 C.ar      1 RES1    0.0000
      4 C2         2.7906    2.7686    3.3023 C.ar      1 RES1    0.0000
      5 C3         2.4982    1.6327    2.5365 C.ar      1 RES1    0.0000
      6 C4         1.8404    0.6036    3.1940 C.ar      1 RES1    0.0000
      7 H2         1.6242   -0.1946    2.7269 H         1 RES1    0.0000
      8 C5         1.4993    0.7348    4.5208 C.ar      1 RES1    0.0000
      9 H3         1.0231    0.0218    4.9302 H         1 RES1    0.0000
     10 N2         1.7943    1.7992    5.2707 N.ar      1 RES1    0.0000
     11 N3         3.4162    3.9177    2.6973 N.pl3     1 RES1    0.0000
     12 O1         4.0334    4.7135    3.4154 O.2       1 RES1    0.0000
     13 O2         3.3168    4.0850    1.4881 O.2       1 RES1    0.0000
     14 C6         2.8814    1.4429    1.0985 C.3       1 RES1    0.0000
     15 H4         2.8191    0.4933    0.8669 H         1 RES1    0.0000
     16 H5         3.8010    1.7531    0.9613 H         1 RES1    0.0000
     17 H6         2.2745    1.9593    0.5285 H         1 RES1    0.0000
     18 N1A        2.4258    3.7938    6.7815 N.pl3     1 RES1    0.0000
     19 H1A        1.8609    3.1746    7.0563 H         1 RES1    0.0000
     20 C1A        2.7241    4.8448    7.5846 C.ar      1 RES1    0.0000
     21 C2A        2.4022    4.8778    8.9589 C.ar      1 RES1    0.0000
     22 C3A        2.6946    6.0137    9.7247 C.ar      1 RES1    0.0000
     23 C4A        3.3525    7.0428    9.0671 C.ar      1 RES1    0.0000
     24 H2A        3.5686    7.8410    9.5343 H         1 RES1    0.0000
     25 C5A        3.6935    6.9116    7.7404 C.ar      1 RES1    0.0000
     26 H3A        4.1697    7.6246    7.3310 H         1 RES1    0.0000
     27 N2A        3.3986    5.8472    6.9905 N.ar      1 RES1    0.0000
     28 N3A        1.7767    3.7286    9.5638 N.pl3     1 RES1    0.0000
     29 O1A        1.1595    2.9328    8.8458 O.2       1 RES1    0.0000
     30 O2A        1.8761    3.5613   10.7730 O.2       1 RES1    0.0000
     31 C6A        2.3115    6.2035   11.1627 C.3       1 RES1    0.0000
     32 H4A        2.3737    7.1531   11.3943 H         1 RES1    0.0000
     33 H5A        1.3918    5.8933   11.2999 H         1 RES1    0.0000
     34 H6A        2.9183    5.6871   11.7327 H         1 RES1    0.0000
@<TRIPOS>BOND
     1    1    2 1
     2    3    1 1
     3    4    3 ar
     4    5    4 ar
     5    6    5 ar
     6    7    6 1
     7    8    6 ar
     8    9    8 1
     9   10    3 ar
    10   11    4 1
    11   12   11 2
    12   13   11 2
    13   14    5 1
    14   15   14 1
    15   16   14 1
    16   17   14 1
    17   18    1 1
    18   19   18 1
    19   20   18 1
    20   21   20 ar
    21   22   21 ar
    22   23   22 ar
    23   24   23 1
    24   25   23 ar
    25   26   25 1
    26   27   20 ar
    27   28   21 1
    28   29   28 2
    29   30   28 2
    30   31   22 1
    31   32   31 1
    32   33   31 1
    33   34   31 1
    34    8   10 ar
    35   25   27 ar
@<TRIPOS>SUBSTRUCTURE
     1 RES1 1

@<TRIPOS>CRYSIN
   3.8370    6.7570   12.3480  85.7000  84.6200  88.3200   2 1

