# MOL2 file generated by ConQuest
# Please check atom types

@<TRIPOS>MOLECULE
TORKOB
    47    50     1
SMALL
NO_CHARGES
****
Generated from CSD

@<TRIPOS>ATOM
      1 O1         6.1942    1.3912    7.7553 O.3       1 RES1    0.0000
      2 O2         1.8381    0.0493   12.4853 O.2       1 RES1    0.0000
      3 O3         3.9630    3.6835   10.0068 O.2       1 RES1    0.0000
      4 N1         5.3977   -0.5454    8.6577 N.ar      1 RES1    0.0000
      5 N2         3.7517   -0.4752   10.4502 N.ar      1 RES1    0.0000
      6 N3         4.5552   -2.4248    9.6059 N.3       1 RES1    0.0000
      7 N4         2.9860    1.5981   11.2243 N.am      1 RES1    0.0000
      8 N5         4.6579    2.9153    9.2641 N.2       1 RES1    0.0000
      9 C1         4.5603   -1.1095    9.5714 C.ar      1 RES1    0.0000
     10 C2         3.7533    0.8406   10.3827 C.ar      1 RES1    0.0000
     11 C3         4.5657    1.5777    9.4425 C.ar      1 RES1    0.0000
     12 C4         5.3965    0.7545    8.6115 C.ar      1 RES1    0.0000
     13 C5         2.0924    1.2067   12.2165 C.2       1 RES1    0.0000
     14 C6         1.4624    2.3561   12.9448 C.ar      1 RES1    0.0000
     15 C7         1.6330    3.6747   12.6028 C.ar      1 RES1    0.0000
     16 C8         1.0308    4.7150   13.3396 C.ar      1 RES1    0.0000
     17 C9         1.2158    6.0819   13.0051 C.ar      1 RES1    0.0000
     18 C10        0.6613    7.0717   13.7549 C.ar      1 RES1    0.0000
     19 C11       -0.1167    6.7515   14.8852 C.ar      1 RES1    0.0000
     20 C12       -0.3324    5.4468   15.2242 C.ar      1 RES1    0.0000
     21 C13        0.2314    4.3862   14.4705 C.ar      1 RES1    0.0000
     22 C14        0.0576    3.0223   14.7984 C.ar      1 RES1    0.0000
     23 C15        0.6450    2.0380   14.0648 C.ar      1 RES1    0.0000
     24 C16        7.1345    0.5787    6.9808 C.3       1 RES1    0.0000
     25 C17        8.0357    1.5762    6.3199 C.ar      1 RES1    0.0000
     26 C18        7.6496    2.1765    5.1168 C.ar      1 RES1    0.0000
     27 C19        8.3810    3.2349    4.5961 C.ar      1 RES1    0.0000
     28 C20        9.5117    3.6806    5.2575 C.ar      1 RES1    0.0000
     29 C21        9.9326    3.0591    6.4237 C.ar      1 RES1    0.0000
     30 C22        9.1939    2.0108    6.9569 C.ar      1 RES1    0.0000
     31 H1         6.8198    1.8805    4.7036 H         1 RES1    0.0000
     32 H2         7.6246    0.0164    7.5652 H         1 RES1    0.0000
     33 H3         6.6249    0.0835    6.3453 H         1 RES1    0.0000
     34 H4        -0.8521    5.1925   15.9808 H         1 RES1    0.0000
     35 H5         0.5337    1.1510   14.2753 H         1 RES1    0.0000
     36 H6        -0.5081    2.8248   15.5220 H         1 RES1    0.0000
     37 H7        10.0005    4.5028    4.8793 H         1 RES1    0.0000
     38 H8         8.1097    3.7062    3.8385 H         1 RES1    0.0000
     39 H9         9.4712    1.6150    7.7890 H         1 RES1    0.0000
     40 H10        5.1042   -2.8686    9.0871 H         1 RES1    0.0000
     41 H11        2.2111    3.9362   11.8066 H         1 RES1    0.0000
     42 H12        3.0804    2.4854   11.0456 H         1 RES1    0.0000
     43 H13        4.0087   -2.8495   10.1615 H         1 RES1    0.0000
     44 H14        0.7889    7.9900   13.4629 H         1 RES1    0.0000
     45 H15        1.7141    6.2245   12.2654 H         1 RES1    0.0000
     46 H16       -0.4818    7.4905   15.3989 H         1 RES1    0.0000
     47 H17       10.7458    3.4038    6.9161 H         1 RES1    0.0000
@<TRIPOS>BOND
     1    1   12 1
     2    2   13 2
     3    3    8 2
     4    4    9 ar
     5    5    9 ar
     6    6    9 1
     7    7   10 1
     8    8   11 1
     9   10    5 ar
    10   11   10 ar
    11   12    4 ar
    12   13    7 1
    13   14   13 1
    14   15   14 ar
    15   16   15 ar
    16   17   16 ar
    17   18   17 ar
    18   19   18 ar
    19   20   19 ar
    20   21   16 ar
    21   22   21 ar
    22   23   14 ar
    23   24    1 1
    24   25   24 1
    25   26   25 ar
    26   27   26 ar
    27   28   27 ar
    28   29   28 ar
    29   30   25 ar
    30   31   26 1
    31   32   24 1
    32   33   24 1
    33   34   20 1
    34   35   23 1
    35   36   22 1
    36   37   28 1
    37   38   27 1
    38   39   30 1
    39   40    6 1
    40   41   15 1
    41   42    7 1
    42   43    6 1
    43   44   18 1
    44   45   17 1
    45   46   19 1
    46   47   29 1
    47   11   12 ar
    48   20   21 ar
    49   22   23 ar
    50   29   30 ar
@<TRIPOS>SUBSTRUCTURE
     1 RES1 1

@<TRIPOS>CRYSIN
  12.1394   13.6862   11.2226  90.0000  94.2960  90.0000  14 1

