# MOL2 file generated by ConQuest
# Please check atom types

@<TRIPOS>MOLECULE
TORLIW
    50    51     1
SMALL
NO_CHARGES
****
Generated from CSD

@<TRIPOS>ATOM
      1 O1        -0.8597    1.9536    0.7657 O.3       1 RES1    0.0000
      2 O2        -0.2434    2.6676    2.8021 O.2       1 RES1    0.0000
      3 O3         2.1370    3.3713    0.8067 O.3       1 RES1    0.0000
      4 O4         3.4288    1.4531    0.7843 O.3       1 RES1    0.0000
      5 N1         3.4774    1.4756    2.1975 N.am      1 RES1    0.0000
      6 C1        -2.0756    2.7711    0.8341 C.3       1 RES1    0.0000
      7 H1        -2.3511    3.0218   -0.0615 H         1 RES1    0.0000
      8 H2        -1.8968    3.5828    1.3341 H         1 RES1    0.0000
      9 C2        -3.1666    2.0004    1.4982 C.3       1 RES1    0.0000
     10 H3        -3.3803    1.2283    0.9698 H         1 RES1    0.0000
     11 H4        -3.9441    2.5557    1.5832 H         1 RES1    0.0000
     12 H5        -2.8757    1.7213    2.3704 H         1 RES1    0.0000
     13 C3         1.2479    1.2949    1.5021 C.3       1 RES1    0.0000
     14 C4         2.1445    1.1064    2.7220 C.3       1 RES1    0.0000
     15 C5         2.1373    2.0188    0.4795 C.3       1 RES1    0.0000
     16 C6         1.8496    1.7510   -0.9708 C.3       1 RES1    0.0000
     17 H6         0.9710    2.0740   -1.1886 H         1 RES1    0.0000
     18 H7         1.8920    0.8061   -1.1369 H         1 RES1    0.0000
     19 H8         2.4999    2.2001   -1.5148 H         1 RES1    0.0000
     20 C7        -0.0167    2.0613    1.7922 C.2       1 RES1    0.0000
     21 C8         5.2794    3.1252    1.9748 C.ar      1 RES1    0.0000
     22 C9         7.0967    3.1947    0.4502 C.ar      1 RES1    0.0000
     23 C10        6.4145    5.1596    1.5148 C.ar      1 RES1    0.0000
     24 C11        6.1157    2.4594    1.0841 C.ar      1 RES1    0.0000
     25 H9         6.0165    1.5485    0.9220 H         1 RES1    0.0000
     26 C12        5.4353    4.4867    2.1878 C.ar      1 RES1    0.0000
     27 H10        4.8800    4.9372    2.7835 H         1 RES1    0.0000
     28 C13        4.2216    2.4452    2.7757 C.2       1 RES1    0.0000
     29 C14        7.2741    4.5391    0.6290 C.ar      1 RES1    0.0000
     30 H11        7.9381    5.0095    0.1787 H         1 RES1    0.0000
     31 N2         7.9863    2.4976   -0.4874 N.pl3     1 RES1    0.0000
     32 N3         6.5662    6.6188    1.7316 N.pl3     1 RES1    0.0000
     33 O5         7.8711    1.3018   -0.6124 O.2       1 RES1    0.0000
     34 O6         7.5851    7.1538    1.3449 O.2       1 RES1    0.0000
     35 O7         8.7822    3.1578   -1.1193 O.2       1 RES1    0.0000
     36 O8         5.6559    7.1898    2.2835 O.2       1 RES1    0.0000
     37 O9         4.0804    2.7254    3.9624 O.2       1 RES1    0.0000
     38 C15        2.9776   -0.3953    4.5494 C.3       1 RES1    0.0000
     39 H12        3.9051   -0.3301    4.3120 H         1 RES1    0.0000
     40 H13        2.8183   -1.2325    4.9928 H         1 RES1    0.0000
     41 H14        2.7452    0.3273    5.1363 H         1 RES1    0.0000
     42 H15        1.9186    1.7425    3.4281 H         1 RES1    0.0000
     43 H16        1.0314    0.5242    0.9962 H         1 RES1    0.0000
     44 H17        2.6276    3.7118    0.1367 H         1 RES1    0.0000
     45 C16        2.1357   -0.3202    3.3051 C.3       1 RES1    0.0000
     46 H18        2.4578   -0.9619    2.6380 H         1 RES1    0.0000
     47 C17        0.7225   -0.6828    3.7426 C.3       1 RES1    0.0000
     48 H19        0.7570   -1.4224    4.3521 H         1 RES1    0.0000
     49 H20        0.2020   -0.9251    2.9730 H         1 RES1    0.0000
     50 H21        0.3199    0.0723    4.1772 H         1 RES1    0.0000
@<TRIPOS>BOND
     1    1    6 1
     2    2   20 2
     3    3   15 1
     4    4    5 1
     5    5   14 1
     6    6    7 1
     7    8    6 1
     8    9    6 1
     9   10    9 1
    10   11    9 1
    11   12    9 1
    12   13   14 1
    13   14   42 1
    14   15    4 1
    15   16   15 1
    16   17   16 1
    17   18   16 1
    18   19   16 1
    19   20    1 1
    20   21   24 ar
    21   22   24 ar
    22   23   26 ar
    23   24   25 1
    24   26   21 ar
    25   27   26 1
    26   28    5 1
    27   29   22 ar
    28   30   29 1
    29   31   22 1
    30   32   23 1
    31   33   31 2
    32   34   32 2
    33   35   31 2
    34   36   32 2
    35   37   28 2
    36   38   39 1
    37   40   38 1
    38   41   38 1
    39   43   13 1
    40   44    3 1
    41   45   14 1
    42   46   45 1
    43   47   45 1
    44   48   47 1
    45   49   47 1
    46   50   47 1
    47   13   15 1
    48   13   20 1
    49   21   28 1
    50   23   29 ar
    51   38   45 1
@<TRIPOS>SUBSTRUCTURE
     1 RES1 1

@<TRIPOS>CRYSIN
  13.9790   14.1670    9.7668  90.0000  90.1750  90.0000  14 1

