# MOL2 file generated by ConQuest
# Please check atom types

@<TRIPOS>MOLECULE
TORQEY
    41    45     1
SMALL
NO_CHARGES
****
Generated from CSD

@<TRIPOS>ATOM
      1 C1        -0.4816   12.4773   12.4545 C.3       1 RES1    0.0000
      2 C2        -0.6570   12.8174   13.9389 C.3       1 RES1    0.0000
      3 H1         0.1749   13.2308   14.2792 H         1 RES1    0.0000
      4 H2        -1.3877   13.4778   14.0379 H         1 RES1    0.0000
      5 C3        -0.9815   11.5782   14.7758 C.3       1 RES1    0.0000
      6 H3        -0.1923   10.9805   14.7725 H         1 RES1    0.0000
      7 H4        -1.1385   11.8622   15.7116 H         1 RES1    0.0000
      8 C4        -2.1812   10.7923   14.3043 C.2       1 RES1    0.0000
      9 C5        -0.5957   13.7219   11.5428 C.3       1 RES1    0.0000
     10 H5        -1.3162   14.3052   11.8909 H         1 RES1    0.0000
     11 H6         0.2525   14.2302   11.5912 H         1 RES1    0.0000
     12 C6        -0.8895   13.4009   10.0854 C.2       1 RES1    0.0000
     13 C7        -1.0384   11.9109    9.7257 C.3       1 RES1    0.0000
     14 H7        -1.4778   11.8229    8.8325 H         1 RES1    0.0000
     15 C8         0.9941   10.4001    7.6435 C.3       1 RES1    0.0000
     16 H8         1.3888   10.6285    6.7761 H         1 RES1    0.0000
     17 H9         0.1102   10.0007    7.5046 H         1 RES1    0.0000
     18 H10        1.5729    9.7595    8.1071 H         1 RES1    0.0000
     19 C9         1.2678   11.7370   10.6798 C.3       1 RES1    0.0000
     20 H11        1.4857   12.6677   10.4216 H         1 RES1    0.0000
     21 H12        2.0986   11.2055   10.5953 H         1 RES1    0.0000
     22 C10        0.8467   11.7362   12.1514 C.3       1 RES1    0.0000
     23 H13        1.5688   12.1541   12.6855 H         1 RES1    0.0000
     24 H14        0.7588   10.7970   12.4534 H         1 RES1    0.0000
     25 N1         0.2790   11.2074    9.7104 N.3       1 RES1    0.0000
     26 O1        -2.8843   10.1086   15.0191 O.2       1 RES1    0.0000
     27 O2        -1.0072   14.2691    9.2479 O.2       1 RES1    0.0000
     28 O3         0.8661   11.5704    8.4257 O.3       1 RES1    0.0000
     29 C11       -3.6361    9.5759    9.8021 C.ar      1 RES1    0.0000
     30 H15       -3.4544    9.7226    8.8817 H         1 RES1    0.0000
     31 C12       -4.5696    8.6284   10.1997 C.ar      1 RES1    0.0000
     32 H16       -5.0181    8.1093    9.5425 H         1 RES1    0.0000
     33 C13       -4.8582    8.4276   11.5400 C.ar      1 RES1    0.0000
     34 H17       -5.5062    7.7746   11.7787 H         1 RES1    0.0000
     35 C14       -4.2328    9.1487   12.5425 C.ar      1 RES1    0.0000
     36 H18       -4.4499    9.0187   13.4585 H         1 RES1    0.0000
     37 C15       -3.2766   10.0684   12.1485 C.ar      1 RES1    0.0000
     38 C16       -2.9695   10.3085   10.7851 C.ar      1 RES1    0.0000
     39 C17       -1.9036   11.2819   10.7782 C.2       1 RES1    0.0000
     40 C18       -1.5976   11.5769   12.0496 C.2       1 RES1    0.0000
     41 N2        -2.4096   10.8634   12.9314 N.am      1 RES1    0.0000
@<TRIPOS>BOND
     1    1    2 1
     2    2    3 1
     3    4    2 1
     4    5    2 1
     5    6    5 1
     6    7    5 1
     7    8    5 1
     8    9    1 1
     9   10    9 1
    10   11    9 1
    11   12    9 1
    12   13   12 1
    13   14   13 1
    14   15   16 1
    15   17   15 1
    16   18   15 1
    17   19   20 1
    18   21   19 1
    19   22    1 1
    20   23   22 1
    21   24   22 1
    22   25   13 1
    23   26    8 2
    24   27   12 2
    25   28   15 1
    26   29   30 1
    27   31   29 ar
    28   32   31 1
    29   33   31 ar
    30   34   33 1
    31   35   33 ar
    32   36   35 1
    33   37   35 ar
    34   38   29 ar
    35   39   13 1
    36   40    1 1
    37   41    8 1
    38   19   22 1
    39   19   25 1
    40   25   28 1
    41   37   38 ar
    42   37   41 1
    43   38   39 1
    44   39   40 2
    45   40   41 1
@<TRIPOS>SUBSTRUCTURE
     1 RES1 1

@<TRIPOS>CRYSIN
   8.2569   11.5402   15.7270  90.0000 102.2510  90.0000 231 1

