# MOL2 file generated by ConQuest
# Please check atom types

@<TRIPOS>MOLECULE
TORQAU
   197   211     5
SMALL
NO_CHARGES
****
Generated from CSD

@<TRIPOS>ATOM
      1 C1        11.5381    8.2354    8.7904 C.ar      1 RES1    0.0000
      2 H1        12.2231    8.2188    8.1621 H         1 RES1    0.0000
      3 C2        10.2206    8.2837    8.3896 C.ar      1 RES1    0.0000
      4 H2        10.0224    8.3264    7.4821 H         1 RES1    0.0000
      5 C3         9.2129    8.2686    9.2868 C.ar      1 RES1    0.0000
      6 H3         8.3318    8.2600    8.9894 H         1 RES1    0.0000
      7 C4         9.4834    8.2647   10.6648 C.ar      1 RES1    0.0000
      8 C5        10.8147    8.2200   11.0500 C.ar      1 RES1    0.0000
      9 C6        11.8293    8.2142   10.1477 C.ar      1 RES1    0.0000
     10 H4        12.7125    8.1952   10.4373 H         1 RES1    0.0000
     11 C7         8.6265    8.3597   11.8670 C.2       1 RES1    0.0000
     12 C8        11.9925    8.2390   13.2424 C.2       1 RES1    0.0000
     13 C9        11.6856    8.2077   14.7213 C.3       1 RES1    0.0000
     14 H5        12.4616    8.5085   15.2203 H         1 RES1    0.0000
     15 H6        11.4895    7.2965   14.9902 H         1 RES1    0.0000
     16 C10       10.5017    9.0955   15.0419 C.3       1 RES1    0.0000
     17 H7        10.6734    9.9938   14.7161 H         1 RES1    0.0000
     18 H8        10.3836    9.1420   16.0036 H         1 RES1    0.0000
     19 C11        9.2291    8.5560   14.3981 C.3       1 RES1    0.0000
     20 C12        9.5464    7.9473   13.0071 C.3       1 RES1    0.0000
     21 C13        7.4574    8.8932   12.0325 C.2       1 RES1    0.0000
     22 C14        7.0035    9.3667   13.3898 C.3       1 RES1    0.0000
     23 H9         6.4909   10.1928   13.2683 H         1 RES1    0.0000
     24 C15        8.2132    9.6836   14.2637 C.3       1 RES1    0.0000
     25 H10        8.6619   10.4607   13.8939 H         1 RES1    0.0000
     26 H11        7.8983    9.9223   15.1504 H         1 RES1    0.0000
     27 C16        8.6739    7.3580   15.2280 C.3       1 RES1    0.0000
     28 H12        9.3224    7.0694   15.8899 H         1 RES1    0.0000
     29 H13        7.8544    7.6085   15.6830 H         1 RES1    0.0000
     30 C17        8.4110    6.2560   14.2197 C.3       1 RES1    0.0000
     31 H14        8.4607    5.3764   14.6256 H         1 RES1    0.0000
     32 H15        7.5531    6.3645   13.7828 H         1 RES1    0.0000
     33 C18       10.4696    4.8802   11.9704 C.3       1 RES1    0.0000
     34 H16       10.3819    4.3783   11.1586 H         1 RES1    0.0000
     35 H17       10.5116    4.2782   12.7176 H         1 RES1    0.0000
     36 H18       11.2720    5.4057   11.9368 H         1 RES1    0.0000
     37 C19        5.2618   10.8284    9.8013 C.3       1 RES1    0.0000
     38 H19        5.0060   11.7458    9.9098 H         1 RES1    0.0000
     39 H20        4.4756   10.2780    9.7780 H         1 RES1    0.0000
     40 H21        5.7483   10.7273    8.9817 H         1 RES1    0.0000
     41 C20        6.5345    9.1652   10.8742 C.2       1 RES1    0.0000
     42 N1        10.8717    8.2269   12.4590 N.am      1 RES1    0.0000
     43 N2         9.5045    6.4922   13.3200 N.3       1 RES1    0.0000
     44 O1         9.3537    5.7351   12.1185 O.3       1 RES1    0.0000
     45 O2        13.1019    8.3310   12.7520 O.2       1 RES1    0.0000
     46 O3         6.1017   10.4246   10.9156 O.3       1 RES1    0.0000
     47 O4         6.2572    8.3894   10.0169 O.2       1 RES1    0.0000
     48 O5         6.1814    8.4366   14.0798 O.3       1 RES1    0.0000
     49 H22        5.4548    8.3822   13.7026 H         1 RES1    0.0000
     50 C21        6.0012    0.8503    8.1207 C.ar      2 RES2    0.0000
     51 C22        6.3211   -0.4465    7.7278 C.ar      2 RES2    0.0000
     52 H23        7.2074   -0.7091    7.6373 H         2 RES2    0.0000
     53 C23        5.2920   -1.3297    7.4796 C.ar      2 RES2    0.0000
     54 H24        5.4824   -2.2061    7.2340 H         2 RES2    0.0000
     55 C24        4.0074   -0.9230    7.5907 C.ar      2 RES2    0.0000
     56 H25        3.3341   -1.5363    7.4020 H         2 RES2    0.0000
     57 C25        4.6711    1.2181    8.2216 C.ar      2 RES2    0.0000
     58 C26        3.6439    0.3406    7.9656 C.ar      2 RES2    0.0000
     59 H26        2.7516    0.5924    8.0432 H         2 RES2    0.0000
     60 C27        6.8635    2.0618    8.3250 C.2       2 RES2    0.0000
     61 C28        3.4629    3.3401    8.7645 C.2       2 RES2    0.0000
     62 C29        3.7358    4.7494    9.1549 C.3       2 RES2    0.0000
     63 H27        3.9021    4.7894   10.1089 H         2 RES2    0.0000
     64 H28        2.9514    5.2886    8.9662 H         2 RES2    0.0000
     65 C30        4.9267    5.3299    8.4181 C.3       2 RES2    0.0000
     66 H29        5.0210    6.2679    8.6508 H         2 RES2    0.0000
     67 H30        4.7712    5.2741    7.4615 H         2 RES2    0.0000
     68 C31        6.2233    4.5876    8.7645 C.3       2 RES2    0.0000
     69 C32        5.9240    3.0741    8.9894 C.3       2 RES2    0.0000
     70 C33        7.1926    4.7558    7.6011 C.3       2 RES2    0.0000
     71 H31        6.7178    4.5719    6.7763 H         2 RES2    0.0000
     72 H32        7.4800    5.6823    7.5726 H         2 RES2    0.0000
     73 C34        8.0382    2.3930    7.8079 C.2       2 RES2    0.0000
     74 C35        8.4261    3.8704    7.6554 C.3       2 RES2    0.0000
     75 H33        8.8927    3.9654    6.7996 H         2 RES2    0.0000
     76 C36        8.9121    1.3927    7.2029 C.2       2 RES2    0.0000
     77 C37        7.0910    3.8169   10.9000 C.3       2 RES2    0.0000
     78 H34        7.9319    3.4125   10.6363 H         2 RES2    0.0000
     79 H35        7.0919    3.9812   11.8566 H         2 RES2    0.0000
     80 C38        6.7875    5.0785   10.1012 C.3       2 RES2    0.0000
     81 H36        7.5946    5.5969    9.9615 H         2 RES2    0.0000
     82 H37        6.1381    5.6288   10.5665 H         2 RES2    0.0000
     83 C39       10.2074    0.8565    5.3104 C.3       2 RES2    0.0000
     84 H38       10.4465    1.2215    4.4546 H         2 RES2    0.0000
     85 H39        9.7644    0.0137    5.1863 H         2 RES2    0.0000
     86 H40       10.9996    0.7264    5.8352 H         2 RES2    0.0000
     87 C40        5.0286    1.3476   11.7972 C.3       2 RES2    0.0000
     88 H41        5.1173    0.4473   12.1152 H         2 RES2    0.0000
     89 H42        4.2039    1.4383   11.3137 H         2 RES2    0.0000
     90 H43        5.0291    1.9517   12.5418 H         2 RES2    0.0000
     91 N3         4.5925    2.5959    8.5887 N.am      2 RES2    0.0000
     92 N4         5.9355    3.0122   10.4786 N.3       2 RES2    0.0000
     93 O6         9.2323    0.3602    7.7205 O.2       2 RES2    0.0000
     94 O7         9.3130    1.7788    6.0007 O.3       2 RES2    0.0000
     95 O8         9.3095    4.3055    8.6688 O.3       2 RES2    0.0000
     96 H44       10.0059    3.8736    8.6249 H         2 RES2    0.0000
     97 O9         2.3730    2.8869    8.5344 O.2       2 RES2    0.0000
     98 O10        6.1361    1.6610   10.9225 O.3       2 RES2    0.0000
     99 C41        4.8644   10.3360    4.7623 C.ar      3 RES3    0.0000
    100 C42        4.5369    9.5459    5.8223 C.ar      3 RES3    0.0000
    101 H45        3.6480    9.3819    6.0395 H         3 RES3    0.0000
    102 C43        5.5600    8.9982    6.5695 C.ar      3 RES3    0.0000
    103 H46        5.3539    8.4427    7.2857 H         3 RES3    0.0000
    104 C44        6.8713    9.2527    6.2748 C.ar      3 RES3    0.0000
    105 H47        7.5413    8.8878    6.8074 H         3 RES3    0.0000
    106 C45        7.2190   10.0694    5.1708 C.ar      3 RES3    0.0000
    107 C46        6.1760   10.6089    4.4029 C.ar      3 RES3    0.0000
    108 C47        7.3985   11.8878    2.7095 C.2       3 RES3    0.0000
    109 C48        7.1243   12.7064    1.4995 C.3       3 RES3    0.0000
    110 H48        6.9460   12.1247    0.7420 H         3 RES3    0.0000
    111 H49        7.8992   13.2503    1.2875 H         3 RES3    0.0000
    112 C49        5.9165   13.6019    1.7607 C.3       3 RES3    0.0000
    113 H50        5.8196   14.2304    1.0290 H         3 RES3    0.0000
    114 H51        6.0655   14.1114    2.5725 H         3 RES3    0.0000
    115 C50        4.6280   12.7870    1.9029 C.3       3 RES3    0.0000
    116 C51        4.9350   11.4863    2.6785 C.3       3 RES3    0.0000
    117 C52        3.6084   13.6142    2.6526 C.3       3 RES3    0.0000
    118 H52        4.0430   14.0151    3.4231 H         3 RES3    0.0000
    119 H53        3.3137   14.3376    2.0761 H         3 RES3    0.0000
    120 C53        2.8465   11.6682    3.9919 C.2       3 RES3    0.0000
    121 C54        2.3903   12.8539    3.1309 C.3       3 RES3    0.0000
    122 H54        1.8650   13.4544    3.6997 H         3 RES3    0.0000
    123 C55        1.9780   11.2649    5.1320 C.2       3 RES3    0.0000
    124 C56        0.7699   12.1057    6.9470 C.3       3 RES3    0.0000
    125 H55        0.5836   12.9359    7.3917 H         3 RES3    0.0000
    126 H56        1.1899   11.5007    7.5623 H         3 RES3    0.0000
    127 H57       -0.0512   11.7208    6.6290 H         3 RES3    0.0000
    128 C57        4.1258   12.3148    0.5326 C.3       3 RES3    0.0000
    129 H58        3.3187   12.7894    0.2792 H         3 RES3    0.0000
    130 H59        4.8001   12.4594   -0.1500 H         3 RES3    0.0000
    131 C58        4.0389   11.1289    3.8393 C.2       3 RES3    0.0000
    132 C59        5.7767    8.3278    1.6443 C.3       3 RES3    0.0000
    133 H60        5.6574    7.4401    1.9882 H         3 RES3    0.0000
    134 H61        6.6199    8.6758    1.9416 H         3 RES3    0.0000
    135 H62        5.7609    8.3046    0.6851 H         3 RES3    0.0000
    136 C60        3.8437   10.8274    0.7058 C.3       3 RES3    0.0000
    137 H63        2.9812   10.6678    1.1195 H         3 RES3    0.0000
    138 H64        3.8941   10.3479   -0.1370 H         3 RES3    0.0000
    139 N5         6.2843   11.4292    3.2835 N.am      3 RES3    0.0000
    140 N6         4.9425   10.4824    1.5926 N.3       3 RES3    0.0000
    141 O11        4.7286    9.1614    2.1146 O.3       3 RES3    0.0000
    142 O12        1.6376   12.3408    5.8456 O.3       3 RES3    0.0000
    143 O13        1.5629   10.1774    5.3717 O.2       3 RES3    0.0000
    144 O14        1.5792   12.4632    2.0541 O.3       3 RES3    0.0000
    145 H65        0.8545   12.2042    2.3372 H         3 RES3    0.0000
    146 O15        8.4977   11.6664    3.1775 O.2       3 RES3    0.0000
    147 C61       -0.1164    3.3638    2.5363 C.ar      4 RES4    0.0000
    148 C62        1.1985    2.9805    2.4277 C.ar      4 RES4    0.0000
    149 C63        1.4976    1.7415    1.8873 C.ar      4 RES4    0.0000
    150 H66        2.3818    1.4735    1.7813 H         4 RES4    0.0000
    151 C64        0.4582    0.9111    1.5073 C.ar      4 RES4    0.0000
    152 H67        0.6505    0.0695    1.1608 H         4 RES4    0.0000
    153 C65       -0.8589    1.3098    1.6288 C.ar      4 RES4    0.0000
    154 H68       -1.5410    0.7349    1.3651 H         4 RES4    0.0000
    155 C66       -1.1696    2.5499    2.1381 C.ar      4 RES4    0.0000
    156 H69       -2.0521    2.8328    2.2131 H         4 RES4    0.0000
    157 C67        2.0394    4.0676    3.0120 C.2       4 RES4    0.0000
    158 C68        3.2150    4.0200    3.6428 C.2       4 RES4    0.0000
    159 C69        3.6169    5.1066    4.6020 C.3       4 RES4    0.0000
    160 H70        4.0724    4.6859    5.3621 H         4 RES4    0.0000
    161 C70        4.1048    2.8647    3.5239 C.2       4 RES4    0.0000
    162 C71        2.3959    5.8186    5.1346 C.3       4 RES4    0.0000
    163 H71        2.6982    6.5587    5.6827 H         4 RES4    0.0000
    164 H72        1.9232    5.2036    5.7163 H         4 RES4    0.0000
    165 C72        1.3964    6.3662    4.1237 C.3       4 RES4    0.0000
    166 C73        1.1307    5.2823    3.0378 C.3       4 RES4    0.0000
    167 C74       -1.3223    5.3610    3.3739 C.2       4 RES4    0.0000
    168 C75       -1.0711    6.7453    3.8807 C.3       4 RES4    0.0000
    169 H73       -1.8548    7.0608    4.3538 H         4 RES4    0.0000
    170 H74       -0.9159    7.3385    3.1283 H         4 RES4    0.0000
    171 C76        0.1313    6.7833    4.8088 C.3       4 RES4    0.0000
    172 H75        0.2378    7.6831    5.1527 H         4 RES4    0.0000
    173 H76       -0.0313    6.1932    5.5612 H         4 RES4    0.0000
    174 C77        2.3275    6.9926    1.9365 C.3       4 RES4    0.0000
    175 H77        2.3363    7.6775    1.2487 H         4 RES4    0.0000
    176 H78        3.1731    6.5168    1.9339 H         4 RES4    0.0000
    177 C78        2.0009    7.5653    3.3041 C.3       4 RES4    0.0000
    178 H79        1.3582    8.2886    3.2292 H         4 RES4    0.0000
    179 H80        2.8025    7.9050    3.7359 H         4 RES4    0.0000
    180 C79        0.3214    5.4177   -0.2353 C.3       4 RES4    0.0000
    181 H81        0.4465    4.8521   -1.0005 H         4 RES4    0.0000
    182 H82        0.2847    6.3347   -0.5171 H         4 RES4    0.0000
    183 H83       -0.4994    5.1846    0.2042 H         4 RES4    0.0000
    184 C80        5.6706    1.5442    4.7054 C.3       4 RES4    0.0000
    185 H84        6.0258    1.4375    5.5922 H         4 RES4    0.0000
    186 H85        6.3827    1.7590    4.0979 H         4 RES4    0.0000
    187 H86        5.2516    0.7262    4.4288 H         4 RES4    0.0000
    188 N7        -0.2092    4.6616    3.0947 N.am      4 RES4    0.0000
    189 N8         1.1839    6.0856    1.7969 N.3       4 RES4    0.0000
    190 O16        1.4024    5.2431    0.6632 O.3       4 RES4    0.0000
    191 O17        4.4983    6.0721    4.0462 O.3       4 RES4    0.0000
    192 H87        5.1630    5.6954    3.7488 H         4 RES4    0.0000
    193 O18        4.6919    2.6130    4.7028 O.3       4 RES4    0.0000
    194 O19        4.3354    2.2125    2.5647 O.2       4 RES4    0.0000
    195 O20       -2.4440    4.8951    3.2550 O.2       4 RES4    0.0000
    196 H88        7.7552   10.8067    5.5043 Du        5 SUP5    0.0000
    197 H89        7.7845    9.5467    4.5813 Du        5 SUP5    0.0000
@<TRIPOS>BOND
     1    1    2 1
     2    3    1 ar
     3    4    3 1
     4    5    3 ar
     5    6    5 1
     6    7    5 ar
     7    8    7 ar
     8    9    1 ar
     9   10    9 1
    10   11    7 1
    11   12   13 1
    12   13   14 1
    13   15   13 1
    14   16   13 1
    15   17   16 1
    16   18   16 1
    17   19   16 1
    18   20   11 1
    19   21   11 2
    20   22   21 1
    21   23   22 1
    22   24   19 1
    23   25   24 1
    24   26   24 1
    25   27   19 1
    26   28   27 1
    27   29   27 1
    28   30   27 1
    29   31   30 1
    30   32   30 1
    31   33   34 1
    32   35   33 1
    33   36   33 1
    34   37   38 1
    35   39   37 1
    36   40   37 1
    37   41   21 1
    38   42    8 1
    39   43   20 1
    40   44   33 1
    41   45   12 2
    42   46   37 1
    43   47   41 2
    44   48   22 1
    45   49   48 1
    46   50   51 ar
    47   51   52 1
    48   53   51 ar
    49   54   53 1
    50   55   53 ar
    51   56   55 1
    52   57   50 ar
    53   58   55 ar
    54   59   58 1
    55   60   50 1
    56   61   62 1
    57   62   63 1
    58   64   62 1
    59   65   62 1
    60   66   65 1
    61   67   65 1
    62   68   65 1
    63   69   60 1
    64   70   68 1
    65   71   70 1
    66   72   70 1
    67   73   60 2
    68   74   70 1
    69   75   74 1
    70   76   73 1
    71   77   78 1
    72   79   77 1
    73   80   68 1
    74   81   80 1
    75   82   80 1
    76   83   84 1
    77   85   83 1
    78   86   83 1
    79   87   88 1
    80   89   87 1
    81   90   87 1
    82   91   57 1
    83   92   69 1
    84   93   76 2
    85   94   76 1
    86   95   74 1
    87   96   95 1
    88   97   61 2
    89   98   87 1
    90   99  100 ar
    91  100  101 1
    92  102  100 ar
    93  103  102 1
    94  104  102 ar
    95  105  104 1
    96  106  104 ar
    97  107   99 ar
    98  108  109 1
    99  109  110 1
   100  111  109 1
   101  112  109 1
   102  113  112 1
   103  114  112 1
   104  115  112 1
   105  116  115 1
   106  117  115 1
   107  118  117 1
   108  119  117 1
   109  120  121 1
   110  121  117 1
   111  122  121 1
   112  123  120 1
   113  124  125 1
   114  126  124 1
   115  127  124 1
   116  128  115 1
   117  129  128 1
   118  130  128 1
   119  131   99 1
   120  132  133 1
   121  134  132 1
   122  135  132 1
   123  136  128 1
   124  137  136 1
   125  138  136 1
   126  139  107 1
   127  140  116 1
   128  141  132 1
   129  142  123 1
   130  143  123 2
   131  144  121 1
   132  145  144 1
   133  146  108 2
   134  147  148 ar
   135  148  149 ar
   136  149  150 1
   137  151  149 ar
   138  152  151 1
   139  153  151 ar
   140  154  153 1
   141  155  147 ar
   142  156  155 1
   143  157  148 1
   144  158  157 2
   145  159  158 1
   146  160  159 1
   147  161  158 1
   148  162  159 1
   149  163  162 1
   150  164  162 1
   151  165  162 1
   152  166  157 1
   153  167  168 1
   154  168  169 1
   155  170  168 1
   156  171  165 1
   157  172  171 1
   158  173  171 1
   159  174  175 1
   160  176  174 1
   161  177  165 1
   162  178  177 1
   163  179  177 1
   164  180  181 1
   165  182  180 1
   166  183  180 1
   167  184  185 1
   168  186  184 1
   169  187  184 1
   170  188  147 1
   171  189  166 1
   172  190  180 1
   173  191  159 1
   174  192  191 1
   175  193  161 1
   176  194  161 2
   177  195  167 2
   178    8    9 ar
   179   12   42 1
   180   19   20 1
   181   20   42 1
   182   22   24 1
   183   30   43 1
   184   41   46 1
   185   43   44 1
   186   57   58 ar
   187   61   91 1
   188   68   69 1
   189   69   91 1
   190   73   74 1
   191   77   80 1
   192   77   92 1
   193   83   94 1
   194   92   98 1
   195  106  107 ar
   196  108  139 1
   197  116  131 1
   198  116  139 1
   199  120  131 2
   200  124  142 1
   201  136  140 1
   202  140  141 1
   203  153  155 ar
   204  165  166 1
   205  166  188 1
   206  167  188 1
   207  168  171 1
   208  174  177 1
   209  174  189 1
   210  184  193 1
   211  189  190 1
@<TRIPOS>SUBSTRUCTURE
     1 RES1 1
     2 RES2 50
     3 RES3 99
     4 RES4 147
     5 SUP5 196

@<TRIPOS>CRYSIN
   9.2720   15.0870   26.6690  75.8280  88.8360  88.8850   2 1

