# MOL2 file generated by ConQuest
# Please check atom types

@<TRIPOS>MOLECULE
TORTOJ
    36    36     2
SMALL
NO_CHARGES
****
Generated from CSD

@<TRIPOS>ATOM
      1 O1         7.4097    3.5138   10.9351 O.2       1 RES1    0.0000
      2 O2         5.7593    3.8865    9.6097 O.2       1 RES1    0.0000
      3 N1         6.4996    3.1167   10.2184 N.pl3     1 RES1    0.0000
      4 N2         5.3671   -0.1289    9.3846 N.3       1 RES1    0.0000
      5 C1         5.2628    1.2053    9.3449 C.2       1 RES1    0.0000
      6 C2         6.2858    1.7221   10.0725 C.2       1 RES1    0.0000
      7 C3         7.0791    0.6538   10.5876 C.2       1 RES1    0.0000
      8 C4         6.4683   -0.4958   10.1409 C.2       1 RES1    0.0000
      9 C5         4.3984   -1.0370    8.7686 C.3       1 RES1    0.0000
     10 C6         6.7423   -1.9195   10.4543 C.2       1 RES1    0.0000
     11 C7         7.1384   -2.7880    9.5484 C.3       1 RES1    0.0000
     12 C8         7.3955   -4.2337    9.8456 C.3       1 RES1    0.0000
     13 C9         7.5844   -4.5252   11.2485 C.3       1 RES1    0.0000
     14 C10        6.3040   -3.8378   11.9815 C.3       1 RES1    0.0000
     15 C11        6.5174   -2.3294   11.8698 C.2       1 RES1    0.0000
     16 C12        8.2792    0.7432   11.4178 C.2       1 RES1    0.0000
     17 C13        9.2896   -0.1057   11.4556 C.2       1 RES1    0.0000
     18 C14       10.4180    0.0302   12.3326 C.2       1 RES1    0.0000
     19 C15       11.4478   -0.8001   12.4047 C.2       1 RES1    0.0000
     20 C16       12.5903   -0.7443   13.3177 C.ar      1 RES1    0.0000
     21 C17       12.6878    0.1742   14.3425 C.ar      1 RES1    0.0000
     22 C18       13.7644    0.1800   15.1961 C.ar      1 RES1    0.0000
     23 C19       14.7686   -0.7153   15.0502 C.ar      1 RES1    0.0000
     24 C20       14.6996   -1.6164   14.0561 C.ar      1 RES1    0.0000
     25 C21       13.6219   -1.6385   13.1917 C.ar      1 RES1    0.0000
     26 H1         4.5769    1.7186    8.8785 H         1 RES1    0.0000
     27 H2         3.5153   -0.8941    9.1666 H         1 RES1    0.0000
     28 H3         4.3502   -0.8709    7.8160 H         1 RES1    0.0000
     29 H4         4.6804   -1.9508    8.9325 H         1 RES1    0.0000
     30 H5         7.2667   -2.4734    8.6444 H         1 RES1    0.0000
     31 H6         8.2190   -4.5055    9.4008 H         1 RES1    0.0000
     32 H7         6.6529   -4.7493    9.5088 H         1 RES1    0.0000
     33 H8         8.4035   -4.1339   11.5799 H         1 RES1    0.0000
     34 H9         7.5966   -5.4809   11.4178 H         1 RES1    0.0000
     35 C22        6.9426   -4.6111   11.2485 Du        2 SUP2    0.0000
     36 C23        7.2357   -3.6531   12.2300 Du        2 SUP2    0.0000
@<TRIPOS>BOND
     1    1    3 2
     2    2    3 2
     3    3    6 1
     4    4    5 1
     5    5    6 2
     6    6    7 1
     7    7    8 2
     8    8    4 1
     9    9    4 1
    10   10    8 1
    11   11   10 1
    12   12   11 1
    13   13   12 1
    14   14   13 1
    15   15   10 2
    16   16    7 1
    17   17   16 2
    18   18   17 1
    19   19   18 2
    20   20   19 1
    21   21   20 ar
    22   22   21 ar
    23   23   22 ar
    24   24   23 ar
    25   25   20 ar
    26   26    5 1
    27   27    9 1
    28   28    9 1
    29   29    9 1
    30   30   11 1
    31   31   12 1
    32   32   12 1
    33   33   13 1
    34   34   13 1
    35   14   15 1
    36   24   25 ar
@<TRIPOS>SUBSTRUCTURE
     1 RES1 1
     2 SUP2 35

@<TRIPOS>CRYSIN
  17.7300   11.6120   18.0350  90.0000  93.0700  90.0000  15 1

