# MOL2 file generated by ConQuest
# Please check atom types

@<TRIPOS>MOLECULE
TOSCAF
    66    70     1
SMALL
NO_CHARGES
****
Generated from CSD

@<TRIPOS>ATOM
      1 C1         0.4568    3.4331    5.1056 C.3       1 RES1    0.0000
      2 C2         0.0607    3.7003    3.6710 C.3       1 RES1    0.0000
      3 C3        -0.1255    2.3776    2.9333 C.3       1 RES1    0.0000
      4 C4        -0.9351    1.3894    3.7258 C.3       1 RES1    0.0000
      5 C5        -0.4473    1.2861    5.1767 C.3       1 RES1    0.0000
      6 C6        -1.1459    0.1535    5.9121 C.3       1 RES1    0.0000
      7 C7        -0.9161    0.1497    7.4155 C.3       1 RES1    0.0000
      8 C8        -1.2555    1.5062    8.0238 C.3       1 RES1    0.0000
      9 C9        -0.3895    2.6014    7.3700 C.3       1 RES1    0.0000
     10 C10       -0.6164    2.6523    5.8608 C.3       1 RES1    0.0000
     11 C11       -0.5724    3.9900    8.0343 C.3       1 RES1    0.0000
     12 C12       -0.4004    3.9399    9.5284 C.3       1 RES1    0.0000
     13 C13       -1.3468    2.8836   10.1647 C.3       1 RES1    0.0000
     14 C14       -1.0471    1.5294    9.5377 C.3       1 RES1    0.0000
     15 C15       -1.8123    0.5585   10.4304 C.3       1 RES1    0.0000
     16 C16       -1.7481    1.1648   11.8359 C.3       1 RES1    0.0000
     17 C17       -1.0806    2.5460   11.6261 C.3       1 RES1    0.0000
     18 C18       -2.8061    3.3148    9.9957 C.3       1 RES1    0.0000
     19 O1        -0.8712    2.6171    1.6898 O.3       1 RES1    0.0000
     20 C19       -0.3054    2.3828    0.5373 C.2       1 RES1    0.0000
     21 O2         0.8144    2.0220    0.4953 O.2       1 RES1    0.0000
     22 C20       -1.1932    2.5026   -0.6223 C.3       1 RES1    0.0000
     23 O3         1.5982    2.5280    5.1744 O.3       1 RES1    0.0000
     24 N1         1.0400    1.1828    5.2140 N.am      1 RES1    0.0000
     25 C21        1.8224    0.2193    4.7222 C.2       1 RES1    0.0000
     26 O4         1.3685   -0.8819    4.5055 O.2       1 RES1    0.0000
     27 C22        3.2838    0.5517    4.5486 C.3       1 RES1    0.0000
     28 O5        -1.6086    3.5716   12.5013 O.3       1 RES1    0.0000
     29 C23       -1.2878    3.4817   13.7949 C.2       1 RES1    0.0000
     30 O6        -0.6020    2.6261   14.2447 O.2       1 RES1    0.0000
     31 C24       -1.9244    4.5882   14.5781 C.3       1 RES1    0.0000
     32 H1         0.6465    4.4093    5.5264 H         1 RES1    0.0000
     33 H2        -0.8638    4.2565    3.6524 H         1 RES1    0.0000
     34 H3         0.8367    4.2753    3.1862 H         1 RES1    0.0000
     35 H4        -0.7846   -0.7838    5.5147 H         1 RES1    0.0000
     36 H5        -2.2070    0.2358    5.7291 H         1 RES1    0.0000
     37 H6        -1.5454   -0.6041    7.8642 H         1 RES1    0.0000
     38 H7         0.1188   -0.0786    7.6183 H         1 RES1    0.0000
     39 H8        -1.5638    4.3524    7.8094 H         1 RES1    0.0000
     40 H9         0.1612    4.6698    7.6241 H         1 RES1    0.0000
     41 H10        0.6212    3.6756    9.7568 H         1 RES1    0.0000
     42 H11       -0.6245    4.9101    9.9467 H         1 RES1    0.0000
     43 H12       -1.3569   -0.4207   10.4141 H         1 RES1    0.0000
     44 H13       -2.8406    0.4836   10.1064 H         1 RES1    0.0000
     45 H14       -2.7372    1.2734   12.2577 H         1 RES1    0.0000
     46 H15       -1.1459    0.5465   12.4838 H         1 RES1    0.0000
     47 H16       -3.0011    3.5499    8.9596 H         1 RES1    0.0000
     48 H17       -2.9895    4.1884   10.6040 H         1 RES1    0.0000
     49 H18       -3.4582    2.5131   10.3127 H         1 RES1    0.0000
     50 H19       -2.1641    2.8611   -0.3158 H         1 RES1    0.0000
     51 H20       -1.2975    1.5346   -1.0897 H         1 RES1    0.0000
     52 H21       -0.7590    3.1973   -1.3262 H         1 RES1    0.0000
     53 H22        3.4514    1.5885    4.8003 H         1 RES1    0.0000
     54 H23        3.5826    0.3773    3.5254 H         1 RES1    0.0000
     55 H24        3.8665   -0.0771    5.2059 H         1 RES1    0.0000
     56 H25       -1.6452    4.4886   15.6164 H         1 RES1    0.0000
     57 H26       -2.9991    4.5253   14.4860 H         1 RES1    0.0000
     58 H27       -1.5858    5.5441   14.2040 H         1 RES1    0.0000
     59 H28        0.7451    2.1223    2.6944 H         1 RES1    0.0000
     60 H29       -2.0493    1.6402    3.6664 H         1 RES1    0.0000
     61 H30       -0.6947    0.3226    3.3482 H         1 RES1    0.0000
     62 H31       -2.3335    1.5504    7.8374 H         1 RES1    0.0000
     63 H32        0.4763    2.2256    7.4609 H         1 RES1    0.0000
     64 H33       -1.4030    3.1269    5.5881 H         1 RES1    0.0000
     65 H34        0.1633    1.5264    9.7778 H         1 RES1    0.0000
     66 H35       -0.0450    2.3341   11.6879 H         1 RES1    0.0000
@<TRIPOS>BOND
     1    1    2 1
     2    2    3 1
     3    3    4 1
     4    4    5 1
     5    5    6 1
     6    6    7 1
     7    7    8 1
     8    8    9 1
     9    9   10 1
    10   10    1 1
    11   11    9 1
    12   12   11 1
    13   13   12 1
    14   14    8 1
    15   15   14 1
    16   16   15 1
    17   17   13 1
    18   18   13 1
    19   19    3 1
    20   20   19 1
    21   21   20 2
    22   22   20 1
    23   23    1 1
    24   24    5 1
    25   25   24 1
    26   26   25 2
    27   27   25 1
    28   28   17 1
    29   29   28 1
    30   30   29 2
    31   31   29 1
    32   32    1 1
    33   33    2 1
    34   34    2 1
    35   35    6 1
    36   36    6 1
    37   37    7 1
    38   38    7 1
    39   39   11 1
    40   40   11 1
    41   41   12 1
    42   42   12 1
    43   43   15 1
    44   44   15 1
    45   45   16 1
    46   46   16 1
    47   47   18 1
    48   48   18 1
    49   49   18 1
    50   50   22 1
    51   51   22 1
    52   52   22 1
    53   53   27 1
    54   54   27 1
    55   55   27 1
    56   56   31 1
    57   57   31 1
    58   58   31 1
    59   59    3 1
    60   60    4 1
    61   61    4 1
    62   62    8 1
    63   63    9 1
    64   64   10 1
    65   65   14 1
    66   66   17 1
    67    5   10 1
    68   13   14 1
    69   16   17 1
    70   23   24 1
@<TRIPOS>SUBSTRUCTURE
     1 RES1 1

@<TRIPOS>CRYSIN
  13.3440    7.4860   13.1160  90.0000 117.3100  90.0000   4 1

