# MOL2 file generated by ConQuest
# Please check atom types

@<TRIPOS>MOLECULE
TOSCEJ
    70    76     2
SMALL
NO_CHARGES
****
Generated from CSD

@<TRIPOS>ATOM
      1 C1         1.7964    1.3253    7.2753 C.3       1 RES1    0.0000
      2 C2         0.9341    1.2982    8.5088 C.3       1 RES1    0.0000
      3 C3         1.4037    2.0665    9.6754 C.3       1 RES1    0.0000
      4 C4         2.5885    2.9297    9.6509 C.3       1 RES1    0.0000
      5 C5         3.4207    3.0992    8.4240 C.3       1 RES1    0.0000
      6 N1         3.9973    1.7845    8.1107 N.am      1 RES1    0.0000
      7 O1         3.1032    0.8119    7.6098 O.3       1 RES1    0.0000
      8 C6         1.8817    2.7446    6.6765 C.2       1 RES1    0.0000
      9 C7         2.7122    3.6078    7.2998 C.2       1 RES1    0.0000
     10 O2         1.2634    3.5381    9.6281 O.3       1 RES1    0.0000
     11 C8         5.2706    1.6160    7.7795 C.2       1 RES1    0.0000
     12 O3         6.1179    2.4685    7.9410 O.2       1 RES1    0.0000
     13 O4         5.5330    0.3953    7.3308 O.3       1 RES1    0.0000
     14 C9         6.9551    0.0455    7.2051 C.3       1 RES1    0.0000
     15 C10        7.0220   -1.4057    6.9147 C.ar      1 RES1    0.0000
     16 C11        6.4538   -2.3067    7.8154 C.ar      1 RES1    0.0000
     17 C12        6.5039   -3.6756    7.5559 C.ar      1 RES1    0.0000
     18 C13        7.1206   -4.1445    6.3959 C.ar      1 RES1    0.0000
     19 C14        7.6887   -3.2445    5.4952 C.ar      1 RES1    0.0000
     20 C15        7.6386   -1.8746    5.7547 C.ar      1 RES1    0.0000
     21 C16        5.7569    3.5875    3.3888 C.3       2 RES2    0.0000
     22 C17        4.8763    3.6136    2.1880 C.3       2 RES2    0.0000
     23 C18        5.2840    2.7126    1.0508 C.3       2 RES2    0.0000
     24 C19        6.4070    1.7719    1.1013 C.3       2 RES2    0.0000
     25 C20        7.2208    1.6315    2.3560 C.3       2 RES2    0.0000
     26 N2         7.9244    2.8744    2.6122 N.am      2 RES2    0.0000
     27 O5         7.1072    3.9663    2.9940 O.3       2 RES2    0.0000
     28 C21        5.7252    2.2844    4.0888 C.2       2 RES2    0.0000
     29 C22        6.4371    1.3011    3.5585 C.2       2 RES2    0.0000
     30 O6         5.0367    1.2837    1.1454 O.3       2 RES2    0.0000
     31 C23        9.2094    2.9093    3.0576 C.2       2 RES2    0.0000
     32 O7         9.9564    1.9812    2.9809 O.2       2 RES2    0.0000
     33 O8         9.5203    4.1242    3.4704 O.3       2 RES2    0.0000
     34 C24       10.9424    4.3770    3.6695 C.3       2 RES2    0.0000
     35 C25       11.1028    5.8477    3.8783 C.ar      2 RES2    0.0000
     36 C26       11.8264    6.3146    4.9764 C.ar      2 RES2    0.0000
     37 C27       11.9500    7.6865    5.1983 C.ar      2 RES2    0.0000
     38 C28       11.3518    8.5913    4.3205 C.ar      2 RES2    0.0000
     39 C29       10.6282    8.1244    3.2240 C.ar      2 RES2    0.0000
     40 C30       10.5029    6.7525    3.0021 C.ar      2 RES2    0.0000
     41 H1         1.3987    0.7499    6.6178 H         1 RES1    0.0000
     42 H2         0.8506    0.3778    8.7715 H         1 RES1    0.0000
     43 H3         0.0585    1.6111    8.2722 H         1 RES1    0.0000
     44 H4         1.1948    1.6731   10.5271 H         1 RES1    0.0000
     45 H5         3.0581    3.0382   10.4814 H         1 RES1    0.0000
     46 H6         4.1477    3.6940    8.6230 H         1 RES1    0.0000
     47 H7         1.3402    2.9994    5.9260 H         1 RES1    0.0000
     48 H8         2.8492    4.4865    6.9392 H         1 RES1    0.0000
     49 H9         7.4280    0.2529    8.0144 H         1 RES1    0.0000
     50 H10        7.3361    0.5493    6.4823 H         1 RES1    0.0000
     51 H11        6.0293   -1.9831    8.6132 H         1 RES1    0.0000
     52 H12        6.1129   -4.2966    8.1776 H         1 RES1    0.0000
     53 H13        7.1540   -5.0881    6.2180 H         1 RES1    0.0000
     54 H14        8.1132   -3.5671    4.6974 H         1 RES1    0.0000
     55 H15        8.0296   -1.2536    5.1346 H         1 RES1    0.0000
     56 H16        5.4394    4.2627    3.9925 H         2 RES2    0.0000
     57 H17        4.8161    4.5175    1.8714 H         2 RES2    0.0000
     58 H18        3.9973    3.3424    2.4637 H         2 RES2    0.0000
     59 H19        5.0985    3.0711    0.1795 H         2 RES2    0.0000
     60 H20        6.8833    1.6082    0.2839 H         2 RES2    0.0000
     61 H21        7.8709    0.9359    2.2288 H         2 RES2    0.0000
     62 H22        5.2188    2.1740    4.8981 H         2 RES2    0.0000
     63 H23        6.4471    0.4331    3.9681 H         2 RES2    0.0000
     64 H24       11.4487    4.0825    2.9091 H         2 RES2    0.0000
     65 H25       11.2565    3.9062    4.4461 H         2 RES2    0.0000
     66 H26       12.2391    5.6917    5.5801 H         2 RES2    0.0000
     67 H27       12.4480    8.0081    5.9537 H         2 RES2    0.0000
     68 H28       11.4370    9.5349    4.4738 H         2 RES2    0.0000
     69 H29       10.2154    8.7473    2.6203 H         2 RES2    0.0000
     70 H30       10.0065    6.4309    2.2467 H         2 RES2    0.0000
@<TRIPOS>BOND
     1    1    2 1
     2    2    3 1
     3    3    4 1
     4    4    5 1
     5    5    6 1
     6    6    7 1
     7    7    1 1
     8    8    1 1
     9    9    5 1
    10   10    3 1
    11   11    6 1
    12   12   11 2
    13   13   11 1
    14   14   13 1
    15   15   14 1
    16   16   15 ar
    17   17   16 ar
    18   18   17 ar
    19   19   18 ar
    20   20   15 ar
    21   21   22 1
    22   22   23 1
    23   23   24 1
    24   24   25 1
    25   25   26 1
    26   26   27 1
    27   27   21 1
    28   28   21 1
    29   29   25 1
    30   30   23 1
    31   31   26 1
    32   32   31 2
    33   33   31 1
    34   34   33 1
    35   35   34 1
    36   36   35 ar
    37   37   36 ar
    38   38   37 ar
    39   39   38 ar
    40   40   35 ar
    41   41    1 1
    42   42    2 1
    43   43    2 1
    44   44    3 1
    45   45    4 1
    46   46    5 1
    47   47    8 1
    48   48    9 1
    49   49   14 1
    50   50   14 1
    51   51   16 1
    52   52   17 1
    53   53   18 1
    54   54   19 1
    55   55   20 1
    56   56   21 1
    57   57   22 1
    58   58   22 1
    59   59   23 1
    60   60   24 1
    61   61   25 1
    62   62   28 1
    63   63   29 1
    64   64   34 1
    65   65   34 1
    66   66   36 1
    67   67   37 1
    68   68   38 1
    69   69   39 1
    70   70   40 1
    71    4   10 1
    72    8    9 2
    73   19   20 ar
    74   24   30 1
    75   28   29 2
    76   39   40 ar
@<TRIPOS>SUBSTRUCTURE
     1 RES1 1
     2 RES2 21

@<TRIPOS>CRYSIN
  16.7110    9.6880   16.3160  90.0000  90.0000  90.0000  33 1

