# MOL2 file generated by ConQuest
# Please check atom types

@<TRIPOS>MOLECULE
TOSREA
    66    68     2
SMALL
NO_CHARGES
****
Generated from CSD

@<TRIPOS>ATOM
      1 C1        10.2416    4.9576    2.8264 C.2       1 RES1    0.0000
      2 N1         9.3147    4.9613    3.7108 N.2       1 RES1    0.0000
      3 O1         8.8691    3.6644    4.0468 O.3       1 RES1    0.0000
      4 C2        10.8699    3.7157    2.2899 C.ar      1 RES1    0.0000
      5 C3        11.5872    2.9026    3.1668 C.ar      1 RES1    0.0000
      6 H1        11.6165    3.1184    4.0920 H         1 RES1    0.0000
      7 C4        12.2581    1.7790    2.6961 C.ar      1 RES1    0.0000
      8 H2        12.7600    1.2410    3.2975 H         1 RES1    0.0000
      9 C5        12.1983    1.4422    1.3506 C.ar      1 RES1    0.0000
     10 H3        12.6574    0.6735    1.0295 H         1 RES1    0.0000
     11 C6        11.4658    2.2324    0.4778 C.ar      1 RES1    0.0000
     12 H4        11.4113    1.9948   -0.4405 H         1 RES1    0.0000
     13 C7        10.8090    3.3758    0.9399 C.ar      1 RES1    0.0000
     14 H5        10.3225    3.9209    0.3337 H         1 RES1    0.0000
     15 C8        10.7330    6.3184    2.3352 C.3       1 RES1    0.0000
     16 O2        10.2770    6.4658    0.9750 O.3       1 RES1    0.0000
     17 C9        10.2128    7.4873    3.1771 C.3       1 RES1    0.0000
     18 H6         9.2254    7.5237    3.1099 H         1 RES1    0.0000
     19 H7        10.4499    7.3345    4.1264 H         1 RES1    0.0000
     20 C10       10.7987    8.8180    2.7206 C.3       1 RES1    0.0000
     21 H8        10.4747    9.5386    3.3165 H         1 RES1    0.0000
     22 H9        10.4847    9.0169    1.8025 H         1 RES1    0.0000
     23 C11       12.3249    8.7971    2.7371 C.3       1 RES1    0.0000
     24 H10       12.6441    8.6701    3.6645 H         1 RES1    0.0000
     25 H11       12.6739    9.6618    2.4070 H         1 RES1    0.0000
     26 C12       12.8420    7.6635    1.8531 C.3       1 RES1    0.0000
     27 H12       12.5912    7.8389    0.9120 H         1 RES1    0.0000
     28 H13       13.8306    7.6297    1.9059 H         1 RES1    0.0000
     29 C13       12.2683    6.3293    2.2876 C.3       1 RES1    0.0000
     30 H14       12.6193    6.1049    3.1859 H         1 RES1    0.0000
     31 H15       12.5779    5.6263    1.6601 H         1 RES1    0.0000
     32 H16        8.3384    3.8091    4.6417 H         1 RES1    0.0000
     33 H17        9.4852    6.4030    0.9321 H         1 RES1    0.0000
     34 C14        6.2071    4.6489    6.6009 C.2       2 RES2    0.0000
     35 N2         7.2176    4.8235    5.8369 N.2       2 RES2    0.0000
     36 O3         7.6926    6.1528    5.8070 O.3       2 RES2    0.0000
     37 C15        5.6180    5.7518    7.4092 C.ar      2 RES2    0.0000
     38 C16        4.4274    6.3695    7.0236 C.ar      2 RES2    0.0000
     39 H18        3.9632    6.0619    6.2543 H         2 RES2    0.0000
     40 C17        3.9208    7.4331    7.7630 C.ar      2 RES2    0.0000
     41 H19        3.1093    7.8504    7.4976 H         2 RES2    0.0000
     42 C18        4.5960    7.8882    8.8855 C.ar      2 RES2    0.0000
     43 H20        4.2478    8.6128    9.3892 H         2 RES2    0.0000
     44 C19        5.7838    7.2823    9.2713 C.ar      2 RES2    0.0000
     45 H21        6.2517    7.5953   10.0375 H         2 RES2    0.0000
     46 C20        6.2936    6.2158    8.5384 C.ar      2 RES2    0.0000
     47 H22        7.1056    5.8011    8.8073 H         2 RES2    0.0000
     48 C21        5.6817    3.2178    6.6772 C.3       2 RES2    0.0000
     49 O4         6.3823    2.3775    5.7644 O.3       2 RES2    0.0000
     50 C22        5.9744    2.6564    8.0773 C.3       2 RES2    0.0000
     51 H23        6.9534    2.6311    8.2195 H         2 RES2    0.0000
     52 H24        5.5849    3.2588    8.7574 H         2 RES2    0.0000
     53 C23        5.4055    1.2548    8.2642 C.3       2 RES2    0.0000
     54 H25        5.8877    0.6248    7.6733 H         2 RES2    0.0000
     55 H26        5.5485    0.9659    9.2004 H         2 RES2    0.0000
     56 C24        3.9203    1.2087    7.9420 C.3       2 RES2    0.0000
     57 H27        3.4254    1.7484    8.6066 H         2 RES2    0.0000
     58 H28        3.6008    0.2752    8.0082 H         2 RES2    0.0000
     59 C25        3.6316    1.7438    6.5379 C.3       2 RES2    0.0000
     60 H29        2.6543    1.7484    6.3802 H         2 RES2    0.0000
     61 H30        4.0492    1.1493    5.8648 H         2 RES2    0.0000
     62 C26        4.1811    3.1639    6.3757 C.3       2 RES2    0.0000
     63 H31        3.7017    3.7747    6.9893 H         2 RES2    0.0000
     64 H32        4.0211    3.4738    5.4492 H         2 RES2    0.0000
     65 H33        8.2193    6.1307    5.2177 H         2 RES2    0.0000
     66 H34        6.2186    2.5853    4.9956 H         2 RES2    0.0000
@<TRIPOS>BOND
     1    1    2 2
     2    2    3 1
     3    3   32 1
     4    4    1 1
     5    5    4 ar
     6    6    5 1
     7    7    5 ar
     8    8    7 1
     9    9    7 ar
    10   10    9 1
    11   11    9 ar
    12   12   11 1
    13   13    4 ar
    14   14   13 1
    15   15    1 1
    16   16   15 1
    17   17   15 1
    18   18   17 1
    19   19   17 1
    20   20   17 1
    21   21   20 1
    22   22   20 1
    23   23   20 1
    24   24   23 1
    25   25   23 1
    26   26   23 1
    27   27   26 1
    28   28   26 1
    29   29   15 1
    30   30   29 1
    31   31   29 1
    32   33   16 1
    33   34   35 2
    34   35   36 1
    35   36   65 1
    36   37   34 1
    37   38   37 ar
    38   39   38 1
    39   40   38 ar
    40   41   40 1
    41   42   40 ar
    42   43   42 1
    43   44   42 ar
    44   45   44 1
    45   46   37 ar
    46   47   46 1
    47   48   34 1
    48   49   48 1
    49   50   48 1
    50   51   50 1
    51   52   50 1
    52   53   50 1
    53   54   53 1
    54   55   53 1
    55   56   53 1
    56   57   56 1
    57   58   56 1
    58   59   56 1
    59   60   59 1
    60   61   59 1
    61   62   48 1
    62   63   62 1
    63   64   62 1
    64   66   49 1
    65   11   13 ar
    66   26   29 1
    67   44   46 ar
    68   59   62 1
@<TRIPOS>SUBSTRUCTURE
     1 RES1 1
     2 RES2 34

@<TRIPOS>CRYSIN
  33.0955   33.0955   11.8745  90.0000  90.0000 120.0000 233 1

