# MOL2 file generated by ConQuest
# Please check atom types

@<TRIPOS>MOLECULE
TOTDAH
    28    29     1
SMALL
NO_CHARGES
****
Generated from CSD

@<TRIPOS>ATOM
      1 N1         1.1884    0.3734   11.2196 N.3       1 RES1    0.0000
      2 N2         1.1051    0.9097    9.8634 N.pl3     1 RES1    0.0000
      3 N3         1.0727    0.0559    8.9366 N.2       1 RES1    0.0000
      4 C1         2.2365   -2.0838    9.3531 C.3       1 RES1    0.0000
      5 C2         2.0032   -3.5819    9.5601 C.3       1 RES1    0.0000
      6 C3         1.9773   -4.0093   11.0074 C.3       1 RES1    0.0000
      7 C4         0.8712   -3.3981   11.8418 C.3       1 RES1    0.0000
      8 C5         1.0914   -1.9028   12.1216 C.3       1 RES1    0.0000
      9 C6         0.5988   -0.9779   11.0335 C.3       1 RES1    0.0000
     10 C7         0.9650   -1.2878    9.5913 C.3       1 RES1    0.0000
     11 C8         1.1992    1.9123   12.9208 C.3       1 RES1    0.0000
     12 O1         0.3705    1.1618   12.0357 O.3       1 RES1    0.0000
     13 O2         1.1751    2.1473    9.7202 O.2       1 RES1    0.0000
     14 H1         2.9261   -1.7777    9.9623 H         1 RES1    0.0000
     15 H2         2.5476   -1.9284    8.4472 H         1 RES1    0.0000
     16 H3         1.1590   -3.8255    9.1488 H         1 RES1    0.0000
     17 H4         2.7046   -4.0718    9.1032 H         1 RES1    0.0000
     18 H5         2.8292   -3.7800   11.4109 H         1 RES1    0.0000
     19 H6         1.8899   -4.9749   11.0413 H         1 RES1    0.0000
     20 H7         0.8127   -3.8728   12.6865 H         1 RES1    0.0000
     21 H8         0.0269   -3.5128   11.3784 H         1 RES1    0.0000
     22 H9         0.6413   -1.6735   12.9507 H         1 RES1    0.0000
     23 H10        2.0401   -1.7483   12.2531 H         1 RES1    0.0000
     24 H11       -0.3769   -0.9069   11.0999 H         1 RES1    0.0000
     25 H12        0.2181   -1.7711    9.1800 H         1 RES1    0.0000
     26 H13        0.6500    2.4590   13.4869 H         1 RES1    0.0000
     27 H14        1.7882    2.4723   12.4092 H         1 RES1    0.0000
     28 H15        1.7174    1.3115   13.4609 H         1 RES1    0.0000
@<TRIPOS>BOND
     1    1    2 1
     2    2    3 2
     3    3   10 1
     4    4    5 1
     5    5    6 1
     6    6    7 1
     7    7    8 1
     8    8    9 1
     9    9    1 1
    10   10    4 1
    11   11   12 1
    12   12    1 1
    13   13    2 2
    14   14    4 1
    15   15    4 1
    16   16    5 1
    17   17    5 1
    18   18    6 1
    19   19    6 1
    20   20    7 1
    21   21    7 1
    22   22    8 1
    23   23    8 1
    24   24    9 1
    25   25   10 1
    26   26   11 1
    27   27   11 1
    28   28   11 1
    29    9   10 1
@<TRIPOS>SUBSTRUCTURE
     1 RES1 1

@<TRIPOS>CRYSIN
   7.9780    9.4760   13.0390  90.0000  93.4200  90.0000  14 1

