# MOL2 file generated by ConQuest
# Please check atom types

@<TRIPOS>MOLECULE
TOTFOX
   120   126     3
SMALL
USER_CHARGES
****
Generated from CSD

@<TRIPOS>ATOM
      1 O1         6.8792   15.4723    5.4881 O.2       1 RES1    0.0000
      2 N1         6.0573   14.5551    5.5382 N.1       1 RES1   -1.0000
      3 C1         4.3991   12.5489    5.4959 C.3       1 RES1    0.0000
      4 C2         2.9398   13.0652    5.2235 C.3       1 RES1    0.0000
      5 C3         5.2898   13.7318    5.5966 C.2       1 RES1    1.0000
      6 C4         4.9451   11.7053    4.3267 C.ar      1 RES1    0.0000
      7 C5         4.1637   11.2378    3.2969 C.ar      1 RES1    0.0000
      8 C6         4.7247   10.4709    2.2881 C.ar      1 RES1    0.0000
      9 C7         6.0503   10.1646    2.2826 C.ar      1 RES1    0.0000
     10 C8         6.8318   10.6186    3.3148 C.ar      1 RES1    0.0000
     11 C9         6.2961   11.3779    4.3279 C.ar      1 RES1    0.0000
     12 C10        4.4267   11.7680    6.8009 C.ar      1 RES1    0.0000
     13 C11        4.0659   10.4292    6.8080 C.ar      1 RES1    0.0000
     14 C12        4.0418    9.7245    7.9923 C.ar      1 RES1    0.0000
     15 C13        4.3726   10.3306    9.1761 C.ar      1 RES1    0.0000
     16 C14        4.7091   11.6512    9.1867 C.ar      1 RES1    0.0000
     17 C15        4.7399   12.3645    8.0047 C.ar      1 RES1    0.0000
     18 C16        2.4282   13.9960    6.2862 C.ar      1 RES1    0.0000
     19 C17        2.7032   15.3554    6.2331 C.ar      1 RES1    0.0000
     20 C18        2.2604   16.2108    7.2270 C.ar      1 RES1    0.0000
     21 C19        1.5195   15.7245    8.2856 C.ar      1 RES1    0.0000
     22 C20        1.2188   14.3739    8.3376 C.ar      1 RES1    0.0000
     23 C21        1.6756   13.5163    7.3463 C.ar      1 RES1    0.0000
     24 H1         2.2777   12.2116    5.1691 H         1 RES1    0.0000
     25 H2         2.9308   13.5860    4.2778 H         1 RES1    0.0000
     26 H3         3.1065   11.4679    3.2745 H         1 RES1    0.0000
     27 H4         4.0953   10.1080    1.4854 H         1 RES1    0.0000
     28 H5         6.4834    9.5774    1.4842 H         1 RES1    0.0000
     29 H6         7.8884   10.3785    3.3340 H         1 RES1    0.0000
     30 H7         6.9326   11.7227    5.1359 H         1 RES1    0.0000
     31 H8         3.7962    9.9377    5.8819 H         1 RES1    0.0000
     32 H9         3.7660    8.6797    7.9892 H         1 RES1    0.0000
     33 H10        4.3682    9.7627   10.0976 H         1 RES1    0.0000
     34 H11        4.9499   12.1404   10.1214 H         1 RES1    0.0000
     35 H12        5.0143   13.4122    8.0242 H         1 RES1    0.0000
     36 H13        3.2733   15.7498    5.4018 H         1 RES1    0.0000
     37 H14        2.4922   17.2685    7.1684 H         1 RES1    0.0000
     38 H15        1.1820   16.3921    9.0631 H         1 RES1    0.0000
     39 H16        0.6293   13.9904    9.1566 H         1 RES1    0.0000
     40 H17        1.4391   12.4626    7.4029 H         1 RES1    0.0000
     41 O2         7.7434    6.3301    0.9410 O.2       2 RES2    0.0000
     42 N2         8.5917    5.4186    0.9650 N.1       2 RES2   -1.0000
     43 C22       10.3025    3.4804    1.2020 C.3       2 RES2    0.0000
     44 C23       11.6968    4.1314    1.4917 C.3       2 RES2    0.0000
     45 C24        9.3573    4.5832    0.9493 C.2       2 RES2    1.0000
     46 C25        9.7549    2.6833    2.3973 C.ar      2 RES2    0.0000
     47 C26       10.5432    2.2828    3.4516 C.ar      2 RES2    0.0000
     48 C27       10.0035    1.5244    4.4885 C.ar      2 RES2    0.0000
     49 C28        8.6866    1.1718    4.4763 C.ar      2 RES2    0.0000
     50 C29        7.8940    1.5642    3.4276 C.ar      2 RES2    0.0000
     51 C30        8.4150    2.3109    2.3922 C.ar      2 RES2    0.0000
     52 C31       10.3886    2.5604   -0.0187 C.ar      2 RES2    0.0000
     53 C32       11.2279    1.4449    0.0550 C.ar      2 RES2    0.0000
     54 C33       11.3498    0.5807   -1.0192 C.ar      2 RES2    0.0000
     55 C34       10.6152    0.8009   -2.1546 C.ar      2 RES2    0.0000
     56 C35        9.7665    1.8791   -2.2352 C.ar      2 RES2    0.0000
     57 C36        9.6612    2.7624   -1.1666 C.ar      2 RES2    0.0000
     58 C37       12.1622    5.0847    0.4161 C.ar      2 RES2    0.0000
     59 C38       12.0154    6.4503    0.5898 C.ar      2 RES2    0.0000
     60 C39       12.4424    7.3299   -0.3968 C.ar      2 RES2    0.0000
     61 C40       13.0049    6.8557   -1.5579 C.ar      2 RES2    0.0000
     62 C41       13.1627    5.5010   -1.7393 C.ar      2 RES2    0.0000
     63 C42       12.7495    4.6239   -0.7521 C.ar      2 RES2    0.0000
     64 H18       12.4274    3.3406    1.5868 H         2 RES2    0.0000
     65 H19       11.6306    4.6739    2.4219 H         2 RES2    0.0000
     66 H20       11.5894    2.5619    3.4789 H         2 RES2    0.0000
     67 H21       10.6319    1.2042    5.3110 H         2 RES2    0.0000
     68 H22        8.2686    0.5935    5.2843 H         2 RES2    0.0000
     69 H23        6.8479    1.2799    3.4117 H         2 RES2    0.0000
     70 H24        7.7782    2.6133    1.5695 H         2 RES2    0.0000
     71 H25       11.7876    1.2539    0.9638 H         2 RES2    0.0000
     72 H26       12.0229   -0.2648   -0.9622 H         2 RES2    0.0000
     73 H27       10.7073    0.1231   -2.9885 H         2 RES2    0.0000
     74 H28        9.1855    2.0436   -3.1357 H         2 RES2    0.0000
     75 H29        8.9962    3.6169   -1.2370 H         2 RES2    0.0000
     76 H30       11.5621    6.8295    1.5007 H         2 RES2    0.0000
     77 H31       12.3400    8.3954   -0.2415 H         2 RES2    0.0000
     78 H32       13.3106    7.5468   -2.3248 H         2 RES2    0.0000
     79 H33       13.6072    5.1261   -2.6534 H         2 RES2    0.0000
     80 H34       12.8850    3.5598   -0.8982 H         2 RES2    0.0000
     81 O3         2.7322    6.6990    7.8860 O.2       3 RES3    0.0000
     82 N3         1.9555    5.7392    7.9135 N.1       3 RES3   -1.0000
     83 C43        0.3709    3.6876    8.0432 C.3       3 RES3    0.0000
     84 C44       -1.0675    4.2097    8.3807 C.3       3 RES3    0.0000
     85 C45        1.2540    4.8608    7.9247 C.2       3 RES3    1.0000
     86 C46        0.9639    2.8112    9.1519 C.ar      3 RES3    0.0000
     87 C47        2.2996    2.4502    9.0579 C.ar      3 RES3    0.0000
     88 C48        2.9149    1.6991   10.0396 C.ar      3 RES3    0.0000
     89 C49        2.1928    1.2834   11.1308 C.ar      3 RES3    0.0000
     90 C50        0.8627    1.6045   11.2360 C.ar      3 RES3    0.0000
     91 C51        0.2494    2.3766   10.2507 C.ar      3 RES3    0.0000
     92 C52        0.3291    2.9446    6.7040 C.ar      3 RES3    0.0000
     93 C53       -0.0981    1.6235    6.6808 C.ar      3 RES3    0.0000
     94 C54       -0.1941    0.9448    5.4773 C.ar      3 RES3    0.0000
     95 C55        0.1342    1.5845    4.3002 C.ar      3 RES3    0.0000
     96 C56        0.5305    2.8932    4.3189 C.ar      3 RES3    0.0000
     97 C57        0.6315    3.5643    5.5136 C.ar      3 RES3    0.0000
     98 C58       -1.6102    5.1411    7.3269 C.ar      3 RES3    0.0000
     99 C59       -2.4083    4.6532    6.3049 C.ar      3 RES3    0.0000
    100 C60       -2.8755    5.4956    5.3177 C.ar      3 RES3    0.0000
    101 C61       -2.5437    6.8250    5.3383 C.ar      3 RES3    0.0000
    102 C62       -1.7649    7.3218    6.3465 C.ar      3 RES3    0.0000
    103 C63       -1.2960    6.4887    7.3512 C.ar      3 RES3    0.0000
    104 H35       -1.0304    4.7367    9.3237 H         3 RES3    0.0000
    105 H36       -1.7316    3.3621    8.4699 H         3 RES3    0.0000
    106 H37        2.8753    2.7645    8.1955 H         3 RES3    0.0000
    107 H38        3.9506    1.4309    9.9457 H         3 RES3    0.0000
    108 H39        2.6745    0.7138   11.9097 H         3 RES3    0.0000
    109 H40        0.2832    1.2558   12.0844 H         3 RES3    0.0000
    110 H41       -0.7979    2.6367   10.3439 H         3 RES3    0.0000
    111 H42       -0.3564    1.1255    7.6079 H         3 RES3    0.0000
    112 H43       -0.5257   -0.0874    5.4615 H         3 RES3    0.0000
    113 H44        0.0748    1.0520    3.3635 H         3 RES3    0.0000
    114 H45        0.7730    3.3954    3.3900 H         3 RES3    0.0000
    115 H46        0.9506    4.5998    5.5150 H         3 RES3    0.0000
    116 H47       -2.6651    3.5984    6.2854 H         3 RES3    0.0000
    117 H48       -3.5086    5.1043    4.5292 H         3 RES3    0.0000
    118 H49       -2.8920    7.4732    4.5555 H         3 RES3    0.0000
    119 H50       -1.5111    8.3746    6.3579 H         3 RES3    0.0000
    120 H51       -0.6828    6.8869    8.1513 H         3 RES3    0.0000
@<TRIPOS>BOND
     1    1    2 2
     2    2    5 2
     3    3    4 1
     4    4   18 1
     5    5    3 1
     6    6    3 1
     7    7    6 ar
     8    8    7 ar
     9    9    8 ar
    10   10    9 ar
    11   11    6 ar
    12   12    3 1
    13   13   12 ar
    14   14   13 ar
    15   15   14 ar
    16   16   15 ar
    17   17   12 ar
    18   18   19 ar
    19   19   20 ar
    20   20   21 ar
    21   21   22 ar
    22   22   23 ar
    23   23   18 ar
    24   24    4 1
    25   25    4 1
    26   26    7 1
    27   27    8 1
    28   28    9 1
    29   29   10 1
    30   30   11 1
    31   31   13 1
    32   32   14 1
    33   33   15 1
    34   34   16 1
    35   35   17 1
    36   36   19 1
    37   37   20 1
    38   38   21 1
    39   39   22 1
    40   40   23 1
    41   41   42 2
    42   42   45 2
    43   43   44 1
    44   44   58 1
    45   45   43 1
    46   46   43 1
    47   47   46 ar
    48   48   47 ar
    49   49   48 ar
    50   50   49 ar
    51   51   46 ar
    52   52   43 1
    53   53   52 ar
    54   54   53 ar
    55   55   54 ar
    56   56   55 ar
    57   57   52 ar
    58   58   59 ar
    59   59   60 ar
    60   60   61 ar
    61   61   62 ar
    62   62   63 ar
    63   63   58 ar
    64   64   44 1
    65   65   44 1
    66   66   47 1
    67   67   48 1
    68   68   49 1
    69   69   50 1
    70   70   51 1
    71   71   53 1
    72   72   54 1
    73   73   55 1
    74   74   56 1
    75   75   57 1
    76   76   59 1
    77   77   60 1
    78   78   61 1
    79   79   62 1
    80   80   63 1
    81   81   82 2
    82   82   85 2
    83   83   84 1
    84   84   98 1
    85   85   83 1
    86   86   83 1
    87   87   86 ar
    88   88   87 ar
    89   89   88 ar
    90   90   89 ar
    91   91   86 ar
    92   92   83 1
    93   93   92 ar
    94   94   93 ar
    95   95   94 ar
    96   96   95 ar
    97   97   92 ar
    98   98   99 ar
    99   99  100 ar
   100  100  101 ar
   101  101  102 ar
   102  102  103 ar
   103  103   98 ar
   104  104   84 1
   105  105   84 1
   106  106   87 1
   107  107   88 1
   108  108   89 1
   109  109   90 1
   110  110   91 1
   111  111   93 1
   112  112   94 1
   113  113   95 1
   114  114   96 1
   115  115   97 1
   116  116   99 1
   117  117  100 1
   118  118  101 1
   119  119  102 1
   120  120  103 1
   121   10   11 ar
   122   16   17 ar
   123   50   51 ar
   124   56   57 ar
   125   90   91 ar
   126   96   97 ar
@<TRIPOS>SUBSTRUCTURE
     1 RES1 1
     2 RES2 41
     3 RES3 81

@<TRIPOS>CRYSIN
  13.9160   17.2380   21.1970  90.0000 106.1660  90.0000  14 2

