# MOL2 file generated by ConQuest
# Please check atom types

@<TRIPOS>MOLECULE
TOVLUN
    40    42     1
SMALL
NO_CHARGES
****
Generated from CSD

@<TRIPOS>ATOM
      1 O1         1.4874   -0.9171    3.2990 O.3       1 RES1    0.0000
      2 O2         2.3226    1.3621   -3.4295 O.2       1 RES1    0.0000
      3 C1         0.6082    0.5034    7.3818 C.3       1 RES1    0.0000
      4 H1         1.0049    1.1970    7.9331 H         1 RES1    0.0000
      5 H2        -0.3515    0.6423    7.3567 H         1 RES1    0.0000
      6 O3         0.5232   -2.4864    2.0280 O.2       1 RES1    0.0000
      7 O4         3.6548    2.4953   -2.1948 O.2       1 RES1    0.0000
      8 N1         2.8319    1.6149   -2.3535 N.pl3     1 RES1    0.0000
      9 O5        -0.9831    1.1548    5.1223 O.2       1 RES1    0.0000
     10 C2         0.1550    1.0557    4.9795 C.2       1 RES1    0.0000
     11 H3         0.4876    1.3120    4.1496 H         1 RES1    0.0000
     12 C3         1.1792    0.5569    5.9847 C.3       1 RES1    0.0000
     13 C4         1.6821   -0.9259    5.6888 C.3       1 RES1    0.0000
     14 C5         1.0822   -1.6297    4.4974 C.3       1 RES1    0.0000
     15 H4         1.3953   -2.5477    4.4615 H         1 RES1    0.0000
     16 H5         0.1147   -1.6388    4.5700 H         1 RES1    0.0000
     17 C6         1.1576   -1.4714    2.1318 C.2       1 RES1    0.0000
     18 C7         1.6502   -0.6613    0.9784 C.ar      1 RES1    0.0000
     19 C8         1.3725   -1.1127   -0.3075 C.ar      1 RES1    0.0000
     20 H6         0.9194   -1.9156   -0.4272 H         1 RES1    0.0000
     21 C9         1.7635   -0.3792   -1.4018 C.ar      1 RES1    0.0000
     22 H7         1.5720   -0.6697   -2.2647 H         1 RES1    0.0000
     23 C10        2.4474    0.7984   -1.1886 C.ar      1 RES1    0.0000
     24 C11        0.9106   -0.8018    7.9273 C.3       1 RES1    0.0000
     25 H8         1.6197   -0.7175    8.5840 H         1 RES1    0.0000
     26 H9         0.1251   -1.1480    8.3806 H         1 RES1    0.0000
     27 C12        1.2973   -1.6901    6.9553 C.3       1 RES1    0.0000
     28 H10        0.5703   -2.3017    6.7601 H         1 RES1    0.0000
     29 H11        2.0551   -2.2083    7.2686 H         1 RES1    0.0000
     30 C13        3.1728   -0.7562    5.5518 C.2       1 RES1    0.0000
     31 H12        3.7708   -1.4578    5.4243 H         1 RES1    0.0000
     32 C14        3.5263    0.5239    5.6345 C.2       1 RES1    0.0000
     33 H13        4.4076    0.8109    5.5633 H         1 RES1    0.0000
     34 C15        2.4321    1.4179    5.8444 C.3       1 RES1    0.0000
     35 H14        2.3431    2.0238    5.0921 H         1 RES1    0.0000
     36 H15        2.5740    1.9418    6.6482 H         1 RES1    0.0000
     37 C16        2.7619    1.2619    0.0709 C.ar      1 RES1    0.0000
     38 H16        3.2312    2.0568    0.1831 H         1 RES1    0.0000
     39 C17        2.3615    0.5148    1.1635 C.ar      1 RES1    0.0000
     40 H17        2.5693    0.8018    2.0239 H         1 RES1    0.0000
@<TRIPOS>BOND
     1    1   14 1
     2    2    8 2
     3    3    4 1
     4    5    3 1
     5    6   17 2
     6    7    8 2
     7    8   23 1
     8    9   10 2
     9   10   11 1
    10   12    3 1
    11   13   12 1
    12   14   13 1
    13   15   14 1
    14   16   14 1
    15   17    1 1
    16   18   17 1
    17   19   18 ar
    18   20   19 1
    19   21   19 ar
    20   22   21 1
    21   23   21 ar
    22   24    3 1
    23   25   24 1
    24   26   24 1
    25   27   13 1
    26   28   27 1
    27   29   27 1
    28   30   13 1
    29   31   30 1
    30   32   30 2
    31   33   32 1
    32   34   12 1
    33   35   34 1
    34   36   34 1
    35   37   23 ar
    36   38   37 1
    37   39   18 ar
    38   40   39 1
    39   10   12 1
    40   24   27 1
    41   32   34 1
    42   37   39 ar
@<TRIPOS>SUBSTRUCTURE
     1 RES1 1

@<TRIPOS>CRYSIN
   8.0475   11.3888   34.1210  90.0000  96.4950  90.0000  15 1

