# MOL2 file generated by ConQuest
# Please check atom types

@<TRIPOS>MOLECULE
TOXCNB
    87    92     1
SMALL
NO_CHARGES
****
Generated from CSD

@<TRIPOS>ATOM
      1 C1        -5.0281    4.9178    4.3955 C.3       1 RES1    0.0000
      2 C2        -4.1220    3.9045    5.1113 C.3       1 RES1    0.0000
      3 C3        -0.2105    3.5022    5.9279 C.3       1 RES1    0.0000
      4 C4         0.6090    2.3338    6.4863 C.3       1 RES1    0.0000
      5 C5        -0.0060    1.6871    7.7457 C.3       1 RES1    0.0000
      6 C6        -1.4668    1.3088    7.4062 C.3       1 RES1    0.0000
      7 C7        -1.9316    0.4543    8.5721 C.3       1 RES1    0.0000
      8 C8        -0.6552   -0.3314    8.9681 C.3       1 RES1    0.0000
      9 C9         0.5272    0.2868    8.1638 C.3       1 RES1    0.0000
     10 C10        0.0426    2.6608    8.9337 C.3       1 RES1    0.0000
     11 C11       -4.4993    2.4874    4.7448 C.3       1 RES1    0.0000
     12 C12       -4.4485    6.3210    4.2799 C.3       1 RES1    0.0000
     13 C13        1.8684    0.1749    8.9189 C.3       1 RES1    0.0000
     14 C14        3.0293    0.7748    8.1269 C.3       1 RES1    0.0000
     15 C15        2.1641   -1.2876    9.2658 C.3       1 RES1    0.0000
     16 C16        3.3422   -1.5393   10.2078 C.3       1 RES1    0.0000
     17 C17        3.4919   -2.9974   10.5596 C.3       1 RES1    0.0000
     18 C18        4.5462   -3.3851   11.5976 C.3       1 RES1    0.0000
     19 C19        5.9192   -2.8145   11.2877 C.3       1 RES1    0.0000
     20 C20        4.6252   -4.8827   11.7698 C.3       1 RES1    0.0000
     21 C21       -3.0015    6.2852    3.8052 C.3       1 RES1    0.0000
     22 C22       -2.0832    4.6288    0.6100 C.ar      1 RES1    0.0000
     23 C23       -2.6740    3.3888    0.8363 C.ar      1 RES1    0.0000
     24 C24       -2.6235    2.4370   -0.1599 C.ar      1 RES1    0.0000
     25 C25       -2.0285    2.6806   -1.3947 C.ar      1 RES1    0.0000
     26 C26       -1.4635    3.9272   -1.5816 C.ar      1 RES1    0.0000
     27 C27       -1.4665    4.8959   -0.6149 C.ar      1 RES1    0.0000
     28 C28       -2.0840    5.6867    1.6529 C.2       1 RES1    0.0000
     29 C29       -2.1043    5.5814    4.8161 C.3       1 RES1    0.0000
     30 C30       -2.6517    4.2930    5.3794 C.3       1 RES1    0.0000
     31 C31       -3.6895    4.2543    6.5330 C.3       1 RES1    0.0000
     32 C32       -3.2834    3.1488    7.4087 C.2       1 RES1    0.0000
     33 C33       -2.2222    2.4772    6.9167 C.2       1 RES1    0.0000
     34 C34       -1.6889    3.1393    5.6721 C.3       1 RES1    0.0000
     35 H1         0.1829    3.7531    5.0178 H         1 RES1    0.0000
     36 H2        -0.1740    4.3164    6.6658 H         1 RES1    0.0000
     37 H3        -5.1804    4.5432    3.4190 H         1 RES1    0.0000
     38 H4         0.6400    1.6315    5.6820 H         1 RES1    0.0000
     39 H5         1.5510    2.6923    6.6904 H         1 RES1    0.0000
     40 H6        -1.4624    0.7609    6.6412 H         1 RES1    0.0000
     41 H7        -2.1790    1.0316    9.2731 H         1 RES1    0.0000
     42 H8        -2.6393   -0.2341    8.2893 H         1 RES1    0.0000
     43 H9        -0.4730   -0.2634    9.9865 H         1 RES1    0.0000
     44 H10       -0.7598   -1.2657    8.8058 H         1 RES1    0.0000
     45 H11        0.5543   -0.2048    7.3054 H         1 RES1    0.0000
     46 H12       -0.1747    2.1729    9.7897 H         1 RES1    0.0000
     47 H13       -0.5165    3.5263    8.7320 H         1 RES1    0.0000
     48 H14        0.9177    2.9630    9.0764 H         1 RES1    0.0000
     49 H15       -4.0420    1.8290    5.3622 H         1 RES1    0.0000
     50 H16       -4.3727    2.3338    3.8372 H         1 RES1    0.0000
     51 H17       -5.4975    2.4655    4.8702 H         1 RES1    0.0000
     52 H18        1.7960    0.6877    9.8389 H         1 RES1    0.0000
     53 H19       -4.9656    6.7746    3.6404 H         1 RES1    0.0000
     54 H20        3.0395    0.3365    7.2562 H         1 RES1    0.0000
     55 H21        2.8802    1.7339    8.0433 H         1 RES1    0.0000
     56 H22        3.8569    0.5780    8.6336 H         1 RES1    0.0000
     57 H23       -4.5280    6.6941    5.1654 H         1 RES1    0.0000
     58 H24        2.2430   -1.7412    8.4122 H         1 RES1    0.0000
     59 H25        1.3189   -1.6680    9.6421 H         1 RES1    0.0000
     60 H26        4.1705   -1.1779    9.8143 H         1 RES1    0.0000
     61 H27        3.2387   -1.0462   11.0933 H         1 RES1    0.0000
     62 H28        2.6446   -3.3654   10.8474 H         1 RES1    0.0000
     63 H29        3.6283   -3.5483    9.6913 H         1 RES1    0.0000
     64 H30        4.2940   -2.8752   12.5446 H         1 RES1    0.0000
     65 H31        6.6260   -3.1093   12.0526 H         1 RES1    0.0000
     66 H32        6.2537   -3.0800   10.2816 H         1 RES1    0.0000
     67 H33        5.9310   -1.6900   11.3147 H         1 RES1    0.0000
     68 H34        5.2018   -5.0554   12.4954 H         1 RES1    0.0000
     69 H35        3.6548   -5.2309   11.9050 H         1 RES1    0.0000
     70 H36        4.8815   -5.2895   10.8474 H         1 RES1    0.0000
     71 H37       -2.6598    7.2136    3.5420 H         1 RES1    0.0000
     72 H38       -3.0217    3.2703    1.6480 H         1 RES1    0.0000
     73 H39       -2.0014    1.9826   -2.0662 H         1 RES1    0.0000
     74 H40       -1.0845    5.8016   -0.8117 H         1 RES1    0.0000
     75 H41       -1.2378    5.4065    4.3045 H         1 RES1    0.0000
     76 H42       -1.9022    6.1454    5.5836 H         1 RES1    0.0000
     77 H43       -3.9736    5.0993    6.9118 H         1 RES1    0.0000
     78 H44       -3.7812    2.8532    8.2401 H         1 RES1    0.0000
     79 H45       -1.6514    2.5313    4.8948 H         1 RES1    0.0000
     80 N1        -3.2725    1.1267    0.0738 N.pl3     1 RES1    0.0000
     81 N2        -0.8465    4.2177   -2.8877 N.pl3     1 RES1    0.0000
     82 O1        -3.1547    0.2663   -0.7896 O.2       1 RES1    0.0000
     83 O2        -3.8879    0.9825    1.1315 O.2       1 RES1    0.0000
     84 O3        -3.0079    5.4614    2.5925 O.3       1 RES1    0.0000
     85 O4        -1.3280    6.6415    1.6456 O.2       1 RES1    0.0000
     86 O5        -0.9252    3.3683   -3.7707 O.2       1 RES1    0.0000
     87 O6        -0.2756    5.2909   -3.0156 O.2       1 RES1    0.0000
@<TRIPOS>BOND
     1    1    2 1
     2    2   11 1
     3    3    4 1
     4    4    5 1
     5    5    6 1
     6    6    7 1
     7    7    8 1
     8    8    9 1
     9    9    5 1
    10   10    5 1
    11   11   49 1
    12   12    1 1
    13   13    9 1
    14   14   13 1
    15   15   13 1
    16   16   15 1
    17   17   16 1
    18   18   17 1
    19   19   18 1
    20   20   18 1
    21   21   12 1
    22   22   23 ar
    23   23   24 ar
    24   24   25 ar
    25   25   26 ar
    26   26   27 ar
    27   27   22 ar
    28   28   22 1
    29   29   21 1
    30   30    2 1
    31   31    2 1
    32   32   31 1
    33   33    6 1
    34   34    3 1
    35   35    3 1
    36   36    3 1
    37   37    1 1
    38   38    4 1
    39   39    4 1
    40   40    6 1
    41   41    7 1
    42   42    7 1
    43   43    8 1
    44   44    8 1
    45   45    9 1
    46   46   10 1
    47   47   10 1
    48   48   10 1
    49   50   11 1
    50   51   11 1
    51   52   13 1
    52   53   12 1
    53   54   14 1
    54   55   14 1
    55   56   14 1
    56   57   12 1
    57   58   15 1
    58   59   15 1
    59   60   16 1
    60   61   16 1
    61   62   17 1
    62   63   17 1
    63   64   18 1
    64   65   19 1
    65   66   19 1
    66   67   19 1
    67   68   20 1
    68   69   20 1
    69   70   20 1
    70   71   21 1
    71   72   23 1
    72   73   25 1
    73   74   27 1
    74   75   29 1
    75   76   29 1
    76   77   31 1
    77   78   32 1
    78   79   34 1
    79   80   24 1
    80   81   26 1
    81   82   80 2
    82   83   80 2
    83   84   21 1
    84   85   28 2
    85   86   81 2
    86   87   81 2
    87   28   84 1
    88   29   30 1
    89   30   31 1
    90   30   34 1
    91   32   33 2
    92   33   34 1
@<TRIPOS>SUBSTRUCTURE
     1 RES1 1

@<TRIPOS>CRYSIN
   8.9120    7.3160   24.8990  90.0000  98.9300  90.0000   4 1

