# MOL2 file generated by ConQuest
# Please check atom types

@<TRIPOS>MOLECULE
TOXISA10
    89    93     1
SMALL
NO_CHARGES
****
Generated from CSD

@<TRIPOS>ATOM
      1 C1         1.1992   -5.7857    5.0804 C.3       1 RES1    0.0000
      2 C2         0.3575   -4.8043    5.8490 C.2       1 RES1    0.0000
      3 C3         2.4891   -4.4096   11.1040 C.3       1 RES1    0.0000
      4 C4         2.2701   -5.5327   12.1344 C.3       1 RES1    0.0000
      5 C5         0.8581   -6.1390   11.9969 C.3       1 RES1    0.0000
      6 C6         0.6497   -6.5402   10.5254 C.3       1 RES1    0.0000
      7 C7        -0.6614   -7.3471   10.5314 C.3       1 RES1    0.0000
      8 C8        -0.6249   -8.0515   11.9061 C.3       1 RES1    0.0000
      9 C9         0.6384   -7.5238   12.6388 C.3       1 RES1    0.0000
     10 C10       -0.1836   -5.1467   12.5516 C.3       1 RES1    0.0000
     11 C11       -0.1374   -3.6485    5.0278 C.3       1 RES1    0.0000
     12 C12        1.4903   -7.0549    5.8861 C.3       1 RES1    0.0000
     13 C13        0.4989   -7.6939   14.1749 C.3       1 RES1    0.0000
     14 C14        1.7004   -7.1748   14.9615 C.3       1 RES1    0.0000
     15 C15        0.2582   -9.1550   14.4702 C.2       1 RES1    0.0000
     16 C16       -0.8349   -9.6980   14.9101 C.2       1 RES1    0.0000
     17 C17       -1.0753  -11.1592   15.0918 C.3       1 RES1    0.0000
     18 C18       -1.4444  -11.5277   16.5167 C.3       1 RES1    0.0000
     19 C19       -0.3410  -11.1613   17.4718 C.3       1 RES1    0.0000
     20 C20       -2.7999  -11.0414   16.8382 C.3       1 RES1    0.0000
     21 C21       -2.0963  -11.6411   14.0458 C.3       1 RES1    0.0000
     22 C22        1.8766   -6.7125    7.3050 C.3       1 RES1    0.0000
     23 C23        3.4788   -9.7678    8.6976 C.ar      1 RES1    0.0000
     24 C24        2.5261  -10.1516    9.6384 C.ar      1 RES1    0.0000
     25 C25        2.7213  -11.3293   10.3485 C.ar      1 RES1    0.0000
     26 C26        3.8121  -12.1274   10.1763 C.ar      1 RES1    0.0000
     27 C27        4.7424  -11.7305    9.2332 C.ar      1 RES1    0.0000
     28 C28        4.6037  -10.5703    8.5040 C.ar      1 RES1    0.0000
     29 C29        3.3509   -8.5247    7.8872 C.2       1 RES1    0.0000
     30 C30        0.7181   -6.0583    7.9960 C.3       1 RES1    0.0000
     31 C31        0.1698   -4.9242    7.1640 C.2       1 RES1    0.0000
     32 C32       -0.4749   -4.0410    8.1059 C.2       1 RES1    0.0000
     33 C33       -0.1731   -4.3332    9.3683 C.2       1 RES1    0.0000
     34 C34        0.8716   -5.4585    9.4376 C.3       1 RES1    0.0000
     35 C35        2.2754   -4.8894    9.6838 C.3       1 RES1    0.0000
     36 H1         0.7127   -6.0408    4.2448 H         1 RES1    0.0000
     37 H2         1.8448   -3.6681   11.2952 H         1 RES1    0.0000
     38 H3         3.4253   -4.0694   11.1924 H         1 RES1    0.0000
     39 H4         2.0665   -5.3495    4.8425 H         1 RES1    0.0000
     40 H5         2.3774   -5.1598   13.0548 H         1 RES1    0.0000
     41 H6         2.9500   -6.2524   11.9850 H         1 RES1    0.0000
     42 H7         1.3607   -7.2206   10.3485 H         1 RES1    0.0000
     43 H8        -0.6775   -8.0123    9.7854 H         1 RES1    0.0000
     44 H9        -1.4552   -6.7430   10.4573 H         1 RES1    0.0000
     45 H10       -0.5654   -9.0416   11.7841 H         1 RES1    0.0000
     46 H11       -1.4468   -7.8291   12.4308 H         1 RES1    0.0000
     47 H12        1.4026   -8.1017   12.3508 H         1 RES1    0.0000
     48 H13        0.0262   -4.9439   13.5079 H         1 RES1    0.0000
     49 H14       -0.1568   -4.3027   12.0172 H         1 RES1    0.0000
     50 H15       -1.0952   -5.5523   12.4894 H         1 RES1    0.0000
     51 H16        0.1252   -3.7815    4.0715 H         1 RES1    0.0000
     52 H17       -1.1330   -3.5940    5.0947 H         1 RES1    0.0000
     53 H18        0.2671   -2.8001    5.3685 H         1 RES1    0.0000
     54 H19       -0.3083   -7.1836   14.4702 H         1 RES1    0.0000
     55 H20        2.2426   -7.5521    5.4522 H         1 RES1    0.0000
     56 H21        1.5448   -7.3144   15.9393 H         1 RES1    0.0000
     57 H22        2.5221   -7.6699   14.6806 H         1 RES1    0.0000
     58 H23        1.8199   -6.1978   14.7798 H         1 RES1    0.0000
     59 H24        1.0273   -9.7743   14.3088 H         1 RES1    0.0000
     60 H25        0.6731   -7.6306    5.8980 H         1 RES1    0.0000
     61 H26       -1.5852   -9.0809   15.1480 H         1 RES1    0.0000
     62 H27       -0.2127  -11.6215   14.8886 H         1 RES1    0.0000
     63 H28       -1.5010  -12.5243   16.5334 H         1 RES1    0.0000
     64 H29        0.5232  -11.5452   17.1466 H         1 RES1    0.0000
     65 H30       -0.2639  -10.1669   17.5268 H         1 RES1    0.0000
     66 H31       -0.5496  -11.5321   18.3779 H         1 RES1    0.0000
     67 H32       -3.0291  -11.2922   17.7790 H         1 RES1    0.0000
     68 H33       -2.8294  -10.0469   16.7414 H         1 RES1    0.0000
     69 H34       -3.4601  -11.4579   16.2130 H         1 RES1    0.0000
     70 H35       -2.2596  -12.6203   14.1653 H         1 RES1    0.0000
     71 H36       -2.9555  -11.1417   14.1642 H         1 RES1    0.0000
     72 H37       -1.7369  -11.4710   13.1278 H         1 RES1    0.0000
     73 H38        2.6739   -6.1062    7.3134 H         1 RES1    0.0000
     74 H39        1.7162   -9.5868    9.7998 H         1 RES1    0.0000
     75 H40        3.9343  -12.9649   10.7095 H         1 RES1    0.0000
     76 H41        5.3032  -10.3065    7.8406 H         1 RES1    0.0000
     77 H42       -0.0050   -6.7474    8.0497 H         1 RES1    0.0000
     78 H43       -1.0818   -3.2930    7.8394 H         1 RES1    0.0000
     79 H44       -0.5722   -3.8796   10.1644 H         1 RES1    0.0000
     80 H45        2.4178   -4.1174    9.0634 H         1 RES1    0.0000
     81 H46        2.9465   -5.6025    9.4866 H         1 RES1    0.0000
     82 N1         1.7045  -11.7327   11.3251 N.pl3     1 RES1    0.0000
     83 N2         5.9177  -12.5810    9.0192 N.pl3     1 RES1    0.0000
     84 O1         6.7717  -12.1645    8.2805 O.2       1 RES1    0.0000
     85 O2         5.9440  -13.6562    9.5858 O.2       1 RES1    0.0000
     86 O3         4.2203   -8.1191    7.1675 O.2       1 RES1    0.0000
     87 O4         2.1665   -7.9577    8.0462 O.3       1 RES1    0.0000
     88 O5         1.9282  -12.7162   11.9826 O.2       1 RES1    0.0000
     89 O6         0.6725  -11.1025   11.3729 O.2       1 RES1    0.0000
@<TRIPOS>BOND
     1    1    2 1
     2    2   11 1
     3    3    4 1
     4    4    5 1
     5    5    6 1
     6    6    7 1
     7    7    8 1
     8    8    9 1
     9    9    5 1
    10   10    5 1
    11   11   51 1
    12   12    1 1
    13   13    9 1
    14   14   13 1
    15   15   13 1
    16   16   15 2
    17   17   16 1
    18   18   17 1
    19   19   18 1
    20   20   18 1
    21   21   17 1
    22   22   12 1
    23   23   24 ar
    24   24   25 ar
    25   25   26 ar
    26   26   27 ar
    27   27   28 ar
    28   28   23 ar
    29   29   23 1
    30   30   22 1
    31   31    2 2
    32   32   31 1
    33   33   32 2
    34   34    6 1
    35   35    3 1
    36   36    1 1
    37   37    3 1
    38   38    3 1
    39   39    1 1
    40   40    4 1
    41   41    4 1
    42   42    6 1
    43   43    7 1
    44   44    7 1
    45   45    8 1
    46   46    8 1
    47   47    9 1
    48   48   10 1
    49   49   10 1
    50   50   10 1
    51   52   11 1
    52   53   11 1
    53   54   13 1
    54   55   12 1
    55   56   14 1
    56   57   14 1
    57   58   14 1
    58   59   15 1
    59   60   12 1
    60   61   16 1
    61   62   17 1
    62   63   18 1
    63   64   19 1
    64   65   19 1
    65   66   19 1
    66   67   20 1
    67   68   20 1
    68   69   20 1
    69   70   21 1
    70   71   21 1
    71   72   21 1
    72   73   22 1
    73   74   24 1
    74   75   26 1
    75   76   28 1
    76   77   30 1
    77   78   32 1
    78   79   33 1
    79   80   35 1
    80   81   35 1
    81   82   25 1
    82   83   27 1
    83   84   83 2
    84   85   83 2
    85   86   29 2
    86   87   22 1
    87   88   82 2
    88   89   82 2
    89   29   87 1
    90   30   31 1
    91   30   34 1
    92   33   34 1
    93   34   35 1
@<TRIPOS>SUBSTRUCTURE
     1 RES1 1

@<TRIPOS>CRYSIN
   6.3580   21.8080   12.2590  90.0000 102.8100  90.0000   4 1

