# MOL2 file generated by ConQuest
# Please check atom types

@<TRIPOS>MOLECULE
TOXXIN
    17    18     1
SMALL
NO_CHARGES
****
Generated from CSD

@<TRIPOS>ATOM
      1 N1         0.1026    5.9661    6.4865 N.am      1 RES1    0.0000
      2 C1         3.1992    5.0999    4.6105 C.2       1 RES1    0.0000
      3 N2        -0.4775    6.1526    7.7773 N.3       1 RES1    0.0000
      4 O1         2.0054    5.6312    2.8598 O.3       1 RES1    0.0000
      5 O2         1.9689    5.0151    7.3214 O.2       1 RES1    0.0000
      6 C2         3.2335    5.2652    3.2975 C.2       1 RES1    0.0000
      7 C3         1.8778    5.4037    4.9907 C.2       1 RES1    0.0000
      8 C4        -2.4956    5.3627   10.2935 C.ar      1 RES1    0.0000
      9 C5        -1.0436    4.8837    8.2999 C.3       1 RES1    0.0000
     10 N3         1.1474    5.7443    3.9755 N.2       1 RES1    0.0000
     11 C6         1.3283    5.4362    6.3703 C.2       1 RES1    0.0000
     12 C7        -1.2506    5.0335    9.7644 C.ar      1 RES1    0.0000
     13 C8        -2.6515    5.5309   11.6457 C.ar      1 RES1    0.0000
     14 C9         4.2765    5.1465    2.2366 C.3       1 RES1    0.0000
     15 C10       -0.2292    4.8611   10.6476 C.ar      1 RES1    0.0000
     16 C11       -1.6335    5.3684   12.5119 C.ar      1 RES1    0.0000
     17 C12       -0.3932    5.0434   12.0102 C.ar      1 RES1    0.0000
@<TRIPOS>BOND
     1    1    3 1
     2    2    6 2
     3    3    9 1
     4    4    6 1
     5    5   11 2
     6    6   14 1
     7    7    2 1
     8    8   12 ar
     9    9   12 1
    10   10    4 1
    11   11    1 1
    12   12   15 ar
    13   13    8 ar
    14   15   17 ar
    15   16   13 ar
    16   17   16 ar
    17    7   10 2
    18    7   11 1
@<TRIPOS>SUBSTRUCTURE
     1 RES1 1

@<TRIPOS>CRYSIN
   6.3760   14.1310   13.2560  90.0000  99.7500  90.0000  14 1

