# MOL2 file generated by ConQuest
# Please check atom types

@<TRIPOS>MOLECULE
TOXYAI
    27    30     1
SMALL
USER_CHARGES
****
Generated from CSD

@<TRIPOS>ATOM
      1 C1         2.5038    7.8362   -2.2323 C.ar      1 RES1    0.0000
      2 H1         2.7591    7.9392   -3.1204 H         1 RES1    0.0000
      3 C2         2.3575    8.9568   -1.4405 C.ar      1 RES1    0.0000
      4 H2         2.4937    9.7971   -1.8153 H         1 RES1    0.0000
      5 C3         2.0183    8.8669   -0.1249 C.ar      1 RES1    0.0000
      6 H3         1.9288    9.6162    0.4177 H         1 RES1    0.0000
      7 C4         1.8198    7.6022    0.3407 C.ar      1 RES1    0.0000
      8 C5         1.9357    6.4448   -0.4348 C.ar      1 RES1    0.0000
      9 C6         1.6407    5.3276    0.4289 C.ar      1 RES1    0.0000
     10 C7         1.3789    5.9188    1.6564 C.ar      1 RES1    0.0000
     11 C8         1.0532    5.2397    2.8243 C.ar      1 RES1    0.0000
     12 H4         0.8873    5.6916    3.6201 H         1 RES1    0.0000
     13 C9         0.9892    3.8950    2.7498 C.ar      1 RES1    0.0000
     14 H5         0.7817    3.4100    3.5160 H         1 RES1    0.0000
     15 C10        1.2269    3.2029    1.5436 C.ar      1 RES1    0.0000
     16 C11        1.1349    1.7881    1.5122 C.ar      1 RES1    0.0000
     17 H6         0.9167    1.3234    2.2876 H         1 RES1    0.0000
     18 C12        1.3622    1.1088    0.3631 C.ar      1 RES1    0.0000
     19 H7         1.3143    0.1797    0.3592 H         1 RES1    0.0000
     20 C13        1.6651    1.7866   -0.8094 C.ar      1 RES1    0.0000
     21 H8         1.8074    1.3071   -1.5928 H         1 RES1    0.0000
     22 C14        1.7581    3.1472   -0.8275 C.ar      1 RES1    0.0000
     23 H9         1.9592    3.5839   -1.6240 H         1 RES1    0.0000
     24 C15        1.5532    3.8960    0.3454 C.ar      1 RES1    0.0000
     25 N1         2.2826    6.5779   -1.7454 N.pl3     1 RES1    1.0000
     26 O1         2.4011    5.5536   -2.5236 O.2       1 RES1   -1.0000
     27 O2         1.4754    7.2875    1.6226 O.3       1 RES1    0.0000
@<TRIPOS>BOND
     1    1    2 1
     2    3    1 ar
     3    4    3 1
     4    5    3 ar
     5    6    5 1
     6    7    5 ar
     7    8    7 ar
     8    9    8 1
     9   10    9 ar
    10   11   10 ar
    11   12   11 1
    12   13   11 ar
    13   14   13 1
    14   15   13 ar
    15   16   15 ar
    16   17   16 1
    17   18   16 ar
    18   19   18 1
    19   20   18 ar
    20   21   20 1
    21   22   20 ar
    22   23   22 1
    23   24    9 ar
    24   25    1 ar
    25   26   25 1
    26   27    7 1
    27    8   25 ar
    28   10   27 1
    29   15   24 ar
    30   22   24 ar
@<TRIPOS>SUBSTRUCTURE
     1 RES1 1

@<TRIPOS>CRYSIN
   7.1088   11.6702   14.3646  90.0000 115.0570  90.0000  14 1

