# MOL2 file generated by ConQuest
# Please check atom types

@<TRIPOS>MOLECULE
TOYBAK
    17    17     1
SMALL
NO_CHARGES
****
Generated from CSD

@<TRIPOS>ATOM
      1 C1         4.6051    5.2449    2.2592 C.3       1 RES1    0.0000
      2 C2         3.2814    5.6719    2.8181 C.2       1 RES1    0.0000
      3 N1         2.7963    5.1065    3.8582 N.2       1 RES1    0.0000
      4 O1        -2.1074    6.5155    6.1101 O.3       1 RES1    0.0000
      5 C3         2.5505    6.7290    2.0362 C.2       1 RES1    0.0000
      6 N2         2.8289    7.9788    2.0465 N.2       1 RES1    0.0000
      7 O2         3.8591    8.2580    2.9369 O.3       1 RES1    0.0000
      8 C4         1.4444    6.2731    1.1472 C.2       1 RES1    0.0000
      9 O3         1.2001    5.0811    1.1032 O.2       1 RES1    0.0000
     10 C5         0.6998    7.2621    0.3389 C.3       1 RES1    0.0000
     11 C6         1.5652    5.5357    4.4142 C.ar      1 RES1    0.0000
     12 C7         0.5892    4.5791    4.7003 C.ar      1 RES1    0.0000
     13 C8        -0.6080    4.9310    5.2665 C.ar      1 RES1    0.0000
     14 C9        -0.8798    6.2720    5.5658 C.ar      1 RES1    0.0000
     15 C10        0.0846    7.2344    5.3076 C.ar      1 RES1    0.0000
     16 C11        1.2933    6.8663    4.7457 C.ar      1 RES1    0.0000
     17 C12       -2.4761    7.8599    6.3521 C.3       1 RES1    0.0000
@<TRIPOS>BOND
     1    1    2 1
     2    2    3 2
     3    3   11 1
     4    4   14 1
     5    5    2 1
     6    6    5 2
     7    7    6 1
     8    8    5 1
     9    9    8 2
    10   10    8 1
    11   11   12 ar
    12   12   13 ar
    13   13   14 ar
    14   14   15 ar
    15   15   16 ar
    16   16   11 ar
    17   17    4 1
@<TRIPOS>SUBSTRUCTURE
     1 RES1 1

@<TRIPOS>CRYSIN
   7.2294   11.5400   14.6700  90.0000  90.0000  90.0000  19 1

