# MOL2 file generated by ConQuest
# Please check atom types

@<TRIPOS>MOLECULE
TOYGIZ
    40    40     2
SMALL
NO_CHARGES
****
Generated from CSD

@<TRIPOS>ATOM
      1 C1         0.4831    8.1402    5.0007 C.ar      1 RES1    0.0000
      2 N1         3.2405    9.1113    1.9746 N.pl3     1 RES1    0.0000
      3 C2         0.0157    8.3610    3.7068 C.ar      1 RES1    0.0000
      4 H1        -0.9179    8.3036    3.5385 H         1 RES1    0.0000
      5 C3         2.2274    8.7599    2.9893 C.ar      1 RES1    0.0000
      6 O1        -1.7173    7.8743    5.8240 O.3       1 RES1    0.0000
      7 H2        -2.1546    7.6839    6.5155 H         1 RES1    0.0000
      8 O2        -0.0256    7.5451    7.2322 O.2       1 RES1    0.0000
      9 C4         0.8729    8.6624    2.6521 C.ar      1 RES1    0.0000
     10 C5        -0.4806    7.8305    6.0822 C.2       1 RES1    0.0000
     11 C6         2.7158    8.5440    4.2741 C.ar      1 RES1    0.0000
     12 H3         3.6450    8.6208    4.4542 H         1 RES1    0.0000
     13 C7         1.8350    8.2163    5.2821 C.ar      1 RES1    0.0000
     14 H4         2.1528    8.0445    6.1614 H         1 RES1    0.0000
     15 O3         2.9408    9.0163    0.8006 O.2       1 RES1    0.0000
     16 O4         4.3403    9.4612    2.3651 O.2       1 RES1    0.0000
     17 C8         0.2790    8.8836    1.2940 C.3       1 RES1    0.0000
     18 H5         0.5798    8.1761    0.6856 H         1 RES1    0.0000
     19 H6         0.5682    9.7546    0.9490 H         1 RES1    0.0000
     20 H7        -0.6985    8.8655    1.3576 H         1 RES1    0.0000
     21 C9         2.3042    4.6678    5.1831 C.ar      2 RES2    0.0000
     22 C10        1.8461    4.9173    3.8939 C.ar      2 RES2    0.0000
     23 H8         0.9154    4.8629    3.7111 H         2 RES2    0.0000
     24 N2         5.0787    5.7082    2.2229 N.pl3     2 RES2    0.0000
     25 C11        2.7271    5.2452    2.8629 C.ar      2 RES2    0.0000
     26 C12        4.5552    5.0343    4.4844 C.ar      2 RES2    0.0000
     27 H9         5.4877    5.0642    4.6661 H         2 RES2    0.0000
     28 O5         0.0943    4.3967    6.0002 O.3       2 RES2    0.0000
     29 H10       -0.3441    4.1920    6.6866 H         2 RES2    0.0000
     30 C13        4.0691    5.3097    3.2143 C.ar      2 RES2    0.0000
     31 C14        1.3260    4.3370    6.2545 C.2       2 RES2    0.0000
     32 O6         1.7852    4.0103    7.3881 O.2       2 RES2    0.0000
     33 C15        3.6506    4.7128    5.4833 C.ar      2 RES2    0.0000
     34 H11        3.9530    4.5257    6.3642 H         2 RES2    0.0000
     35 C16        2.1938    5.4512    1.4703 C.3       2 RES2    0.0000
     36 H12        2.2391    6.4030    1.2411 H         2 RES2    0.0000
     37 H13        1.2620    5.1497    1.4287 H         2 RES2    0.0000
     38 H14        2.7324    4.9360    0.8339 H         2 RES2    0.0000
     39 O7         6.1331    5.0796    2.1979 O.2       2 RES2    0.0000
     40 O8         4.8452    6.6582    1.5132 O.2       2 RES2    0.0000
@<TRIPOS>BOND
     1    1    3 ar
     2    2    5 1
     3    3    4 1
     4    5    9 ar
     5    6    7 1
     6    8   10 2
     7    9    3 ar
     8   10    1 1
     9   11    5 ar
    10   12   11 1
    11   13    1 ar
    12   14   13 1
    13   15    2 2
    14   16    2 2
    15   17    9 1
    16   18   17 1
    17   19   17 1
    18   20   17 1
    19   21   22 ar
    20   22   23 1
    21   24   30 1
    22   25   22 ar
    23   26   27 1
    24   28   29 1
    25   30   25 ar
    26   31   21 1
    27   32   31 2
    28   33   21 ar
    29   34   33 1
    30   35   25 1
    31   36   35 1
    32   37   35 1
    33   38   35 1
    34   39   24 2
    35   40   24 2
    36    6   10 1
    37   11   13 ar
    38   26   30 ar
    39   26   33 ar
    40   28   31 1
@<TRIPOS>SUBSTRUCTURE
     1 RES1 1
     2 RES2 21

@<TRIPOS>CRYSIN
   7.4630    7.7470   15.4350  94.5200  97.0400 117.6800   2 1

