# MOL2 file generated by ConQuest
# Please check atom types

@<TRIPOS>MOLECULE
TOYHIA
    35    37     1
SMALL
NO_CHARGES
****
Generated from CSD

@<TRIPOS>ATOM
      1 C1         2.2626    6.9277    5.6125 C.2       1 RES1    0.0000
      2 C2         0.9519    7.6217    5.5086 C.3       1 RES1    0.0000
      3 H1         0.6719    7.9448    6.3788 H         1 RES1    0.0000
      4 H2         0.2745    7.0129    5.1723 H         1 RES1    0.0000
      5 C3         1.1486    8.7948    4.5368 C.3       1 RES1    0.0000
      6 H3         0.3381    9.3264    4.5041 H         1 RES1    0.0000
      7 H4         1.8677    9.3615    4.8564 H         1 RES1    0.0000
      8 C4         1.4818    8.2935    3.1386 C.3       1 RES1    0.0000
      9 H5         0.6959    7.7926    2.8342 H         1 RES1    0.0000
     10 C5         1.6805    9.4373    2.1231 C.3       1 RES1    0.0000
     11 H6         1.9888    9.0571    1.2740 H         1 RES1    0.0000
     12 C6         2.6724   10.4573    2.5873 C.2       1 RES1    0.0000
     13 H7         2.3593   11.2979    2.8386 H         1 RES1    0.0000
     14 C7         3.9822   10.2232    2.6577 C.2       1 RES1    0.0000
     15 H8         4.5383   10.9209    2.9192 H         1 RES1    0.0000
     16 C8         4.6147    8.8979    2.3396 C.3       1 RES1    0.0000
     17 H9         4.4764    8.7035    1.3997 H         1 RES1    0.0000
     18 H10        5.5701    8.9634    2.4899 H         1 RES1    0.0000
     19 C9         4.0840    7.7739    3.1393 C.2       1 RES1    0.0000
     20 C10        2.6641    7.2916    3.1182 C.3       1 RES1    0.0000
     21 H11        2.5621    6.7507    2.3069 H         1 RES1    0.0000
     22 C11        2.7409    6.3128    4.2934 C.3       1 RES1    0.0000
     23 H12        2.1990    5.5214    4.0908 H         1 RES1    0.0000
     24 C12        0.2960   10.8938    0.8368 C.3       1 RES1    0.0000
     25 H13        0.9724   11.5836    0.9297 H         1 RES1    0.0000
     26 H14       -0.5716   11.3260    0.8469 H         1 RES1    0.0000
     27 C13       -0.5741    9.3568   -0.7191 C.3       1 RES1    0.0000
     28 H15       -0.4005    8.9494   -1.5711 H         1 RES1    0.0000
     29 H16       -1.4036    9.8392   -0.7576 H         1 RES1    0.0000
     30 H17       -0.6307    8.6754   -0.0450 H         1 RES1    0.0000
     31 N1         4.8746    7.0199    3.7872 N.2       1 RES1    0.0000
     32 O1         2.9556    6.8769    6.6003 O.2       1 RES1    0.0000
     33 O2         4.1076    5.9405    4.3566 O.3       1 RES1    0.0000
     34 O3         0.3824   10.0171    1.9299 O.3       1 RES1    0.0000
     35 O4         0.4700   10.2452   -0.4024 O.3       1 RES1    0.0000
@<TRIPOS>BOND
     1    1    2 1
     2    2    3 1
     3    4    2 1
     4    5    2 1
     5    6    5 1
     6    7    5 1
     7    8    5 1
     8    9    8 1
     9   10    8 1
    10   11   10 1
    11   12   10 1
    12   13   12 1
    13   14   12 2
    14   15   14 1
    15   16   14 1
    16   17   16 1
    17   18   16 1
    18   19   16 1
    19   20    8 1
    20   21   20 1
    21   22    1 1
    22   23   22 1
    23   24   25 1
    24   26   24 1
    25   27   28 1
    26   29   27 1
    27   30   27 1
    28   31   19 2
    29   32    1 2
    30   33   22 1
    31   34   10 1
    32   35   24 1
    33   19   20 1
    34   20   22 1
    35   24   34 1
    36   27   35 1
    37   31   33 1
@<TRIPOS>SUBSTRUCTURE
     1 RES1 1

@<TRIPOS>CRYSIN
   7.4735   23.4154    7.4325  90.0000 102.2420  90.0000   9 1

