# MOL2 file generated by ConQuest
# Please check atom types

@<TRIPOS>MOLECULE
TOYYIP
    40    42     1
SMALL
NO_CHARGES
****
Generated from CSD

@<TRIPOS>ATOM
      1 C1        -1.5893   -0.8284   14.1356 C.ar      1 RES1    0.0000
      2 C2        -1.3909   -0.0414   15.2280 C.ar      1 RES1    0.0000
      3 C3        -0.3538    0.8766   15.1947 C.ar      1 RES1    0.0000
      4 C4         0.4034    0.9057   14.0420 C.ar      1 RES1    0.0000
      5 C5         0.1430    0.0683   12.9874 C.ar      1 RES1    0.0000
      6 C6        -0.0385    1.7442   16.3944 C.3       1 RES1    0.0000
      7 C7        -1.2464    2.3980   17.0335 C.ar      1 RES1    0.0000
      8 C8        -1.6595    1.9446   18.2724 C.ar      1 RES1    0.0000
      9 C9        -2.7752    2.4394   18.9130 C.ar      1 RES1    0.0000
     10 C10       -3.4899    3.4223   18.2830 C.ar      1 RES1    0.0000
     11 C11       -3.1411    3.9104   17.0516 C.ar      1 RES1    0.0000
     12 C12       -2.0227    3.3820   16.4533 C.ar      1 RES1    0.0000
     13 C13        0.9935    0.0571   11.7666 C.ar      1 RES1    0.0000
     14 C14        2.8095    0.9292   10.6818 C.ar      1 RES1    0.0000
     15 C15        2.6916    0.0235    9.6529 C.ar      1 RES1    0.0000
     16 C16        1.6555   -0.8833    9.6544 C.ar      1 RES1    0.0000
     17 C17        0.7962   -0.8486   10.7513 C.ar      1 RES1    0.0000
     18 C18        1.4414   -1.8785    8.5424 C.3       1 RES1    0.0000
     19 N1        -0.8613   -0.8105   13.0206 N.ar      1 RES1    0.0000
     20 N2        -1.6833    3.9384   15.1283 N.pl3     1 RES1    0.0000
     21 N3        -4.6862    3.9641   18.9462 N.pl3     1 RES1    0.0000
     22 N4         1.9929    0.9628   11.7470 N.ar      1 RES1    0.0000
     23 O1        -0.5383    3.9216   14.7324 O.2       1 RES1    0.0000
     24 O2        -2.6320    4.3448   14.4635 O.2       1 RES1    0.0000
     25 O3        -5.4032    4.7008   18.2814 O.2       1 RES1    0.0000
     26 O4        -4.9022    3.6552   20.0930 O.2       1 RES1    0.0000
     27 H1        -2.3014   -1.4386   14.1281 H         1 RES1    0.0000
     28 H2        -1.8801   -0.1131   16.0499 H         1 RES1    0.0000
     29 H3         1.1220    1.5527   13.9468 H         1 RES1    0.0000
     30 H4         0.6298    2.3789   16.1647 H         1 RES1    0.0000
     31 H5         0.4128    1.2203   17.0743 H         1 RES1    0.0000
     32 H6        -1.1827    1.2191   18.6712 H         1 RES1    0.0000
     33 H7        -3.0390    2.0923   19.8271 H         1 RES1    0.0000
     34 H8        -3.6839    4.6202   16.6089 H         1 RES1    0.0000
     35 H9         3.5829    1.6042   10.6909 H         1 RES1    0.0000
     36 H10        3.3171    0.0985    8.8673 H         1 RES1    0.0000
     37 H11        0.0965   -1.4878   10.8420 H         1 RES1    0.0000
     38 H12        0.5729   -1.5819    7.8837 H         1 RES1    0.0000
     39 H13        1.4376   -2.6532    8.8567 H         1 RES1    0.0000
     40 H14        2.1710   -1.8875    8.0227 H         1 RES1    0.0000
@<TRIPOS>BOND
     1    1    2 ar
     2    2    3 ar
     3    3    4 ar
     4    4    5 ar
     5    5   13 1
     6    6    3 1
     7    7    6 1
     8    8    7 ar
     9    9    8 ar
    10   10    9 ar
    11   11   10 ar
    12   12    7 ar
    13   13   17 ar
    14   14   15 ar
    15   15   16 ar
    16   16   17 ar
    17   17   37 1
    18   18   16 1
    19   19    1 ar
    20   20   12 1
    21   21   10 1
    22   22   13 ar
    23   23   20 2
    24   24   20 2
    25   25   21 2
    26   26   21 2
    27   27    1 1
    28   28    2 1
    29   29    4 1
    30   30    6 1
    31   31    6 1
    32   32    8 1
    33   33    9 1
    34   34   11 1
    35   35   14 1
    36   36   15 1
    37   38   18 1
    38   39   18 1
    39   40   18 1
    40    5   19 ar
    41   11   12 ar
    42   14   22 ar
@<TRIPOS>SUBSTRUCTURE
     1 RES1 1

@<TRIPOS>CRYSIN
   9.9410   11.1950   15.4630  90.0000 102.2900  90.0000  14 1

