# MOL2 file generated by ConQuest
# Please check atom types

@<TRIPOS>MOLECULE
TOYYEL
    62    64     2
SMALL
NO_CHARGES
****
Generated from CSD

@<TRIPOS>ATOM
      1 C1        -1.3868    8.3203    2.5030 C.ar      1 RES1    0.0000
      2 C2        -1.6144    8.7931    3.7569 C.ar      1 RES1    0.0000
      3 C3        -0.7136    8.4589    4.7342 C.ar      1 RES1    0.0000
      4 C4         0.3727    7.6860    4.3926 C.ar      1 RES1    0.0000
      5 C5         0.5233    7.2348    3.0882 C.ar      1 RES1    0.0000
      6 C6         1.6819    6.3404    2.6689 C.3       1 RES1    0.0000
      7 C7         2.5874    7.0331    1.6480 C.ar      1 RES1    0.0000
      8 C8         2.2359    7.1030    0.3047 C.ar      1 RES1    0.0000
      9 C9         2.9938    7.7394   -0.6600 C.ar      1 RES1    0.0000
     10 C10        4.1798    8.3076   -0.2853 C.ar      1 RES1    0.0000
     11 C11        4.6383    8.2514    1.0103 C.ar      1 RES1    0.0000
     12 C12        3.8089    7.6371    1.9459 C.ar      1 RES1    0.0000
     13 C13        1.1428    4.9914    2.1361 C.3       1 RES1    0.0000
     14 N1        -0.3498    7.5469    2.1361 N.ar      1 RES1    0.0000
     15 N2         4.3375    7.6287    3.3454 N.pl3     1 RES1    0.0000
     16 N3         5.0324    9.0131   -1.2957 N.pl3     1 RES1    0.0000
     17 O1         3.5591    7.9185    4.2509 O.2       1 RES1    0.0000
     18 O2         5.5197    7.3780    3.4784 O.2       1 RES1    0.0000
     19 O3         6.1171    9.4377   -0.9356 O.2       1 RES1    0.0000
     20 O4         4.5677    9.1697   -2.4050 O.2       1 RES1    0.0000
     21 C14        7.7705    1.9872   -0.7716 C.ar      2 RES2    0.0000
     22 C15        9.0422    2.5053   -0.6561 C.ar      2 RES2    0.0000
     23 C16        9.7969    2.1363    0.4067 C.ar      2 RES2    0.0000
     24 C17        9.2700    1.2765    1.3306 C.ar      2 RES2    0.0000
     25 C18        7.9813    0.7877    1.1734 C.ar      2 RES2    0.0000
     26 C19        7.3605   -0.1971    2.1575 C.3       2 RES2    0.0000
     27 C20        6.1402    0.4110    2.8504 C.ar      2 RES2    0.0000
     28 C21        4.9010    0.4188    2.1973 C.ar      2 RES2    0.0000
     29 C22        3.7633    0.9304    2.7835 C.ar      2 RES2    0.0000
     30 C23        3.8344    1.4717    4.0452 C.ar      2 RES2    0.0000
     31 C24        5.0067    1.4916    4.7342 C.ar      2 RES2    0.0000
     32 C25        6.1408    0.9742    4.1276 C.ar      2 RES2    0.0000
     33 C26        7.0305   -1.5159    1.4471 C.3       2 RES2    0.0000
     34 N4         7.2223    1.1440    0.1339 N.ar      2 RES2    0.0000
     35 N5         7.3755    1.0372    4.9448 N.pl3     2 RES2    0.0000
     36 N6         2.6074    2.0089    4.6896 N.pl3     2 RES2    0.0000
     37 O5         8.4402    1.2528    4.3926 O.2       2 RES2    0.0000
     38 O6         7.2364    0.8900    6.1599 O.2       2 RES2    0.0000
     39 O7         2.6837    2.3575    5.8668 O.2       2 RES2    0.0000
     40 O8         1.5854    2.0274    4.0306 O.2       2 RES2    0.0000
     41 H1        -1.8949    8.4794    1.7955 H         1 RES1    0.0000
     42 H2        -2.3597    9.3147    4.0287 H         1 RES1    0.0000
     43 H3        -0.8054    8.8121    5.6038 H         1 RES1    0.0000
     44 H4         0.9768    7.4460    4.9594 H         1 RES1    0.0000
     45 H5         2.1588    6.0733    3.4017 H         1 RES1    0.0000
     46 H6         1.4860    6.6896    0.0359 H         1 RES1    0.0000
     47 H7         2.7494    7.8549   -1.5490 H         1 RES1    0.0000
     48 H8         5.4733    8.6993    1.3092 H         1 RES1    0.0000
     49 H9         0.7057    4.5235    2.8999 H         1 RES1    0.0000
     50 H10        1.8502    4.4437    1.8527 H         1 RES1    0.0000
     51 H11        0.5205    5.1262    1.3335 H         1 RES1    0.0000
     52 H12        7.1726    2.2599   -1.4723 H         2 RES2    0.0000
     53 H13        9.2959    3.0020   -1.3384 H         2 RES2    0.0000
     54 H14       10.7297    2.4619    0.5047 H         2 RES2    0.0000
     55 H15        9.7673    0.8961    2.0866 H         2 RES2    0.0000
     56 H16        7.9698   -0.4722    2.8165 H         2 RES2    0.0000
     57 H17        4.8334   -0.0178    1.3296 H         2 RES2    0.0000
     58 H18        2.9264    0.9493    2.3331 H         2 RES2    0.0000
     59 H19        5.0382    1.8367    5.5747 H         2 RES2    0.0000
     60 H20        6.5045   -1.3450    0.6706 H         2 RES2    0.0000
     61 H21        6.5754   -2.1143    2.0148 H         2 RES2    0.0000
     62 H22        7.8875   -1.8733    1.0928 H         2 RES2    0.0000
@<TRIPOS>BOND
     1    1    2 ar
     2    2    3 ar
     3    3    4 ar
     4    4    5 ar
     5    5    6 1
     6    6    7 1
     7    7    8 ar
     8    8    9 ar
     9    9   10 ar
    10   10   11 ar
    11   11   12 ar
    12   12    7 ar
    13   13    6 1
    14   14    1 ar
    15   15   12 1
    16   16   10 1
    17   17   15 2
    18   18   15 2
    19   19   16 2
    20   20   16 2
    21   21   22 ar
    22   22   23 ar
    23   23   24 ar
    24   24   25 ar
    25   25   26 1
    26   26   27 1
    27   27   28 ar
    28   28   29 ar
    29   29   30 ar
    30   30   31 ar
    31   31   32 ar
    32   32   27 ar
    33   33   26 1
    34   34   21 ar
    35   35   32 1
    36   36   30 1
    37   37   35 2
    38   38   35 2
    39   39   36 2
    40   40   36 2
    41   41    1 1
    42   42    2 1
    43   43    3 1
    44   44    4 1
    45   45    6 1
    46   46    8 1
    47   47    9 1
    48   48   11 1
    49   49   13 1
    50   50   13 1
    51   51   13 1
    52   52   21 1
    53   53   22 1
    54   54   23 1
    55   55   24 1
    56   56   26 1
    57   57   28 1
    58   58   29 1
    59   59   31 1
    60   60   33 1
    61   61   33 1
    62   62   33 1
    63    5   14 ar
    64   25   34 ar
@<TRIPOS>SUBSTRUCTURE
     1 RES1 1
     2 RES2 21

@<TRIPOS>CRYSIN
  10.2140   13.2210   10.0680  92.1200 105.2900  89.5500   2 1

