# MOL2 file generated by ConQuest
# Please check atom types

@<TRIPOS>MOLECULE
TPNITR
    36    38     1
SMALL
NO_CHARGES
****
Generated from CSD

@<TRIPOS>ATOM
      1 C1         3.6834    2.3334    4.0877 C.2       1 RES1    0.0000
      2 C2         2.2468    2.4975    3.7439 C.ar      1 RES1    0.0000
      3 C3         1.8649    3.5964    3.0017 C.ar      1 RES1    0.0000
      4 C4         0.5443    3.7764    2.6287 C.ar      1 RES1    0.0000
      5 C5        -0.4033    2.8390    2.9780 C.ar      1 RES1    0.0000
      6 C6        -0.0339    1.7534    3.7130 C.ar      1 RES1    0.0000
      7 C7         1.2903    1.5716    4.0968 C.ar      1 RES1    0.0000
      8 C8         3.1016    2.3414    6.4582 C.ar      1 RES1    0.0000
      9 C9         2.5234    3.5582    6.7365 C.ar      1 RES1    0.0000
     10 C10        1.6775    3.6310    7.8335 C.ar      1 RES1    0.0000
     11 C11        1.4330    2.5374    8.6212 C.ar      1 RES1    0.0000
     12 C12        2.0309    1.3472    8.3283 C.ar      1 RES1    0.0000
     13 C13        2.8803    1.2355    7.2368 C.ar      1 RES1    0.0000
     14 C14        4.6703    2.3015    3.0071 C.ar      1 RES1    0.0000
     15 C15        4.2973    1.7889    1.7846 C.ar      1 RES1    0.0000
     16 C16        5.1753    1.7747    0.7259 C.ar      1 RES1    0.0000
     17 C17        6.4567    2.2722    0.8605 C.ar      1 RES1    0.0000
     18 C18        6.8332    2.7920    2.0721 C.ar      1 RES1    0.0000
     19 C19        5.9659    2.7946    3.1308 C.ar      1 RES1    0.0000
     20 H1         2.5252    4.2926    2.7597 H         1 RES1    0.0000
     21 H2         0.3373    4.6234    2.1357 H         1 RES1    0.0000
     22 H3        -1.3402    3.0013    2.6851 H         1 RES1    0.0000
     23 H4        -0.6532    1.1547    3.9131 H         1 RES1    0.0000
     24 H5         1.5776    0.8177    4.6244 H         1 RES1    0.0000
     25 H6         2.6591    4.3352    6.1634 H         1 RES1    0.0000
     26 H7         1.2421    4.4904    8.0281 H         1 RES1    0.0000
     27 H8         0.8388    2.6642    9.4071 H         1 RES1    0.0000
     28 H9         1.8399    0.6341    9.0069 H         1 RES1    0.0000
     29 H10        3.3158    0.3911    7.0130 H         1 RES1    0.0000
     30 H11        3.3800    1.4164    1.7064 H         1 RES1    0.0000
     31 H12        4.9469    1.4261   -0.0182 H         1 RES1    0.0000
     32 H13        7.1384    2.2492   -0.0200 H         1 RES1    0.0000
     33 H14        7.7630    3.1316    2.2103 H         1 RES1    0.0000
     34 H15        6.2175    3.1538    3.8785 H         1 RES1    0.0000
     35 N1         4.0528    2.2332    5.3575 N.pl3     1 RES1    0.0000
     36 O1         5.2717    2.0479    5.7687 O.2       1 RES1    0.0000
@<TRIPOS>BOND
     1    1    2 1
     2    2    3 ar
     3    3    4 ar
     4    4    5 ar
     5    5    6 ar
     6    6    7 ar
     7    7    2 ar
     8    8    9 ar
     9    9   10 ar
    10   10   11 ar
    11   11   12 ar
    12   12   13 ar
    13   13    8 ar
    14   14    1 1
    15   15   14 ar
    16   16   15 ar
    17   17   16 ar
    18   18   17 ar
    19   19   14 ar
    20   20    3 1
    21   21    4 1
    22   22    5 1
    23   23    6 1
    24   24    7 1
    25   25    9 1
    26   26   10 1
    27   27   11 1
    28   28   12 1
    29   29   13 1
    30   30   15 1
    31   31   16 1
    32   32   17 1
    33   33   18 1
    34   34   19 1
    35   35    1 2
    36   36   35 1
    37    8   35 1
    38   18   19 ar
@<TRIPOS>SUBSTRUCTURE
     1 RES1 1

@<TRIPOS>CRYSIN
  17.8460    8.8690   18.1920  90.0000  90.0000  90.0000  61 1

