# MOL2 file generated by ConQuest
# Please check atom types

@<TRIPOS>MOLECULE
TRCHST
    62    62     2
SMALL
NO_CHARGES
****
Generated from CSD

@<TRIPOS>ATOM
      1 O1         6.5392    4.4488   -7.1767 O.3       1 RES1    0.0000
      2 O2         5.7004    4.8690   -4.6252 O.2       1 RES1    0.0000
      3 O3         6.4776    0.5886    0.8543 O.2       1 RES1    0.0000
      4 N1         6.2937    3.4058   -6.2847 N.am      1 RES1    0.0000
      5 N2         5.6565   -5.5373    2.3943 N.3       1 RES1    0.0000
      6 C1         5.4674   -1.5334    1.1611 C.ar      1 RES1    0.0000
      7 C2         4.3340   -2.3144    1.2240 C.ar      1 RES1    0.0000
      8 C3         4.3518   -3.6249    1.6251 C.ar      1 RES1    0.0000
      9 C4         5.5865   -4.2243    1.9924 C.ar      1 RES1    0.0000
     10 C5         6.7283   -3.4219    1.9625 C.ar      1 RES1    0.0000
     11 C6         6.6635   -2.1121    1.5952 C.ar      1 RES1    0.0000
     12 C7         5.4915   -0.1189    0.7347 C.2       1 RES1    0.0000
     13 C8         4.2087    0.4474    0.0882 C.3       1 RES1    0.0000
     14 C9         4.5033    1.5458   -0.8896 C.2       1 RES1    0.0000
     15 C10        5.0851    1.3531   -2.1051 C.2       1 RES1    0.0000
     16 C11        5.2533    2.5439   -2.9564 C.2       1 RES1    0.0000
     17 C12        5.7996    2.5030   -4.1911 C.2       1 RES1    0.0000
     18 C13        5.9166    3.7100   -5.0102 C.2       1 RES1    0.0000
     19 C14        3.2915    0.9671    1.2178 C.3       1 RES1    0.0000
     20 C15        5.5604    0.0074   -2.5944 C.3       1 RES1    0.0000
     21 C16        6.9591   -6.2060    2.4357 C.3       1 RES1    0.0000
     22 C17        4.4678   -6.3633    2.4012 C.3       1 RES1    0.0000
     23 H1         3.3845   -2.0226    0.9740 H         1 RES1    0.0000
     24 H2         3.3323   -3.9626    1.7255 H         1 RES1    0.0000
     25 H3         7.8241   -3.7149    2.2700 H         1 RES1    0.0000
     26 H4         7.3331   -1.6098    1.6028 H         1 RES1    0.0000
     27 H5         3.4158   -0.3715   -0.3604 H         1 RES1    0.0000
     28 H6         4.3455    2.6417   -0.6672 H         1 RES1    0.0000
     29 H7         4.9514    3.5085   -2.4617 H         1 RES1    0.0000
     30 H8         6.1005    1.4447   -4.4250 H         1 RES1    0.0000
     31 H9         6.4765    2.3941   -6.3499 H         1 RES1    0.0000
     32 O4         3.6154    5.6975   -3.2754 O.3       2 RES2    0.0000
     33 O5         4.3581    5.2331   -0.7186 O.2       2 RES2    0.0000
     34 O6         3.9778    9.6716    4.7655 O.2       2 RES2    0.0000
     35 N3         3.9705    6.7224   -2.3989 N.am      2 RES2    0.0000
     36 N4         5.5301   15.7740    5.7993 N.3       2 RES2    0.0000
     37 C18        5.2021   11.6814    4.9833 C.ar      2 RES2    0.0000
     38 C19        6.4483   12.3315    4.9488 C.ar      2 RES2    0.0000
     39 C20        6.5455   13.6623    5.2763 C.ar      2 RES2    0.0000
     40 C21        5.4371   14.4486    5.5769 C.ar      2 RES2    0.0000
     41 C22        4.1648   13.7861    5.6083 C.ar      2 RES2    0.0000
     42 C23        4.0907   12.4322    5.3599 C.ar      2 RES2    0.0000
     43 C24        5.0287   10.2920    4.5930 C.2       2 RES2    0.0000
     44 C25        6.2216    9.5585    3.9825 C.3       2 RES2    0.0000
     45 C26        5.8059    8.4849    3.0078 C.2       2 RES2    0.0000
     46 C27        5.3285    8.7144    1.7600 C.2       2 RES2    0.0000
     47 C28        4.9901    7.5483    0.9487 C.2       2 RES2    0.0000
     48 C29        4.5252    7.6123   -0.3298 C.2       2 RES2    0.0000
     49 C30        4.2766    6.4355   -1.1043 C.2       2 RES2    0.0000
     50 C31        7.0824    8.9600    5.1260 C.3       2 RES2    0.0000
     51 C32        5.1467   10.0997    1.1718 C.3       2 RES2    0.0000
     52 C33        6.8474   16.4398    5.8867 C.3       2 RES2    0.0000
     53 C34        4.3591   16.6429    5.8231 C.3       2 RES2    0.0000
     54 H10        3.1338   11.9703    5.3683 H         2 RES2    0.0000
     55 H11        3.2487   14.3231    5.8668 H         2 RES2    0.0000
     56 H12        7.3122   14.3231    4.9082 H         2 RES2    0.0000
     57 H13        7.1660   11.8465    4.7624 H         2 RES2    0.0000
     58 H14        6.7690   10.3193    3.4204 H         2 RES2    0.0000
     59 H15        5.9124    7.5124    3.1980 H         2 RES2    0.0000
     60 H16        5.2439    6.6869    1.6105 H         2 RES2    0.0000
     61 H17        4.5753    8.5031   -0.5828 H         2 RES2    0.0000
     62 H18        4.1993    7.5950   -2.6075 H         2 RES2    0.0000
@<TRIPOS>BOND
     1    1    4 1
     2    2   18 2
     3    3   12 2
     4    4   18 1
     5    5    9 1
     6    6    7 ar
     7    7    8 ar
     8    8    9 ar
     9    9   10 ar
    10   10   11 ar
    11   11    6 ar
    12   12    6 1
    13   13   12 1
    14   14   13 1
    15   15   14 2
    16   16   15 1
    17   17   16 2
    18   18   17 1
    19   19   13 1
    20   20   15 1
    21   21    5 1
    22   22    5 1
    23   23    7 1
    24   24    8 1
    25   25   10 1
    26   26   11 1
    27   27   13 1
    28   28   14 1
    29   29   16 1
    30   30   17 1
    31   31    4 1
    32   32   35 1
    33   33   49 2
    34   34   43 2
    35   35   49 1
    36   36   40 1
    37   37   38 ar
    38   38   39 ar
    39   39   40 ar
    40   40   41 ar
    41   41   42 ar
    42   42   37 ar
    43   43   37 1
    44   44   43 1
    45   45   44 1
    46   46   45 2
    47   47   46 1
    48   48   47 2
    49   49   48 1
    50   50   44 1
    51   51   46 1
    52   52   36 1
    53   53   36 1
    54   54   42 1
    55   55   41 1
    56   56   39 1
    57   57   38 1
    58   58   44 1
    59   59   45 1
    60   60   47 1
    61   61   48 1
    62   62   35 1
@<TRIPOS>SUBSTRUCTURE
     1 RES1 1
     2 RES2 32

@<TRIPOS>CRYSIN
  10.4460   41.2770    7.6690  90.0000  90.0000  90.0000  19 1

