# MOL2 file generated by ConQuest
# Please check atom types

@<TRIPOS>MOLECULE
TUBFUR
    34    35     1
SMALL
NO_CHARGES
****
Generated from CSD

@<TRIPOS>ATOM
      1 O1        -4.9155   -6.8453   -3.3049 O.3       1 RES1    0.0000
      2 O2        -3.3583   -7.7906   -4.6135 O.2       1 RES1    0.0000
      3 O3        -6.8928   -7.5426   -1.9187 O.3       1 RES1    0.0000
      4 O4       -11.2451   -7.3113    1.4529 O.3       1 RES1    0.0000
      5 O5        -3.7916   -4.8681    0.8878 O.2       1 RES1    0.0000
      6 O6        -1.7249   -4.7532    1.5087 O.2       1 RES1    0.0000
      7 O7         1.6177   -4.8847   -2.0084 O.2       1 RES1    0.0000
      8 O8         1.2769   -6.2578   -3.6384 O.2       1 RES1    0.0000
      9 N1        -2.5913   -4.9979    0.6949 N.pl3     1 RES1    0.0000
     10 N2         0.9111   -5.6370   -2.6560 N.pl3     1 RES1    0.0000
     11 C1        -7.8322   -6.3160   -5.6577 C.3       1 RES1    0.0000
     12 C2        -6.6766   -5.9416   -4.7275 C.3       1 RES1    0.0000
     13 C3        -6.0448   -7.2181   -4.1284 C.3       1 RES1    0.0000
     14 C4        -6.9698   -8.0552   -3.2540 C.3       1 RES1    0.0000
     15 C5        -6.5788   -9.5448   -3.2527 C.3       1 RES1    0.0000
     16 C6        -7.1156  -10.2970   -4.4728 C.3       1 RES1    0.0000
     17 C7        -8.6013  -10.4868   -4.4170 C.2       1 RES1    0.0000
     18 C8        -9.4535   -9.9958   -5.2539 C.2       1 RES1    0.0000
     19 C9        -5.6197   -5.2192   -5.5765 C.3       1 RES1    0.0000
     20 C10       -7.1694   -4.9962   -3.6408 C.3       1 RES1    0.0000
     21 C11       -3.6778   -7.1398   -3.6554 C.2       1 RES1    0.0000
     22 C12       -2.7052   -6.5124   -2.7167 C.ar      1 RES1    0.0000
     23 C13       -1.3822   -6.4109   -3.0805 C.ar      1 RES1    0.0000
     24 C14       -0.4878   -5.8201   -2.2316 C.ar      1 RES1    0.0000
     25 C15       -0.8449   -5.3640   -0.9812 C.ar      1 RES1    0.0000
     26 C16       -2.1667   -5.4772   -0.6367 C.ar      1 RES1    0.0000
     27 C17       -3.1124   -6.0364   -1.4760 C.ar      1 RES1    0.0000
     28 C18       -8.0028   -7.5759   -1.1121 C.ar      1 RES1    0.0000
     29 C19       -9.2322   -8.1068   -1.4432 C.ar      1 RES1    0.0000
     30 C20      -10.2854   -7.9953   -0.5591 C.ar      1 RES1    0.0000
     31 C21      -10.1218   -7.3845    0.6622 C.ar      1 RES1    0.0000
     32 C22       -8.8954   -6.9068    1.0151 C.ar      1 RES1    0.0000
     33 C23       -7.8293   -7.0050    0.1237 C.ar      1 RES1    0.0000
     34 C24      -11.1809   -6.5723    2.6609 C.3       1 RES1    0.0000
@<TRIPOS>BOND
     1    1   13 1
     2    2   21 2
     3    3   14 1
     4    4   31 1
     5    5    9 2
     6    6    9 2
     7    7   10 2
     8    8   10 2
     9    9   26 1
    10   10   24 1
    11   11   12 1
    12   12   13 1
    13   13   14 1
    14   14   15 1
    15   15   16 1
    16   16   17 1
    17   17   18 2
    18   19   12 1
    19   20   12 1
    20   21    1 1
    21   22   21 1
    22   23   22 ar
    23   24   23 ar
    24   25   24 ar
    25   26   25 ar
    26   27   22 ar
    27   28    3 1
    28   29   28 ar
    29   30   29 ar
    30   31   30 ar
    31   32   31 ar
    32   33   28 ar
    33   34    4 1
    34   26   27 ar
    35   32   33 ar
@<TRIPOS>SUBSTRUCTURE
     1 RES1 1

@<TRIPOS>CRYSIN
  12.2260   16.6430   12.4880  90.0000 103.7900  90.0000  14 1

