# MOL2 file generated by ConQuest
# Please check atom types

@<TRIPOS>MOLECULE
TUBSOA
    31    31     1
SMALL
NO_CHARGES
****
Generated from CSD

@<TRIPOS>ATOM
      1 C1         2.7084    8.7868   -3.6317 C.2       1 RES1    0.0000
      2 O1         3.2689    9.8283   -4.2053 O.3       1 RES1    0.0000
      3 H1         2.9220   10.5328   -3.9070 H         1 RES1    0.0000
      4 O2         3.0347    7.6404   -3.8918 O.2       1 RES1    0.0000
      5 C2         1.6172    9.1111   -2.6530 C.3       1 RES1    0.0000
      6 H2         1.7515   10.0283   -2.3056 H         1 RES1    0.0000
      7 H3         0.7433    9.0861   -3.1177 H         1 RES1    0.0000
      8 C3         1.5947    8.1324   -1.4905 C.3       1 RES1    0.0000
      9 H4         0.8484    8.3617   -0.8820 H         1 RES1    0.0000
     10 H5         1.4392    7.2172   -1.8343 H         1 RES1    0.0000
     11 C4         2.9017    8.1656   -0.7197 C.2       1 RES1    0.0000
     12 O3         3.7300    9.0472   -0.8813 O.2       1 RES1    0.0000
     13 N1         3.0350    7.1182    0.1560 N.am      1 RES1    0.0000
     14 H6         2.3592    6.5548    0.1866 H         1 RES1    0.0000
     15 C5         4.1126    6.8308    1.0106 C.ar      1 RES1    0.0000
     16 C6         5.1628    7.7513    1.2076 C.ar      1 RES1    0.0000
     17 H7         5.1409    8.5832    0.7494 H         1 RES1    0.0000
     18 C7         6.2182    7.4765    2.0454 C.ar      1 RES1    0.0000
     19 H8         6.9117    8.1177    2.1498 H         1 RES1    0.0000
     20 C8         6.2874    6.2735    2.7430 C.ar      1 RES1    0.0000
     21 C9         5.2900    5.3377    2.5757 C.ar      1 RES1    0.0000
     22 H9         5.3296    4.5076    3.0359 H         1 RES1    0.0000
     23 C10        4.2157    5.6224    1.7188 C.ar      1 RES1    0.0000
     24 O4         7.3725    6.1162    3.5614 O.3       1 RES1    0.0000
     25 C11        7.4214    4.9352    4.3657 C.3       1 RES1    0.0000
     26 H10        8.2407    4.9394    4.9030 H         1 RES1    0.0000
     27 H11        6.6414    4.9113    4.9584 H         1 RES1    0.0000
     28 H12        7.4147    4.1448    3.7853 H         1 RES1    0.0000
     29 N2         3.2087    4.5605    1.6246 N.pl3     1 RES1    0.0000
     30 O5         2.2018    4.7338    0.9178 O.2       1 RES1    0.0000
     31 O6         3.3953    3.5229    2.2416 O.2       1 RES1    0.0000
@<TRIPOS>BOND
     1    1    2 1
     2    2    3 1
     3    4    1 2
     4    5    1 1
     5    6    5 1
     6    7    5 1
     7    8    5 1
     8    9    8 1
     9   10    8 1
    10   11    8 1
    11   12   11 2
    12   13   11 1
    13   14   13 1
    14   15   13 1
    15   16   15 ar
    16   17   16 1
    17   18   16 ar
    18   19   18 1
    19   20   18 ar
    20   21   20 ar
    21   22   21 1
    22   23   15 ar
    23   24   20 1
    24   25   24 1
    25   26   25 1
    26   27   25 1
    27   28   25 1
    28   29   23 1
    29   30   29 2
    30   31   29 2
    31   21   23 ar
@<TRIPOS>SUBSTRUCTURE
     1 RES1 1

@<TRIPOS>CRYSIN
   6.2331   10.0400   10.2830  71.3880  75.3090  76.3120   2 1

