# MOL2 file generated by ConQuest
# Please check atom types

@<TRIPOS>MOLECULE
TUBYIY02
    17    16     1
SMALL
NO_CHARGES
****
Generated from CSD

@<TRIPOS>ATOM
      1 O1         5.2175    9.3321    3.0344 O.2       1 RES1    0.0000
      2 O2         3.9625    8.0605    4.2325 O.2       1 RES1    0.0000
      3 O3         2.9389    8.0054    1.1964 O.2       1 RES1    0.0000
      4 O4         3.0131    5.8763    1.5087 O.2       1 RES1    0.0000
      5 O5         6.3710    6.1554    3.7732 O.3       1 RES1    0.0000
      6 O6         6.0018    6.4907    0.3166 O.3       1 RES1    0.0000
      7 N1         4.6090    8.2923    3.2494 N.pl3     1 RES1    0.0000
      8 N2         3.4517    6.9870    1.6217 N.pl3     1 RES1    0.0000
      9 C1         5.1785    5.9022    3.0556 C.3       1 RES1    0.0000
     10 C2         4.8181    7.1580    2.2761 C.3       1 RES1    0.0000
     11 C3         5.8162    7.5418    1.2037 C.3       1 RES1    0.0000
     12 H1         4.4440    5.6490    3.6395 H         1 RES1    0.0000
     13 H2         5.3132    5.1426    2.4426 H         1 RES1    0.0000
     14 H3         5.4695    8.3272    0.7230 H         1 RES1    0.0000
     15 H4         6.6318    7.8096    1.6162 H         1 RES1    0.0000
     16 H5         6.1727    6.2454    4.6178 H         1 RES1    0.0000
     17 H6         6.7392    6.0879    0.4982 H         1 RES1    0.0000
@<TRIPOS>BOND
     1    1    7 2
     2    2    7 2
     3    3    8 2
     4    4    8 2
     5    5    9 1
     6    6   11 1
     7    7   10 1
     8    8   10 1
     9    9   10 1
    10   10   11 1
    11   11   14 1
    12   12    9 1
    13   13    9 1
    14   15   11 1
    15   16    5 1
    16   17    6 1
@<TRIPOS>SUBSTRUCTURE
     1 RES1 1

@<TRIPOS>CRYSIN
   9.7670   11.2530    6.0760  90.0000  90.0000  90.0000  19 1

