# MOL2 file generated by ConQuest
# Please check atom types

@<TRIPOS>MOLECULE
TUBYIY
    17    16     1
SMALL
NO_CHARGES
****
Generated from CSD

@<TRIPOS>ATOM
      1 O1         3.7515    4.7578    3.3473 O.3       1 RES1    0.0000
      2 O2         3.3960    5.0886    6.8167 O.3       1 RES1    0.0000
      3 O3         5.8006    3.1778    7.2839 O.2       1 RES1    0.0000
      4 O4         4.5866    1.9299    6.0815 O.2       1 RES1    0.0000
      5 O5         6.8125    3.2420    4.2088 O.2       1 RES1    0.0000
      6 O6         6.7490    5.3711    4.5558 O.2       1 RES1    0.0000
      7 N1         5.1501    2.9629    6.3081 N.pl3     1 RES1    0.0000
      8 N2         6.3066    4.2593    4.6457 N.pl3     1 RES1    0.0000
      9 C1         3.9322    3.7079    4.2489 C.3       1 RES1    0.0000
     10 C2         4.9421    4.1073    5.3226 C.3       1 RES1    0.0000
     11 C3         4.5944    5.3452    6.0894 C.3       1 RES1    0.0000
     12 H1         4.4235    6.0879    5.5000 H         1 RES1    0.0000
     13 H2         3.6597    4.8759    7.7250 H         1 RES1    0.0000
     14 H3         4.2301    2.8965    3.7738 H         1 RES1    0.0000
     15 H4         5.3045    5.6569    6.7298 H         1 RES1    0.0000
     16 H5         3.4331    5.3170    3.6110 H         1 RES1    0.0000
     17 H6         3.0180    3.5897    4.7393 H         1 RES1    0.0000
@<TRIPOS>BOND
     1    1    9 1
     2    2   11 1
     3    3    7 2
     4    4    7 2
     5    5    8 2
     6    6    8 2
     7    7   10 1
     8    8   10 1
     9    9   10 1
    10   10   11 1
    11   11   12 1
    12   13    2 1
    13   14    9 1
    14   15   11 1
    15   16    1 1
    16   17    9 1
@<TRIPOS>SUBSTRUCTURE
     1 RES1 1

@<TRIPOS>CRYSIN
   9.7670   11.2530    6.0760  90.0000  90.0000  90.0000  19 1

