# MOL2 file generated by ConQuest
# Please check atom types

@<TRIPOS>MOLECULE
TUBYIY01
    17    16     1
SMALL
NO_CHARGES
****
Generated from CSD

@<TRIPOS>ATOM
      1 O1        10.0326    3.8837    3.9888 O.2       1 RES1    0.0000
      2 O2         8.1649    4.0511    2.9380 O.2       1 RES1    0.0000
      3 O3         8.6146    2.7192    0.2728 O.2       1 RES1    0.0000
      4 O4         7.6181    1.3835    1.6207 O.2       1 RES1    0.0000
      5 O5        11.2958    1.5500    0.8080 O.3       1 RES1    0.0000
      6 O6        10.8845    0.9578    3.9398 O.3       1 RES1    0.0000
      7 N1         9.2314    3.5239    3.1554 N.pl3     1 RES1    0.0000
      8 N2         8.5266    2.1298    1.3236 N.pl3     1 RES1    0.0000
      9 C1        10.9569    2.6130    1.6449 C.3       1 RES1    0.0000
     10 C2         9.6400    2.3126    2.3485 C.3       1 RES1    0.0000
     11 C3         9.6792    1.0640    3.2488 C.3       1 RES1    0.0000
     12 H1        11.4932    0.8697    1.2844 H         1 RES1    0.0000
     13 H2        10.7617    1.1539    4.7599 H         1 RES1    0.0000
     14 H3        10.8653    3.4196    1.1270 H         1 RES1    0.0000
     15 H4        11.6485    2.7575    2.2966 H         1 RES1    0.0000
     16 H5         8.9485    1.0994    3.8787 H         1 RES1    0.0000
     17 H6         9.5500    0.2746    2.7078 H         1 RES1    0.0000
@<TRIPOS>BOND
     1    1    7 2
     2    2    7 2
     3    3    8 2
     4    4    8 2
     5    5    9 1
     6    6   11 1
     7    7   10 1
     8    8   10 1
     9    9   10 1
    10   10   11 1
    11   11   16 1
    12   12    5 1
    13   13    6 1
    14   14    9 1
    15   15    9 1
    16   17   11 1
@<TRIPOS>SUBSTRUCTURE
     1 RES1 1

@<TRIPOS>CRYSIN
  11.7740    9.5680    5.8020  90.0000  96.2500  90.0000 231 1

