# MOL2 file generated by ConQuest
# Please check atom types

@<TRIPOS>MOLECULE
TUCBOI
    42    43     1
SMALL
NO_CHARGES
****
Generated from CSD

@<TRIPOS>ATOM
      1 C1         6.0841    2.8053   11.1080 C.3       1 RES1    0.0000
      2 H1         6.9930    2.4388   11.1261 H         1 RES1    0.0000
      3 O1         5.1723    1.7821   11.5245 O.3       1 RES1    0.0000
      4 N1         4.0186    1.9370   10.6400 N.3       1 RES1    0.0000
      5 C2         3.2550    0.6949   10.6789 C.3       1 RES1    0.0000
      6 H2         2.8763    0.5596   11.5620 H         1 RES1    0.0000
      7 H3         3.8276   -0.0589   10.4682 H         1 RES1    0.0000
      8 C3         2.1554    0.8219    9.6520 C.3       1 RES1    0.0000
      9 H4         1.5443    1.5229    9.9278 H         1 RES1    0.0000
     10 H5         1.6568   -0.0093    9.6181 H         1 RES1    0.0000
     11 C4         2.6844    1.1419    8.2675 C.3       1 RES1    0.0000
     12 H6         1.9419    1.3330    7.6752 H         1 RES1    0.0000
     13 H7         3.1556    0.3686    7.9172 H         1 RES1    0.0000
     14 C5         3.6261    2.3345    8.2972 C.3       1 RES1    0.0000
     15 H8         4.0446    2.4512    7.4296 H         1 RES1    0.0000
     16 H9         3.1337    3.1419    8.5123 H         1 RES1    0.0000
     17 C6         4.6778    2.0712    9.3492 C.3       1 RES1    0.0000
     18 H10        5.1355    1.2307    9.1376 H         1 RES1    0.0000
     19 C7         5.7187    3.1367    9.6499 C.3       1 RES1    0.0000
     20 H11        5.3031    4.0237    9.6085 H         1 RES1    0.0000
     21 C8         6.0349    4.0154   12.0165 C.3       1 RES1    0.0000
     22 H12        5.1650    4.4583   11.9257 H         1 RES1    0.0000
     23 O2         6.2342    3.6344   13.3689 O.3       1 RES1    0.0000
     24 H13        5.4932    3.3536   13.6478 H         1 RES1    0.0000
     25 C9         7.1379    4.9818   11.6270 C.3       1 RES1    0.0000
     26 H14        7.9921    4.5554   11.7980 H         1 RES1    0.0000
     27 H15        7.0789    5.1429   10.6725 H         1 RES1    0.0000
     28 C10        7.1194    6.3055   12.3311 C.3       1 RES1    0.0000
     29 H16        7.1078    6.1692   13.2924 H         1 RES1    0.0000
     30 H17        7.9157    6.8114   12.1043 H         1 RES1    0.0000
     31 O3         5.9795    7.0065   11.9354 O.3       1 RES1    0.0000
     32 C11        6.0180    8.3612   12.3006 C.3       1 RES1    0.0000
     33 H18        5.2340    8.8041   11.9706 H         1 RES1    0.0000
     34 H19        6.7994    8.7721   11.9249 H         1 RES1    0.0000
     35 H20        6.0475    8.4335   13.2585 H         1 RES1    0.0000
     36 C12        6.8693    3.0779    8.6991 C.2       1 RES1    0.0000
     37 O4         7.6277    2.1910    8.6246 O.2       1 RES1    0.0000
     38 O5         6.9720    4.1083    7.9448 O.3       1 RES1    0.0000
     39 C13        8.0164    4.0856    6.9339 C.3       1 RES1    0.0000
     40 H21        8.2125    4.9839    6.6580 H         1 RES1    0.0000
     41 H22        7.7175    3.5755    6.1774 H         1 RES1    0.0000
     42 H23        8.8062    3.6840    7.3012 H         1 RES1    0.0000
@<TRIPOS>BOND
     1    1    2 1
     2    3    1 1
     3    4    3 1
     4    5    4 1
     5    6    5 1
     6    7    5 1
     7    8    5 1
     8    9    8 1
     9   10    8 1
    10   11    8 1
    11   12   11 1
    12   13   11 1
    13   14   11 1
    14   15   14 1
    15   16   14 1
    16   17    4 1
    17   18   17 1
    18   19    1 1
    19   20   19 1
    20   21    1 1
    21   22   21 1
    22   23   21 1
    23   24   23 1
    24   25   21 1
    25   26   25 1
    26   27   25 1
    27   28   25 1
    28   29   28 1
    29   30   28 1
    30   31   28 1
    31   32   31 1
    32   33   32 1
    33   34   32 1
    34   35   32 1
    35   36   19 1
    36   37   36 2
    37   38   36 1
    38   39   38 1
    39   40   39 1
    40   41   39 1
    41   42   39 1
    42   14   17 1
    43   17   19 1
@<TRIPOS>SUBSTRUCTURE
     1 RES1 1

@<TRIPOS>CRYSIN
  16.6670   10.3250   17.8560  90.0000 108.5900  90.0000  15 1

