# MOL2 file generated by ConQuest
# Please check atom types

@<TRIPOS>MOLECULE
TUCNOW
    68    71     1
SMALL
NO_CHARGES
****
Generated from CSD

@<TRIPOS>ATOM
      1 N1        -2.3227    3.0047    8.7741 N.3       1 RES1    0.0000
      2 O1        -3.1381    3.8109    9.6458 O.3       1 RES1    0.0000
      3 O2        -3.2253    3.0041    7.6361 O.3       1 RES1    0.0000
      4 C1        -1.0751    3.7805    8.3814 C.3       1 RES1    0.0000
      5 C2        -0.2973    4.0698    9.7156 C.3       1 RES1    0.0000
      6 H1        -0.0087    3.1841   10.0792 H         1 RES1    0.0000
      7 C3        -1.2226    4.7026   10.7691 C.3       1 RES1    0.0000
      8 H2        -0.7443    4.7531   11.6341 H         1 RES1    0.0000
      9 H3        -1.4470    5.6272   10.4924 H         1 RES1    0.0000
     10 C4        -2.5102    3.9075   10.9528 C.3       1 RES1    0.0000
     11 C5        -2.7336    2.0280    6.6967 C.3       1 RES1    0.0000
     12 H4        -2.7047    1.1265    7.1262 H         1 RES1    0.0000
     13 C6        -1.3349    2.4330    6.2412 C.3       1 RES1    0.0000
     14 H5        -1.3980    3.2520    5.6867 H         1 RES1    0.0000
     15 H6        -0.9551    1.7128    5.6779 H         1 RES1    0.0000
     16 C7        -0.3810    2.7001    7.4394 C.3       1 RES1    0.0000
     17 C8         0.9673    4.8951    9.5142 C.ar      1 RES1    0.0000
     18 C9         2.1944    4.2550    9.3533 C.ar      1 RES1    0.0000
     19 H7         2.2238    3.3063    9.3867 H         1 RES1    0.0000
     20 C10        3.3797    4.9564    9.1446 C.ar      1 RES1    0.0000
     21 H8         4.2011    4.4925    9.0291 H         1 RES1    0.0000
     22 C11        3.3398    6.3468    9.1075 C.ar      1 RES1    0.0000
     23 C12        2.1399    7.0107    9.3189 C.ar      1 RES1    0.0000
     24 H9         2.1200    7.9616    9.3268 H         1 RES1    0.0000
     25 C13        0.9705    6.2966    9.5186 C.ar      1 RES1    0.0000
     26 H10        0.1564    6.7645    9.6607 H         1 RES1    0.0000
     27 C14       -2.2877    2.5242   11.5586 C.3       1 RES1    0.0000
     28 H11       -1.6582    2.0223   11.0016 H         1 RES1    0.0000
     29 H12       -3.1411    2.0440   11.6006 H         1 RES1    0.0000
     30 H13       -1.9210    2.6195   12.4622 H         1 RES1    0.0000
     31 C15       -3.5239    4.6972   11.7669 C.3       1 RES1    0.0000
     32 H14       -3.6938    5.5566   11.3302 H         1 RES1    0.0000
     33 H15       -3.1696    4.8535   12.6675 H         1 RES1    0.0000
     34 H16       -4.3600    4.1912   11.8270 H         1 RES1    0.0000
     35 C16       -3.6950    2.0152    5.5344 C.ar      1 RES1    0.0000
     36 C17       -4.1173    3.2004    4.9304 C.ar      1 RES1    0.0000
     37 H17       -3.8368    4.0365    5.2832 H         1 RES1    0.0000
     38 C18       -4.9487    3.1632    3.8139 C.ar      1 RES1    0.0000
     39 H18       -5.2338    3.9740    3.4076 H         1 RES1    0.0000
     40 C19       -5.3612    1.9460    3.2943 C.ar      1 RES1    0.0000
     41 H19       -5.9286    1.9219    2.5328 H         1 RES1    0.0000
     42 C20       -4.9456    0.7682    3.8860 C.ar      1 RES1    0.0000
     43 H20       -5.2261   -0.0651    3.5292 H         1 RES1    0.0000
     44 C21       -4.1159    0.8032    5.0039 C.ar      1 RES1    0.0000
     45 H21       -3.8354   -0.0109    5.4083 H         1 RES1    0.0000
     46 O3        -0.3028    0.3086    7.4043 O.3       1 RES1    0.0000
     47 O4         0.3759    1.2612    9.2936 O.2       1 RES1    0.0000
     48 C22       -0.0668    1.3711    8.1789 C.2       1 RES1    0.0000
     49 C23        0.0409   -0.9753    7.9825 C.3       1 RES1    0.0000
     50 H22       -0.0943   -1.6803    7.3165 H         1 RES1    0.0000
     51 H23       -0.5304   -1.1455    8.7604 H         1 RES1    0.0000
     52 H24        0.9797   -0.9664    8.2635 H         1 RES1    0.0000
     53 O5         1.9260    2.3342    6.9598 O.3       1 RES1    0.0000
     54 O6         1.0001    4.1953    6.1054 O.2       1 RES1    0.0000
     55 C24        0.9207    3.2037    6.7831 C.2       1 RES1    0.0000
     56 C25        3.1727    2.7020    6.3148 C.3       1 RES1    0.0000
     57 H25        3.8425    2.0060    6.4787 H         1 RES1    0.0000
     58 H26        3.4911    3.5533    6.6795 H         1 RES1    0.0000
     59 H27        3.0267    2.7932    5.3501 H         1 RES1    0.0000
     60 C26       -1.4108    5.0940    7.6609 C.3       1 RES1    0.0000
     61 H28       -1.8673    5.7005    8.2820 H         1 RES1    0.0000
     62 H29       -1.9957    4.9078    6.8971 H         1 RES1    0.0000
     63 H30       -0.5835    5.5131    7.3438 H         1 RES1    0.0000
     64 O7         4.4363    7.1451    8.8976 O.3       1 RES1    0.0000
     65 C27        5.5922    6.5259    8.3516 C.3       1 RES1    0.0000
     66 H31        6.2831    7.2043    8.1939 H         1 RES1    0.0000
     67 H32        5.3612    6.0913    7.5041 H         1 RES1    0.0000
     68 H33        5.9311    5.8552    8.9806 H         1 RES1    0.0000
@<TRIPOS>BOND
     1    1    2 1
     2    2   10 1
     3    3    1 1
     4    4    1 1
     5    5    4 1
     6    6    5 1
     7    7    5 1
     8    8    7 1
     9    9    7 1
    10   10    7 1
    11   11    3 1
    12   12   11 1
    13   13   11 1
    14   14   13 1
    15   15   13 1
    16   16    4 1
    17   17    5 1
    18   18   17 ar
    19   19   18 1
    20   20   18 ar
    21   21   20 1
    22   22   20 ar
    23   23   22 ar
    24   24   23 1
    25   25   17 ar
    26   26   25 1
    27   27   10 1
    28   28   27 1
    29   29   27 1
    30   30   27 1
    31   31   10 1
    32   32   31 1
    33   33   31 1
    34   34   31 1
    35   35   11 1
    36   36   35 ar
    37   37   36 1
    38   38   36 ar
    39   39   38 1
    40   40   38 ar
    41   41   40 1
    42   42   40 ar
    43   43   42 1
    44   44   35 ar
    45   45   44 1
    46   46   48 1
    47   47   48 2
    48   48   16 1
    49   49   46 1
    50   50   49 1
    51   51   49 1
    52   52   49 1
    53   53   55 1
    54   54   55 2
    55   55   16 1
    56   56   53 1
    57   57   56 1
    58   58   56 1
    59   59   56 1
    60   60    4 1
    61   61   60 1
    62   62   60 1
    63   63   60 1
    64   64   22 1
    65   65   64 1
    66   66   65 1
    67   67   65 1
    68   68   65 1
    69   13   16 1
    70   23   25 ar
    71   42   44 ar
@<TRIPOS>SUBSTRUCTURE
     1 RES1 1

@<TRIPOS>CRYSIN
  10.3806   27.1450    9.2307  90.0000 107.3710  90.0000  14 1

