# MOL2 file generated by ConQuest
# Please check atom types

@<TRIPOS>MOLECULE
TUCROZ
    57    61     1
SMALL
NO_CHARGES
****
Generated from CSD

@<TRIPOS>ATOM
      1 N1         5.1815    3.6476   10.8748 N.3       1 RES1    0.0000
      2 N2         5.8785    4.4922    5.5050 N.pl3     1 RES1    0.0000
      3 O1         5.1961    3.8288    4.7536 O.2       1 RES1    0.0000
      4 O2         6.6354    5.3365    5.0860 O.2       1 RES1    0.0000
      5 C1         4.3879    2.5371   10.8471 C.2       1 RES1    0.0000
      6 H1         4.0410    2.1141   11.5991 H         1 RES1    0.0000
      7 C2         4.1785    2.1398    9.5703 C.2       1 RES1    0.0000
      8 C3         4.8903    3.0744    8.7489 C.ar      1 RES1    0.0000
      9 C4         5.5099    4.0035    9.6131 C.ar      1 RES1    0.0000
     10 C5         6.2766    5.0639    9.1361 C.ar      1 RES1    0.0000
     11 H2         6.6867    5.6603    9.7190 H         1 RES1    0.0000
     12 C6         6.4036    5.1951    7.7901 C.ar      1 RES1    0.0000
     13 H3         6.9133    5.8876    7.4380 H         1 RES1    0.0000
     14 C7         5.7672    4.2889    6.9332 C.ar      1 RES1    0.0000
     15 C8         5.0198    3.2251    7.3805 C.ar      1 RES1    0.0000
     16 H4         4.6181    2.6318    6.7873 H         1 RES1    0.0000
     17 C9         3.4121    0.9419    9.0534 C.3       1 RES1    0.0000
     18 H5         2.8119    1.2462    8.3403 H         1 RES1    0.0000
     19 C10        4.3537   -0.0641    8.4740 C.2       1 RES1    0.0000
     20 H6         5.0158   -0.3800    9.0467 H         1 RES1    0.0000
     21 C11        4.3618   -0.5667    7.2309 C.2       1 RES1    0.0000
     22 C12        3.5065   -0.0471    6.1943 C.1       1 RES1    0.0000
     23 C13        2.8705    0.3400    5.2601 C.1       1 RES1    0.0000
     24 C14        2.1055    0.7982    4.1365 C.ar      1 RES1    0.0000
     25 C15        1.3730   -0.0714    3.3640 C.ar      1 RES1    0.0000
     26 H7         1.3742   -0.9791    3.5698 H         1 RES1    0.0000
     27 C16        0.6390    0.3783    2.2914 C.ar      1 RES1    0.0000
     28 H8         0.1532   -0.2257    1.7777 H         1 RES1    0.0000
     29 C17        0.6194    1.7059    1.9772 C.ar      1 RES1    0.0000
     30 H9         0.1174    2.0096    1.2564 H         1 RES1    0.0000
     31 C18        1.3448    2.5821    2.7268 C.ar      1 RES1    0.0000
     32 H10        1.3351    3.4864    2.5057 H         1 RES1    0.0000
     33 C19        2.0865    2.1622    3.8015 C.ar      1 RES1    0.0000
     34 H11        2.5739    2.7762    4.3032 H         1 RES1    0.0000
     35 C20        2.5684    0.2974   10.1408 C.ar      1 RES1    0.0000
     36 C21        3.1489   -0.4925   11.1210 C.ar      1 RES1    0.0000
     37 H12        4.0688   -0.6306   11.1120 H         1 RES1    0.0000
     38 C22        2.3881   -1.0760   12.1064 C.ar      1 RES1    0.0000
     39 H13        2.8005   -1.5930   12.7603 H         1 RES1    0.0000
     40 C23        1.0531   -0.9074   12.1373 C.ar      1 RES1    0.0000
     41 H14        0.5412   -1.3192   12.7963 H         1 RES1    0.0000
     42 C24        0.4515   -0.1128   11.1742 C.ar      1 RES1    0.0000
     43 H15       -0.4678    0.0249   11.1929 H         1 RES1    0.0000
     44 C25        1.2162    0.4746   10.1870 C.ar      1 RES1    0.0000
     45 H16        0.8020    1.0006    9.5410 H         1 RES1    0.0000
     46 C26        5.2946   -1.6564    6.8459 C.ar      1 RES1    0.0000
     47 C27        5.7005   -2.5980    7.7885 C.ar      1 RES1    0.0000
     48 H17        5.3549   -2.5688    8.6513 H         1 RES1    0.0000
     49 C28        6.6150   -3.5727    7.4488 C.ar      1 RES1    0.0000
     50 H18        6.8840   -4.1950    8.0851 H         1 RES1    0.0000
     51 C29        7.1285   -3.6275    6.1815 C.ar      1 RES1    0.0000
     52 H19        7.7593   -4.2747    5.9604 H         1 RES1    0.0000
     53 C30        6.7079   -2.7281    5.2450 C.ar      1 RES1    0.0000
     54 H20        7.0437   -2.7746    4.3787 H         1 RES1    0.0000
     55 C31        5.7950   -1.7573    5.5697 C.ar      1 RES1    0.0000
     56 H21        5.5114   -1.1583    4.9179 H         1 RES1    0.0000
     57 H22        5.4397    3.9959   11.5704 H         1 RES1    0.0000
@<TRIPOS>BOND
     1    1    5 1
     2    2    3 2
     3    4    2 2
     4    5    6 1
     5    7    5 2
     6    8    7 1
     7    9    1 1
     8   10    9 ar
     9   11   10 1
    10   12   10 ar
    11   13   12 1
    12   14    2 1
    13   15    8 ar
    14   16   15 1
    15   17    7 1
    16   18   17 1
    17   19   17 1
    18   20   19 1
    19   21   19 2
    20   22   21 1
    21   23   22 3
    22   24   23 1
    23   25   24 ar
    24   26   25 1
    25   27   25 ar
    26   28   27 1
    27   29   27 ar
    28   30   29 1
    29   31   29 ar
    30   32   31 1
    31   33   24 ar
    32   34   33 1
    33   35   17 1
    34   36   35 ar
    35   37   36 1
    36   38   36 ar
    37   39   38 1
    38   40   38 ar
    39   41   40 1
    40   42   40 ar
    41   43   42 1
    42   44   35 ar
    43   45   44 1
    44   46   21 1
    45   47   46 ar
    46   48   47 1
    47   49   47 ar
    48   50   49 1
    49   51   49 ar
    50   52   51 1
    51   53   51 ar
    52   54   53 1
    53   55   46 ar
    54   56   55 1
    55   57    1 1
    56    8    9 ar
    57   12   14 ar
    58   14   15 ar
    59   31   33 ar
    60   42   44 ar
    61   53   55 ar
@<TRIPOS>SUBSTRUCTURE
     1 RES1 1

@<TRIPOS>CRYSIN
  16.3011   16.5942   17.9748  90.0000  90.0000  90.0000  61 1

