# MOL2 file generated by ConQuest
# Please check atom types

@<TRIPOS>MOLECULE
TUCYOH
    52    55     1
SMALL
NO_CHARGES
****
Generated from CSD

@<TRIPOS>ATOM
      1 O1         8.2963    5.3221    2.3149 O.3       1 RES1    0.0000
      2 O2        10.5984    6.8048   -1.7841 O.3       1 RES1    0.0000
      3 C1        10.2657    1.7905    0.9282 C.2       1 RES1    0.0000
      4 O3        10.5842    4.0835    0.5681 O.3       1 RES1    0.0000
      5 C2        10.1364    5.2979   -0.0138 C.3       1 RES1    0.0000
      6 H1         9.2934    5.1732   -0.4971 H         1 RES1    0.0000
      7 O4        11.3372    6.9024    1.2030 O.3       1 RES1    0.0000
      8 O5         9.8850    1.7553    2.2084 O.3       1 RES1    0.0000
      9 C3        10.9378    0.6856    0.6286 C.2       1 RES1    0.0000
     10 H2        11.3104    0.4579   -0.1918 H         1 RES1    0.0000
     11 C4        11.2037    5.8747   -0.9067 C.3       1 RES1    0.0000
     12 H3        11.7246    5.1885   -1.3741 H         1 RES1    0.0000
     13 O6        12.2165    7.9440   -0.6770 O.3       1 RES1    0.0000
     14 C5        12.0493    6.7431    0.0093 C.3       1 RES1    0.0000
     15 H4        12.9167    6.3198    0.1806 H         1 RES1    0.0000
     16 C6        10.0089    6.3797    1.0579 C.3       1 RES1    0.0000
     17 H5         9.4029    7.0858    0.7503 H         1 RES1    0.0000
     18 C7         6.6411    4.0096    3.4410 C.ar      1 RES1    0.0000
     19 C8         5.5028    4.7821    3.2391 C.ar      1 RES1    0.0000
     20 H6         5.5806    5.7003    3.1168 H         1 RES1    0.0000
     21 C9         4.2499    4.1812    3.2189 C.ar      1 RES1    0.0000
     22 H7         3.4885    4.6977    3.0833 H         1 RES1    0.0000
     23 C10        4.1343    2.8074    3.4004 C.ar      1 RES1    0.0000
     24 H8         3.2959    2.4057    3.3868 H         1 RES1    0.0000
     25 C11        5.2722    2.0354    3.6022 C.ar      1 RES1    0.0000
     26 H9         5.1953    1.1162    3.7238 H         1 RES1    0.0000
     27 C12        6.5258    2.6363    3.6223 C.ar      1 RES1    0.0000
     28 H10        7.2873    2.1199    3.7573 H         1 RES1    0.0000
     29 C13        9.5883    5.9006    2.4221 C.3       1 RES1    0.0000
     30 H11       10.2205    5.2423    2.7519 H         1 RES1    0.0000
     31 H12        9.5684    6.6443    3.0442 H         1 RES1    0.0000
     32 C14       10.9667   -0.0704    1.8198 C.2       1 RES1    0.0000
     33 N1        10.3535    0.5420    2.7707 N.2       1 RES1    0.0000
     34 C15        9.8415    2.9738    0.1542 C.3       1 RES1    0.0000
     35 H13        9.9844    2.8168   -0.7932 H         1 RES1    0.0000
     36 H14        8.8964    3.1388    0.2960 H         1 RES1    0.0000
     37 C16       11.3954    7.9821   -1.8349 C.3       1 RES1    0.0000
     38 C17       11.5962   -1.4008    2.0663 C.3       1 RES1    0.0000
     39 H15       11.4461   -1.6619    2.9772 H         1 RES1    0.0000
     40 H16       12.5405   -1.3434    1.9010 H         1 RES1    0.0000
     41 H17       11.2082   -2.0531    1.4783 H         1 RES1    0.0000
     42 C18       12.2655    7.9619   -3.0628 C.3       1 RES1    0.0000
     43 H18       12.7928    8.7642   -3.0945 H         1 RES1    0.0000
     44 H19       11.7129    7.9115   -3.8467 H         1 RES1    0.0000
     45 H20       12.8462    7.1983   -3.0312 H         1 RES1    0.0000
     46 C19       10.4837    9.1600   -1.7811 C.3       1 RES1    0.0000
     47 H21       11.0020    9.9682   -1.8209 H         1 RES1    0.0000
     48 H22        9.9844    9.1413   -0.9626 H         1 RES1    0.0000
     49 H23        9.8786    9.1319   -2.5266 H         1 RES1    0.0000
     50 C20        7.9865    4.6146    3.5099 C.3       1 RES1    0.0000
     51 H24        8.0272    5.2236    4.2638 H         1 RES1    0.0000
     52 H25        8.6458    3.9177    3.6512 H         1 RES1    0.0000
@<TRIPOS>BOND
     1    1   29 1
     2    2   11 1
     3    3    8 1
     4    4    5 1
     5    5    6 1
     6    7   14 1
     7    8   33 1
     8    9    3 2
     9   10    9 1
    10   11    5 1
    11   12   11 1
    12   13   14 1
    13   14   11 1
    14   15   14 1
    15   16    5 1
    16   17   16 1
    17   18   19 ar
    18   19   20 1
    19   21   19 ar
    20   22   21 1
    21   23   21 ar
    22   24   23 1
    23   25   23 ar
    24   26   25 1
    25   27   18 ar
    26   28   27 1
    27   29   16 1
    28   30   29 1
    29   31   29 1
    30   32    9 1
    31   33   32 2
    32   34    3 1
    33   35   34 1
    34   36   34 1
    35   37    2 1
    36   38   32 1
    37   39   38 1
    38   40   38 1
    39   41   38 1
    40   42   37 1
    41   43   42 1
    42   44   42 1
    43   45   42 1
    44   46   37 1
    45   47   46 1
    46   48   46 1
    47   49   46 1
    48   50    1 1
    49   51   50 1
    50   52   50 1
    51    4   34 1
    52    7   16 1
    53   13   37 1
    54   18   50 1
    55   25   27 ar
@<TRIPOS>SUBSTRUCTURE
     1 RES1 1

@<TRIPOS>CRYSIN
   9.0447   11.7121   18.6190  90.0000  90.0000  90.0000  19 1

