# MOL2 file generated by ConQuest
# Please check atom types

@<TRIPOS>MOLECULE
TUDKUA
   104    96     3
SMALL
NO_CHARGES
****
Generated from CSD

@<TRIPOS>ATOM
      1 N1         5.2189    1.3632    5.3749 N.pl3     1 RES1    0.0000
      2 H1         5.7854    1.2909    6.0451 H         1 RES1    0.0000
      3 N2         3.9108    1.4785    5.6236 N.2       1 RES1    0.0000
      4 N3        -1.9997    1.7305    8.0928 N.pl3     1 RES1    0.0000
      5 O1         5.0781    1.2413   -2.0308 O.3       1 RES1    0.0000
      6 H2         4.4366    1.3659   -2.5594 H         1 RES1    0.0000
      7 O2        -2.8019    1.9946    7.1914 O.2       1 RES1    0.0000
      8 O3        -2.3544    1.4745    9.2514 O.2       1 RES1    0.0000
      9 C1         5.7134    2.4316   -1.7936 C.ar      1 RES1    0.0000
     10 C2         5.3744    3.5683   -2.5222 C.ar      1 RES1    0.0000
     11 H3         4.7047    3.5254   -3.1936 H         1 RES1    0.0000
     12 C3         6.0128    4.7466   -2.2622 C.ar      1 RES1    0.0000
     13 H4         5.8000    5.5227   -2.7666 H         1 RES1    0.0000
     14 C4         6.9537    4.8136   -1.2784 C.ar      1 RES1    0.0000
     15 H5         7.3929    5.6366   -1.0987 H         1 RES1    0.0000
     16 C5         7.2729    3.6970   -0.5418 C.ar      1 RES1    0.0000
     17 H6         7.9134    3.7654    0.1548 H         1 RES1    0.0000
     18 C6         6.6741    2.4705   -0.8005 C.ar      1 RES1    0.0000
     19 C7         7.0872    1.2359   -0.0345 C.3       1 RES1    0.0000
     20 H7         6.5969    0.4678   -0.4470 H         1 RES1    0.0000
     21 C8         8.5894    0.9437   -0.2097 C.3       1 RES1    0.0000
     22 H8         8.7751    0.7453   -1.1511 H         1 RES1    0.0000
     23 H9         8.8387    0.1743    0.3421 H         1 RES1    0.0000
     24 H10        9.1089    1.7279    0.0674 H         1 RES1    0.0000
     25 C9         6.6460    1.3002    1.4220 C.ar      1 RES1    0.0000
     26 C10        5.3076    1.5576    1.7027 C.ar      1 RES1    0.0000
     27 H11        4.7099    1.7171    0.9813 H         1 RES1    0.0000
     28 C11        4.8194    1.5898    2.9826 C.ar      1 RES1    0.0000
     29 H12        3.8993    1.7667    3.1387 H         1 RES1    0.0000
     30 C12        5.6936    1.3565    4.0678 C.ar      1 RES1    0.0000
     31 C13        7.0361    1.1193    3.7996 C.ar      1 RES1    0.0000
     32 H13        7.6380    0.9678    4.5195 H         1 RES1    0.0000
     33 C14        7.5045    1.1005    2.5059 C.ar      1 RES1    0.0000
     34 H14        8.4287    0.9490    2.3471 H         1 RES1    0.0000
     35 C15        3.5092    1.4423    6.8439 C.2       1 RES1    0.0000
     36 H15        4.1393    1.3391    7.5458 H         1 RES1    0.0000
     37 C16        2.1051    1.5590    7.1492 C.ar      1 RES1    0.0000
     38 C17        1.1610    1.8297    6.1497 C.ar      1 RES1    0.0000
     39 H16        1.4500    1.9531    5.2536 H         1 RES1    0.0000
     40 C18       -0.1846    1.9222    6.4516 C.ar      1 RES1    0.0000
     41 H17       -0.8189    2.1327    5.7754 H         1 RES1    0.0000
     42 C19       -0.5915    1.7010    7.7577 C.ar      1 RES1    0.0000
     43 C20        0.3150    1.4316    8.7665 C.ar      1 RES1    0.0000
     44 H18        0.0167    1.2882    9.6582 H         1 RES1    0.0000
     45 C21        1.6524    1.3753    8.4611 C.ar      1 RES1    0.0000
     46 H19        2.2814    1.2091    9.1538 H         1 RES1    0.0000
     47 N4         0.1127    5.3471    7.0049 N.pl3     2 RES2    0.0000
     48 H20       -0.4089    5.5388    6.3223 H         2 RES2    0.0000
     49 N5         1.4270    5.1849    6.8067 N.2       2 RES2    0.0000
     50 N6         7.3303    4.8082    4.2336 N.pl3     2 RES2    0.0000
     51 O4         8.1679    4.6353    5.1070 O.2       2 RES2    0.0000
     52 O5         7.6380    4.9691    3.0463 O.2       2 RES2    0.0000
     53 O6        -2.2564    1.8203   13.3536 O.3       2 RES2    0.0000
     54 H21       -2.1239    1.1622   13.8605 H         2 RES2    0.0000
     55 C22       -1.5773    2.9276   13.8480 C.ar      2 RES2    0.0000
     56 C23       -0.7636    2.7319   14.9567 C.ar      2 RES2    0.0000
     57 H22       -0.7438    1.8860   15.3886 H         2 RES2    0.0000
     58 C24        0.0209    3.7747   15.4361 C.ar      2 RES2    0.0000
     59 H23        0.5769    3.6407   16.1952 H         2 RES2    0.0000
     60 C25       -0.0083    5.0133   14.8044 C.ar      2 RES2    0.0000
     61 H24        0.5278    5.7251   15.1340 H         2 RES2    0.0000
     62 C26       -0.8220    5.2090   13.6957 C.ar      2 RES2    0.0000
     63 H25       -0.8418    6.0549   13.2637 H         2 RES2    0.0000
     64 C27       -1.6065    4.1661   13.2163 C.ar      2 RES2    0.0000
     65 C28       -2.5568    4.3257   11.9828 C.3       2 RES2    0.0000
     66 H26       -2.9970    3.4490   11.7881 H         2 RES2    0.0000
     67 C29       -3.6292    5.3511   12.4230 C.3       2 RES2    0.0000
     68 H27       -4.1559    4.9771   13.1614 H         2 RES2    0.0000
     69 H28       -4.2206    5.5495   11.6682 H         2 RES2    0.0000
     70 H29       -3.1910    6.1755   12.7194 H         2 RES2    0.0000
     71 C30       -1.7525    4.7881   10.7294 C.ar      2 RES2    0.0000
     72 C31       -0.3943    4.5790   10.5720 C.ar      2 RES2    0.0000
     73 H30        0.1033    4.2787   11.3236 H         2 RES2    0.0000
     74 C32        0.2817    4.7814    9.3803 C.ar      2 RES2    0.0000
     75 H31        1.2174    4.6286    9.3186 H         2 RES2    0.0000
     76 C33       -0.4433    5.2144    8.2799 C.ar      2 RES2    0.0000
     77 C34       -1.7995    5.5053    8.4382 C.ar      2 RES2    0.0000
     78 H32       -2.2981    5.8444    7.7031 H         2 RES2    0.0000
     79 C35       -2.4170    5.3042    9.6477 C.ar      2 RES2    0.0000
     80 H33       -3.3350    5.5294    9.7381 H         2 RES2    0.0000
     81 C36        1.8328    5.1876    5.5822 C.2       2 RES2    0.0000
     82 H34        1.2028    5.2868    4.8790 H         2 RES2    0.0000
     83 C37        3.2474    5.0388    5.2690 C.ar      2 RES2    0.0000
     84 C38        4.2175    4.8645    6.2568 C.ar      2 RES2    0.0000
     85 H35        3.9546    4.8096    7.1687 H         2 RES2    0.0000
     86 C39        5.5548    4.7707    5.9230 C.ar      2 RES2    0.0000
     87 H36        6.2141    4.6581    6.5969 H         2 RES2    0.0000
     88 C40        5.9220    4.8458    4.5841 C.ar      2 RES2    0.0000
     89 C41        4.9936    4.9905    3.5876 C.ar      2 RES2    0.0000
     90 H37        5.2648    5.0321    2.6767 H         2 RES2    0.0000
     91 C42        3.6469    5.0777    3.9299 C.ar      2 RES2    0.0000
     92 H38        2.9928    5.1635    3.2460 H         2 RES2    0.0000
     93 O7        -0.8053    6.2398   13.2563 Du        3 SUP3    0.0000
     94 H39       -0.2545    6.6246   13.7606 Du        3 SUP3    0.0000
     95 C43       -1.7515    2.5844   13.6957 Du        3 SUP3    0.0000
     96 H40       -2.2950    1.8981   13.3262 Du        3 SUP3    0.0000
     97 C44       -0.9670    2.3230   14.8143 Du        3 SUP3    0.0000
     98 H41       -0.9754    1.4584   15.2089 Du        3 SUP3    0.0000
     99 C45       -0.1711    3.3257   15.3537 Du        3 SUP3    0.0000
    100 H42        0.3641    3.1474   16.1177 Du        3 SUP3    0.0000
    101 C46       -0.1596    4.5897   14.7769 Du        3 SUP3    0.0000
    102 H43        0.3849    5.2761   15.1464 Du        3 SUP3    0.0000
    103 C47       -0.9430    4.8511   13.6608 Du        3 SUP3    0.0000
    104 C48       -1.7389    3.8485   13.1189 Du        3 SUP3    0.0000
@<TRIPOS>BOND
     1    1    2 1
     2    3    1 1
     3    4    7 2
     4    5    6 1
     5    8    4 2
     6    9    5 1
     7   10    9 ar
     8   11   10 1
     9   12   10 ar
    10   13   12 1
    11   14   12 ar
    12   15   14 1
    13   16   14 ar
    14   17   16 1
    15   18    9 ar
    16   19   18 1
    17   20   19 1
    18   21   19 1
    19   22   21 1
    20   23   21 1
    21   24   21 1
    22   25   19 1
    23   26   25 ar
    24   27   26 1
    25   28   26 ar
    26   29   28 1
    27   30    1 1
    28   31   30 ar
    29   32   31 1
    30   33   25 ar
    31   34   33 1
    32   35    3 2
    33   36   35 1
    34   37   35 1
    35   38   37 ar
    36   39   38 1
    37   40   38 ar
    38   41   40 1
    39   42    4 1
    40   43   42 ar
    41   44   43 1
    42   45   37 ar
    43   46   45 1
    44   47   48 1
    45   49   47 1
    46   50   51 2
    47   52   50 2
    48   53   54 1
    49   55   53 1
    50   56   55 ar
    51   57   56 1
    52   58   56 ar
    53   59   58 1
    54   60   58 ar
    55   61   60 1
    56   62   60 ar
    57   63   62 1
    58   64   55 ar
    59   65   64 1
    60   66   65 1
    61   67   65 1
    62   68   67 1
    63   69   67 1
    64   70   67 1
    65   71   65 1
    66   72   71 ar
    67   73   72 1
    68   74   72 ar
    69   75   74 1
    70   76   47 1
    71   77   76 ar
    72   78   77 1
    73   79   71 ar
    74   80   79 1
    75   81   49 2
    76   82   81 1
    77   83   81 1
    78   84   83 ar
    79   85   84 1
    80   86   84 ar
    81   87   86 1
    82   88   50 1
    83   89   88 ar
    84   90   89 1
    85   91   83 ar
    86   92   91 1
    87   16   18 ar
    88   28   30 ar
    89   31   33 ar
    90   40   42 ar
    91   43   45 ar
    92   62   64 ar
    93   74   76 ar
    94   77   79 ar
    95   86   88 ar
    96   89   91 ar
@<TRIPOS>SUBSTRUCTURE
     1 RES1 1
     2 RES2 47
     3 SUP3 93

@<TRIPOS>CRYSIN
  10.4316   13.4046   24.9694  90.0000  90.0000  90.0000  19 1

