# MOL2 file generated by ConQuest
# Please check atom types

@<TRIPOS>MOLECULE
TUDREP
    28    29     1
SMALL
NO_CHARGES
****
Generated from CSD

@<TRIPOS>ATOM
      1 O1         0.3819    3.4399    1.5631 O.2       1 RES1    0.0000
      2 N1        -0.3975    2.5495    1.0223 N.pl3     1 RES1    0.0000
      3 C1        -0.9147    1.5238    1.7698 C.ar      1 RES1    0.0000
      4 C2        -1.6274    0.5189    1.1594 C.ar      1 RES1    0.0000
      5 C3        -1.9032    0.5323   -0.2043 C.ar      1 RES1    0.0000
      6 C4        -1.4331    1.6346   -0.9035 C.ar      1 RES1    0.0000
      7 C5        -0.6947    2.6084   -0.3056 C.ar      1 RES1    0.0000
      8 C6        -2.6906   -0.5611   -0.8503 C.3       1 RES1    0.0000
      9 H1        -1.9332   -0.2039    1.7123 H         1 RES1    0.0000
     10 H2        -1.6451    1.7209   -1.8358 H         1 RES1    0.0000
     11 H3        -0.4054    3.4259   -0.7174 H         1 RES1    0.0000
     12 H4        -3.2294   -0.2584   -1.5849 H         1 RES1    0.0000
     13 H5        -2.1900   -1.3307   -1.1308 H         1 RES1    0.0000
     14 H6        -3.3075   -0.9236   -0.2103 H         1 RES1    0.0000
     15 C1A       -0.6200    1.5238    3.2217 C.ar      1 RES1    0.0000
     16 N1A       -1.1371    2.5495    3.9691 N.pl3     1 RES1    0.0000
     17 O1A       -1.9165    3.4399    3.4283 O.2       1 RES1    0.0000
     18 C5A       -0.8400    2.6084    5.2970 C.ar      1 RES1    0.0000
     19 C4A       -0.1015    1.6346    5.8950 C.ar      1 RES1    0.0000
     20 C3A        0.3686    0.5323    5.1958 C.ar      1 RES1    0.0000
     21 C2A        0.0928    0.5189    3.8320 C.ar      1 RES1    0.0000
     22 H1A        0.3986   -0.2039    3.2792 H         1 RES1    0.0000
     23 C6A        1.1560   -0.5611    5.8418 C.3       1 RES1    0.0000
     24 H4A        1.6948   -0.2584    6.5763 H         1 RES1    0.0000
     25 H5A        0.6554   -1.3307    6.1222 H         1 RES1    0.0000
     26 H6A        1.7729   -0.9236    5.2018 H         1 RES1    0.0000
     27 H2A        0.1105    1.7209    6.8273 H         1 RES1    0.0000
     28 H3A       -1.1292    3.4259    5.7088 H         1 RES1    0.0000
@<TRIPOS>BOND
     1    1    2 1
     2    2    3 ar
     3    3    4 ar
     4    4    5 ar
     5    5    6 ar
     6    6    7 ar
     7    7    2 ar
     8    8    5 1
     9    9    4 1
    10   10    6 1
    11   11    7 1
    12   12    8 1
    13   13    8 1
    14   14    8 1
    15   15    3 1
    16   16   15 ar
    17   17   16 1
    18   18   16 ar
    19   19   18 ar
    20   20   19 ar
    21   21   15 ar
    22   22   21 1
    23   23   20 1
    24   24   23 1
    25   25   23 1
    26   26   23 1
    27   27   19 1
    28   28   18 1
    29   20   21 ar
@<TRIPOS>SUBSTRUCTURE
     1 RES1 1

@<TRIPOS>CRYSIN
  11.2320    9.1750   10.4440  90.0000 107.0900  90.0000  15 1

