# MOL2 file generated by ConQuest
# Please check atom types

@<TRIPOS>MOLECULE
TUDZOI
    61    61     1
SMALL
USER_CHARGES
****
Generated from CSD

@<TRIPOS>ATOM
      1 C1        -6.4641  -10.9385   -2.3256 C.3       1 RES1    0.0000
      2 H1        -6.1271  -11.0211   -3.2417 H         1 RES1    0.0000
      3 C2        -7.4101  -12.0934   -2.0307 C.3       1 RES1    0.0000
      4 H2        -8.1375  -12.0810   -2.6561 H         1 RES1    0.0000
      5 H3        -7.7545  -12.0067   -1.1379 H         1 RES1    0.0000
      6 H4        -6.9352  -12.9249   -2.1098 H         1 RES1    0.0000
      7 C3        -5.2876  -10.9192   -1.3549 C.3       1 RES1    0.0000
      8 H5        -4.7077  -10.1841   -1.5695 H         1 RES1    0.0000
      9 H6        -4.7997  -11.7438   -1.4277 H         1 RES1    0.0000
     10 H7        -5.6140  -10.8187   -0.4588 H         1 RES1    0.0000
     11 N1        -7.2279   -9.6741   -2.1964 N.2       1 RES1    0.0000
     12 N2        -6.6862   -8.7242   -2.8227 N.pl3     1 RES1    1.0000
     13 O1        -5.6740   -8.7348   -3.5468 O.2       1 RES1   -1.0000
     14 N3        -7.2414   -7.3878   -2.5701 N.3       1 RES1    0.0000
     15 C4        -8.6169   -7.4364   -2.0696 C.3       1 RES1    0.0000
     16 H8        -8.9349   -6.5430   -1.9196 H         1 RES1    0.0000
     17 H9        -8.6399   -7.9265   -1.2435 H         1 RES1    0.0000
     18 H10       -9.1772   -7.8728   -2.7165 H         1 RES1    0.0000
     19 O2        -7.3030   -6.7934   -3.8583 O.3       1 RES1    0.0000
     20 C5        -6.4809   -5.6578   -3.9286 C.3       1 RES1    0.0000
     21 H11       -5.7183   -5.7418   -3.3201 H         1 RES1    0.0000
     22 O3        -7.2879   -4.5411   -3.5791 O.3       1 RES1    0.0000
     23 C6        -6.0127   -5.5352   -5.3668 C.3       1 RES1    0.0000
     24 H12       -6.7624   -5.6372   -5.9883 H         1 RES1    0.0000
     25 C7        -5.2977   -4.2226   -5.5923 C.3       1 RES1    0.0000
     26 H13       -4.4150   -4.2551   -5.1673 H         1 RES1    0.0000
     27 C8        -6.0716   -3.0269   -5.0566 C.3       1 RES1    0.0000
     28 H14       -6.8135   -2.7986   -5.6533 H         1 RES1    0.0000
     29 C9        -6.5824   -3.2960   -3.6364 C.3       1 RES1    0.0000
     30 H15       -5.8248   -3.3204   -3.0153 H         1 RES1    0.0000
     31 O4        -5.0167   -6.5422   -5.5935 O.3       1 RES1    0.0000
     32 C10       -5.3504   -7.6510   -6.3155 C.2       1 RES1    0.0000
     33 O5        -6.4316   -7.8061   -6.8117 O.2       1 RES1    0.0000
     34 C11       -4.1907   -8.5718   -6.3647 C.3       1 RES1    0.0000
     35 H16       -4.4206   -9.3499   -6.8787 H         1 RES1    0.0000
     36 H17       -3.9535   -8.8364   -5.4722 H         1 RES1    0.0000
     37 H18       -3.4454   -8.1261   -6.7761 H         1 RES1    0.0000
     38 O6        -5.1401   -4.0758   -7.0136 O.3       1 RES1    0.0000
     39 C12       -3.8823   -4.0681   -7.5192 C.2       1 RES1    0.0000
     40 O7        -2.8936   -4.0917   -6.8398 O.2       1 RES1    0.0000
     41 C13       -3.9182   -4.0623   -9.0093 C.3       1 RES1    0.0000
     42 H19       -3.0209   -4.0568   -9.3507 H         1 RES1    0.0000
     43 H20       -4.3814   -3.2791   -9.3145 H         1 RES1    0.0000
     44 H21       -4.3746   -4.8470   -9.3205 H         1 RES1    0.0000
     45 O8        -5.1065   -1.9584   -5.0110 O.3       1 RES1    0.0000
     46 C14       -5.4951   -0.7145   -5.3997 C.2       1 RES1    0.0000
     47 O9        -6.6245   -0.4484   -5.6952 O.2       1 RES1    0.0000
     48 C15       -4.3455    0.2302   -5.3587 C.3       1 RES1    0.0000
     49 H22       -4.6371    1.1013   -5.6382 H         1 RES1    0.0000
     50 H23       -3.6552   -0.0798   -5.9491 H         1 RES1    0.0000
     51 H24       -4.0034    0.2794   -4.4641 H         1 RES1    0.0000
     52 C16       -7.5526   -2.2356   -3.2009 C.3       1 RES1    0.0000
     53 H25       -7.1825   -1.3560   -3.3714 H         1 RES1    0.0000
     54 H26       -8.3825   -2.3209   -3.6974 H         1 RES1    0.0000
     55 O10       -7.7999   -2.3993   -1.7953 O.3       1 RES1    0.0000
     56 C17       -8.8261   -1.6850   -1.2897 C.2       1 RES1    0.0000
     57 O11       -9.5338   -0.9746   -1.9583 O.2       1 RES1    0.0000
     58 C18       -8.9299   -1.8970    0.1929 C.3       1 RES1    0.0000
     59 H27       -9.6645   -1.3849    0.5373 H         1 RES1    0.0000
     60 H28       -8.1156   -1.6120    0.6157 H         1 RES1    0.0000
     61 H29       -9.0751   -2.8275    0.3743 H         1 RES1    0.0000
@<TRIPOS>BOND
     1    1    2 1
     2    3    1 1
     3    4    3 1
     4    5    3 1
     5    6    3 1
     6    7    1 1
     7    8    7 1
     8    9    7 1
     9   10    7 1
    10   11    1 1
    11   12   11 2
    12   13   12 1
    13   14   12 1
    14   15   14 1
    15   16   15 1
    16   17   15 1
    17   18   15 1
    18   19   14 1
    19   20   19 1
    20   21   20 1
    21   22   20 1
    22   23   20 1
    23   24   23 1
    24   25   23 1
    25   26   25 1
    26   27   25 1
    27   28   27 1
    28   29   22 1
    29   30   29 1
    30   31   23 1
    31   32   31 1
    32   33   32 2
    33   34   32 1
    34   35   34 1
    35   36   34 1
    36   37   34 1
    37   38   25 1
    38   39   38 1
    39   40   39 2
    40   41   39 1
    41   42   41 1
    42   43   41 1
    43   44   41 1
    44   45   27 1
    45   46   45 1
    46   47   46 2
    47   48   46 1
    48   49   48 1
    49   50   48 1
    50   51   48 1
    51   52   29 1
    52   53   52 1
    53   54   52 1
    54   55   52 1
    55   56   55 1
    56   57   56 2
    57   58   56 1
    58   59   58 1
    59   60   58 1
    60   61   58 1
    61   27   29 1
@<TRIPOS>SUBSTRUCTURE
     1 RES1 1

@<TRIPOS>CRYSIN
   5.6078   13.7660   30.1830  90.0000  90.0000  90.0000  19 1

