# MOL2 file generated by ConQuest
# Please check atom types

@<TRIPOS>MOLECULE
TUFBEB
    41    37     2
SMALL
NO_CHARGES
****
Generated from CSD

@<TRIPOS>ATOM
      1 O1         4.9515    9.2822    0.3571 O.3       1 RES1    0.0000
      2 O2        -0.1632    6.6786   -3.9493 Du        2 SUP2    0.0000
      3 O3        -0.4861    8.5552   -3.8079 O.2       1 RES1    0.0000
      4 O4        -1.8991    7.2307   -2.8048 O.2       1 RES1    0.0000
      5 O5        -1.9078    7.3696   -2.8280 Du        2 SUP2    0.0000
      6 N1         6.7586    8.5463    1.4227 N.3       1 RES1    0.0000
      7 N2         6.2765    5.0260    1.9909 N.1       1 RES1    0.0000
      8 N3         1.7665    7.8458   -0.7079 N.pl3     1 RES1    0.0000
      9 N4         1.4682    7.4138   -1.9218 N.2       1 RES1    0.0000
     10 N5         1.3053    8.1339   -1.8235 Du        2 SUP2    0.0000
     11 N6        -0.2802    8.2662   -0.8427 N.2       1 RES1    0.0000
     12 N7        -0.2623    7.0095   -0.6972 Du        2 SUP2    0.0000
     13 N8         0.7848    8.4767   -0.0912 N.2       1 RES1    0.0000
     14 N9         0.8079    7.0491    0.0665 Du        2 SUP2    0.0000
     15 N10       -0.6830    7.1502   -2.9800 N.pl3     1 RES1    0.0000
     16 N11       -0.8465    7.8376   -2.9014 Du        2 SUP2    0.0000
     17 C1         5.5878    8.1919    0.8857 C.2       1 RES1    0.0000
     18 C2         5.0420    6.9554    0.8518 C.2       1 RES1    0.0000
     19 C3         3.7715    6.6264    0.0950 C.3       1 RES1    0.0000
     20 C4         3.1128    7.9384   -0.2184 C.2       1 RES1    0.0000
     21 C5         3.6624    9.1364   -0.1302 C.2       1 RES1    0.0000
     22 C6         3.1005   10.4568   -0.4982 C.3       1 RES1    0.0000
     23 C7         5.7339    5.8880    1.4755 C.1       1 RES1    0.0000
     24 C8         4.0415    5.8116   -1.1575 C.ar      1 RES1    0.0000
     25 C9         5.0036    6.2273   -2.0591 C.ar      1 RES1    0.0000
     26 C10        5.2769    5.5068   -3.1922 C.ar      1 RES1    0.0000
     27 C11        4.6039    4.3433   -3.4416 C.ar      1 RES1    0.0000
     28 C12        3.6541    3.9201   -2.5640 C.ar      1 RES1    0.0000
     29 C13        3.3691    4.6372   -1.4272 C.ar      1 RES1    0.0000
     30 C14        0.1202    7.6404   -1.8516 C.2       1 RES1    0.0000
     31 H1         7.3224    7.9487    1.7430 H         1 RES1    0.0000
     32 H2         6.9651    9.3417    1.4772 H         1 RES1    0.0000
     33 H3         3.1817    6.0811    0.6367 H         1 RES1    0.0000
     34 H4         2.9868   10.9647    0.3073 H         1 RES1    0.0000
     35 H5         3.7309   10.9610   -1.0044 H         1 RES1    0.0000
     36 H6         2.3324   10.3512   -0.9195 H         1 RES1    0.0000
     37 H7         5.5104    6.9577   -1.8483 H         1 RES1    0.0000
     38 H8         5.9179    5.8143   -3.8145 H         1 RES1    0.0000
     39 H9         4.7539    3.9074   -4.2509 H         1 RES1    0.0000
     40 H10        3.1568    3.0848   -2.6582 H         1 RES1    0.0000
     41 H11        2.7405    4.3733   -0.7692 H         1 RES1    0.0000
@<TRIPOS>BOND
     1    1   17 1
     2    3   15 2
     3    4   15 2
     4    6   17 1
     5    7   23 3
     6    8    9 1
     7    9   30 2
     8   11   13 2
     9   13    8 1
    10   15   30 1
    11   17   18 2
    12   18   19 1
    13   19   20 1
    14   20    8 1
    15   21    1 1
    16   22   21 1
    17   23   18 1
    18   24   19 1
    19   25   24 ar
    20   26   25 ar
    21   27   26 ar
    22   28   27 ar
    23   29   24 ar
    24   30   11 1
    25   31    6 1
    26   32    6 1
    27   33   19 1
    28   34   22 1
    29   35   22 1
    30   36   22 1
    31   37   25 1
    32   38   26 1
    33   39   27 1
    34   40   28 1
    35   41   29 1
    36   20   21 2
    37   28   29 ar
@<TRIPOS>SUBSTRUCTURE
     1 RES1 1
     2 SUP2 2

@<TRIPOS>CRYSIN
  14.4040   12.2950    8.4910  90.0000  90.9200  90.0000  14 1

