# MOL2 file generated by ConQuest
# Please check atom types

@<TRIPOS>MOLECULE
TUFFEF
    42    44     2
SMALL
NO_CHARGES
****
Generated from CSD

@<TRIPOS>ATOM
      1 N1         8.0452    8.5802    0.4045 N.pl3     1 RES1    0.0000
      2 O1         8.2863    9.7753    0.3697 O.2       1 RES1    0.0000
      3 O2         8.7457    7.7480   -0.1562 O.2       1 RES1    0.0000
      4 C1         3.6167    6.6029    3.3452 C.3       1 RES1    0.0000
      5 H1         3.5658    6.8970    4.2680 H         1 RES1    0.0000
      6 H2         2.7664    6.7781    2.9125 H         1 RES1    0.0000
      7 C2         3.9692    5.1434    3.2633 C.3       1 RES1    0.0000
      8 H3         3.1734    4.6131    3.1034 H         1 RES1    0.0000
      9 H4         4.3753    4.8493    4.0940 H         1 RES1    0.0000
     10 C3         4.9477    4.9901    2.1138 C.3       1 RES1    0.0000
     11 H5         5.6521    4.3628    2.3396 H         1 RES1    0.0000
     12 H6         4.4955    4.6804    1.3132 H         1 RES1    0.0000
     13 C4         5.4997    6.3683    1.9181 C.ar      1 RES1    0.0000
     14 C5         6.5956    6.7797    1.1909 C.ar      1 RES1    0.0000
     15 H7         7.1223    6.1680    0.7291 H         1 RES1    0.0000
     16 C6         6.8832    8.1218    1.1702 C.ar      1 RES1    0.0000
     17 C7         6.1439    9.0557    1.8494 C.ar      1 RES1    0.0000
     18 H8         6.3750    9.9568    1.8193 H         1 RES1    0.0000
     19 C8         5.0624    8.6365    2.5738 C.ar      1 RES1    0.0000
     20 H9         4.5445    9.2560    3.0347 H         1 RES1    0.0000
     21 C9         4.7398    7.2975    2.6208 C.ar      1 RES1    0.0000
     22 N2         7.9743    4.9823    4.1486 N.pl3     2 RES2    0.0000
     23 O3         7.8768    6.1790    4.3659 O.2       2 RES2    0.0000
     24 O4         7.2454    4.1579    4.7083 O.2       2 RES2    0.0000
     25 C10       12.1204    2.9534    0.8871 C.3       2 RES2    0.0000
     26 H10       12.9942    3.1599    1.2549 H         2 RES2    0.0000
     27 H11       12.1027    3.2178   -0.0461 H         2 RES2    0.0000
     28 C11       11.8079    1.4845    1.0338 C.3       2 RES2    0.0000
     29 H12       11.5065    1.1232    0.1853 H         2 RES2    0.0000
     30 H13       12.6046    1.0012    1.3048 H         2 RES2    0.0000
     31 C12       10.7298    1.3250    2.0762 C.3       2 RES2    0.0000
     32 H14       11.0833    0.9167    2.8805 H         2 RES2    0.0000
     33 H15       10.0014    0.7790    1.7394 H         2 RES2    0.0000
     34 C13       10.2633    2.7375    2.3480 C.ar      2 RES2    0.0000
     35 C14        9.2307    3.1615    3.1627 C.ar      2 RES2    0.0000
     36 H16        8.6995    2.5545    3.6265 H         2 RES2    0.0000
     37 C15        9.0211    4.5083    3.2568 C.ar      2 RES2    0.0000
     38 C16        9.7613    5.4391    2.5540 C.ar      2 RES2    0.0000
     39 H17        9.5703    6.3479    2.6208 H         2 RES2    0.0000
     40 C17       10.7801    4.9932    1.7573 C.ar      2 RES2    0.0000
     41 H18       11.2975    5.6033    1.2822 H         2 RES2    0.0000
     42 C18       11.0425    3.6511    1.6557 C.ar      2 RES2    0.0000
@<TRIPOS>BOND
     1    1    2 2
     2    3    1 2
     3    4    5 1
     4    6    4 1
     5    7    4 1
     6    8    7 1
     7    9    7 1
     8   10    7 1
     9   11   10 1
    10   12   10 1
    11   13   10 1
    12   14   13 ar
    13   15   14 1
    14   16    1 1
    15   17   16 ar
    16   18   17 1
    17   19   17 ar
    18   20   19 1
    19   21    4 1
    20   22   23 2
    21   24   22 2
    22   25   26 1
    23   27   25 1
    24   28   25 1
    25   29   28 1
    26   30   28 1
    27   31   28 1
    28   32   31 1
    29   33   31 1
    30   34   31 1
    31   35   34 ar
    32   36   35 1
    33   37   22 1
    34   38   37 ar
    35   39   38 1
    36   40   38 ar
    37   41   40 1
    38   42   25 1
    39   13   21 ar
    40   14   16 ar
    41   19   21 ar
    42   34   42 ar
    43   35   37 ar
    44   40   42 ar
@<TRIPOS>SUBSTRUCTURE
     1 RES1 1
     2 RES2 22

@<TRIPOS>CRYSIN
  10.9460   15.6430    9.4150  90.0000  92.3400  90.0000  14 1

