# MOL2 file generated by ConQuest
# Please check atom types

@<TRIPOS>MOLECULE
TUFLOX
    54    55     1
SMALL
NO_CHARGES
****
Generated from CSD

@<TRIPOS>ATOM
      1 O1         8.4272    5.0155    5.3662 O.2       1 RES1    0.0000
      2 N1         7.8556    4.8177    4.2330 N.3       1 RES1    0.0000
      3 C1         5.8738    4.2620    0.5208 C.1       1 RES1    0.0000
      4 C2         6.5503    4.4698    1.7657 C.2       1 RES1    0.0000
      5 C3         7.5348    5.3993    1.8767 C.2       1 RES1    0.0000
      6 H1         7.6929    5.9658    1.1308 H         1 RES1    0.0000
      7 C4         8.3815    5.5920    3.0791 C.3       1 RES1    0.0000
      8 C5         7.0797    3.5611    4.0667 C.3       1 RES1    0.0000
      9 C6         6.1503    3.7113    2.9266 C.3       1 RES1    0.0000
     10 H2         5.9144    2.8018    2.6164 H         1 RES1    0.0000
     11 H3         5.3201    4.1227    3.2752 H         1 RES1    0.0000
     12 C7         8.3462    7.0764    3.4588 C.3       1 RES1    0.0000
     13 H4         7.4238    7.3409    3.6601 H         1 RES1    0.0000
     14 H5         8.6846    7.6129    2.7118 H         1 RES1    0.0000
     15 H6         8.9077    7.2249    4.2483 H         1 RES1    0.0000
     16 C8         9.8152    5.1999    2.7834 C.3       1 RES1    0.0000
     17 H7         9.8437    4.2695    2.4764 H         1 RES1    0.0000
     18 H8        10.3536    5.2916    3.5968 H         1 RES1    0.0000
     19 H9        10.1768    5.7848    2.0842 H         1 RES1    0.0000
     20 C9         8.0541    2.4305    3.7908 C.3       1 RES1    0.0000
     21 H10        8.4559    2.5549    2.9058 H         1 RES1    0.0000
     22 H11        7.5766    1.5753    3.8167 H         1 RES1    0.0000
     23 H12        8.7584    2.4322    4.4734 H         1 RES1    0.0000
     24 C10        6.2988    3.3609    5.3397 C.3       1 RES1    0.0000
     25 H13        5.7977    4.1777    5.5472 H         1 RES1    0.0000
     26 H14        6.9158    3.1606    6.0742 H         1 RES1    0.0000
     27 H15        5.6739    2.6149    5.2256 H         1 RES1    0.0000
     28 O1B        2.7542    3.3283   -5.3662 O.2       1 RES1    0.0000
     29 N1B        3.3258    3.5261   -4.2330 N.3       1 RES1    0.0000
     30 C1B        5.3076    4.0818   -0.5208 C.1       1 RES1    0.0000
     31 C2B        4.6311    3.8740   -1.7657 C.2       1 RES1    0.0000
     32 C3B        3.6466    2.9445   -1.8767 C.2       1 RES1    0.0000
     33 H1B        3.4885    2.3780   -1.1308 H         1 RES1    0.0000
     34 C4B        2.7999    2.7518   -3.0791 C.3       1 RES1    0.0000
     35 C5B        4.1017    4.7827   -4.0667 C.3       1 RES1    0.0000
     36 C6B        5.0311    4.6325   -2.9266 C.3       1 RES1    0.0000
     37 H2B        5.2670    5.5420   -2.6164 H         1 RES1    0.0000
     38 H3B        5.8613    4.2211   -3.2752 H         1 RES1    0.0000
     39 C7B        2.8352    1.2674   -3.4588 C.3       1 RES1    0.0000
     40 H4B        3.7576    1.0029   -3.6601 H         1 RES1    0.0000
     41 H5B        2.4968    0.7309   -2.7118 H         1 RES1    0.0000
     42 H6B        2.2737    1.1189   -4.2483 H         1 RES1    0.0000
     43 C8B        1.3662    3.1439   -2.7834 C.3       1 RES1    0.0000
     44 H7B        1.3377    4.0743   -2.4764 H         1 RES1    0.0000
     45 H8B        0.8278    3.0522   -3.5968 H         1 RES1    0.0000
     46 H9B        1.0046    2.5590   -2.0842 H         1 RES1    0.0000
     47 C9B        3.1273    5.9133   -3.7908 C.3       1 RES1    0.0000
     48 H10B       2.7255    5.7889   -2.9058 H         1 RES1    0.0000
     49 H11B       3.6048    6.7685   -3.8167 H         1 RES1    0.0000
     50 H12B       2.4230    5.9116   -4.4734 H         1 RES1    0.0000
     51 C10B       4.8826    4.9829   -5.3397 C.3       1 RES1    0.0000
     52 H13B       5.3837    4.1661   -5.5472 H         1 RES1    0.0000
     53 H14B       4.2656    5.1832   -6.0742 H         1 RES1    0.0000
     54 H15B       5.5075    5.7289   -5.2256 H         1 RES1    0.0000
@<TRIPOS>BOND
     1    1    2 1
     2    2    7 1
     3    3    4 1
     4    4    5 2
     5    5    6 1
     6    7    5 1
     7    8    2 1
     8    9    4 1
     9   10    9 1
    10   11    9 1
    11   12    7 1
    12   13   12 1
    13   14   12 1
    14   15   12 1
    15   16    7 1
    16   17   16 1
    17   18   16 1
    18   19   16 1
    19   20    8 1
    20   21   20 1
    21   22   20 1
    22   23   20 1
    23   24    8 1
    24   25   24 1
    25   26   24 1
    26   27   24 1
    27   28   29 1
    28   29   34 1
    29   30    3 3
    30   31   30 1
    31   32   31 2
    32   33   32 1
    33   34   32 1
    34   35   29 1
    35   36   31 1
    36   37   36 1
    37   38   36 1
    38   39   34 1
    39   40   39 1
    40   41   39 1
    41   42   39 1
    42   43   34 1
    43   44   43 1
    44   45   43 1
    45   46   43 1
    46   47   35 1
    47   48   47 1
    48   49   47 1
    49   50   47 1
    50   51   35 1
    51   52   51 1
    52   53   51 1
    53   54   51 1
    54    8    9 1
    55   35   36 1
@<TRIPOS>SUBSTRUCTURE
     1 RES1 1

@<TRIPOS>CRYSIN
  11.1814    8.3438   10.6146  90.0000 102.2140  90.0000  14 1

