# MOL2 file generated by ConQuest
# Please check atom types

@<TRIPOS>MOLECULE
TUGTUL
    78    80     2
SMALL
NO_CHARGES
****
Generated from CSD

@<TRIPOS>ATOM
      1 O1         6.4913    4.2163    9.7997 O.3       1 RES1    0.0000
      2 O2         9.1887    2.9348    9.0213 O.2       1 RES1    0.0000
      3 O3         9.1467    4.8751    8.0926 O.2       1 RES1    0.0000
      4 O4        12.0343    5.1222   11.9085 O.3       1 RES1    0.0000
      5 O5        14.1521    8.7462   12.6138 O.2       1 RES1    0.0000
      6 O6        15.1436    7.5968   14.2886 O.3       1 RES1    0.0000
      7 O7        14.8691    2.3009    7.1794 O.3       2 RES2    0.0000
      8 O8        12.3483    2.5657    8.7403 O.2       2 RES2    0.0000
      9 O9        11.9698    3.9785    7.1373 O.2       2 RES2    0.0000
     10 O10        9.3389    0.5008    5.6578 O.3       2 RES2    0.0000
     11 O11        7.1520    0.9682    2.0428 O.2       2 RES2    0.0000
     12 O12        6.2151   -1.0345    2.5781 O.3       2 RES2    0.0000
     13 N1         9.0374    4.1422    9.0396 N.pl3     1 RES1    0.0000
     14 N2        12.2971    2.8878    7.5658 N.pl3     2 RES2    0.0000
     15 C1         9.7073    5.2000   11.1948 C.ar      1 RES1    0.0000
     16 C2         9.3134    5.7703   12.4354 C.ar      1 RES1    0.0000
     17 H1         9.9625    6.1132   13.0044 H         1 RES1    0.0000
     18 C3         8.0021    5.8246   12.8077 C.ar      1 RES1    0.0000
     19 H2         7.7775    6.2050   13.6268 H         1 RES1    0.0000
     20 C4         6.9740    5.3142   11.9732 C.ar      1 RES1    0.0000
     21 H3         6.0821    5.3419   12.2387 H         1 RES1    0.0000
     22 C5         7.3487    4.7580   10.7199 C.ar      1 RES1    0.0000
     23 C6         8.6881    4.7445   10.3898 C.ar      1 RES1    0.0000
     24 C7         5.0988    4.1174   10.1931 C.3       1 RES1    0.0000
     25 H4         5.0240    3.5567   10.9700 H         1 RES1    0.0000
     26 H5         4.5893    3.7370    9.4751 H         1 RES1    0.0000
     27 H6         4.7602    4.9921   10.3968 H         1 RES1    0.0000
     28 C8        11.1511    5.1551   10.7298 C.3       1 RES1    0.0000
     29 H7        11.2872    4.3316   10.2141 H         1 RES1    0.0000
     30 C9        11.6237    6.3092    9.9135 C.3       1 RES1    0.0000
     31 H8        10.8882    6.7238    9.4358 H         1 RES1    0.0000
     32 H9        12.3014    6.0340    9.2770 H         1 RES1    0.0000
     33 C10       12.2037    7.2553   10.9574 C.3       1 RES1    0.0000
     34 H10       12.9485    7.7583   10.5921 H         1 RES1    0.0000
     35 H11       11.5294    7.8767   11.2735 H         1 RES1    0.0000
     36 C11       12.6502    6.3701   12.0420 C.2       1 RES1    0.0000
     37 C12       13.5145    6.4902   13.0536 C.2       1 RES1    0.0000
     38 H12       13.6413    5.7745   13.6338 H         1 RES1    0.0000
     39 C13       14.2793    7.7556   13.2686 C.2       1 RES1    0.0000
     40 C14       16.0042    8.7538   14.5274 C.3       1 RES1    0.0000
     41 H13       15.4667    9.5535   14.6384 H         1 RES1    0.0000
     42 H14       16.6002    8.8879   13.7729 H         1 RES1    0.0000
     43 C15       16.7959    8.4879   15.7694 C.3       1 RES1    0.0000
     44 H15       16.1972    8.3180   16.5000 H         1 RES1    0.0000
     45 H16       17.3396    9.2537   15.9717 H         1 RES1    0.0000
     46 H17       17.3588    7.7229   15.6317 H         1 RES1    0.0000
     47 C16       11.6495    1.2021    5.8264 C.ar      2 RES2    0.0000
     48 C17       12.0555    0.2184    4.9019 C.ar      2 RES2    0.0000
     49 H18       11.4199   -0.2456    4.4060 H         2 RES2    0.0000
     50 C18       13.4189   -0.0601    4.7319 C.ar      2 RES2    0.0000
     51 H19       13.6726   -0.7172    4.1250 H         2 RES2    0.0000
     52 C19       14.3896    0.6100    5.4330 C.ar      2 RES2    0.0000
     53 H20       15.2884    0.4307    5.2757 H         2 RES2    0.0000
     54 C20       14.0178    1.5707    6.3926 C.ar      2 RES2    0.0000
     55 C21       12.6789    1.8520    6.5275 C.ar      2 RES2    0.0000
     56 C22       16.2925    2.1036    6.9588 C.3       2 RES2    0.0000
     57 H21       16.5354    1.2120    7.2159 H         2 RES2    0.0000
     58 H22       16.7892    2.7346    7.4857 H         2 RES2    0.0000
     59 H23       16.4937    2.2349    6.0301 H         2 RES2    0.0000
     60 C23       10.2083    1.6195    5.9922 C.3       2 RES2    0.0000
     61 H24       10.0562    1.8693    6.9279 H         2 RES2    0.0000
     62 C24        9.7665    2.7450    5.1155 C.3       2 RES2    0.0000
     63 H25       10.5205    3.2858    4.8345 H         2 RES2    0.0000
     64 H26        9.1220    3.3102    5.5707 H         2 RES2    0.0000
     65 C25        9.1205    2.0212    3.9100 C.3       2 RES2    0.0000
     66 H27        8.3604    2.5205    3.5728 H         2 RES2    0.0000
     67 H28        9.7624    1.9014    3.1935 H         2 RES2    0.0000
     68 C26        8.6998    0.7316    4.4552 C.2       2 RES2    0.0000
     69 C27        7.8554   -0.1894    4.0126 C.2       2 RES2    0.0000
     70 H29        7.7491   -0.9841    4.4847 H         2 RES2    0.0000
     71 C28        7.0874    0.0378    2.7804 C.2       2 RES2    0.0000
     72 C29        5.3685   -0.8458    1.3994 C.3       2 RES2    0.0000
     73 H30        5.9131   -0.7089    0.6098 H         2 RES2    0.0000
     74 H31        4.7911   -0.0750    1.5174 H         2 RES2    0.0000
     75 C30        4.5354   -2.1191    1.2589 C.3       2 RES2    0.0000
     76 H32        5.1202   -2.8756    1.1760 H         2 RES2    0.0000
     77 H33        3.9831   -2.0549    0.4763 H         2 RES2    0.0000
     78 H34        3.9815   -2.2259    2.0358 H         2 RES2    0.0000
@<TRIPOS>BOND
     1    1   22 1
     2    2   13 2
     3    3   13 2
     4    4   28 1
     5    5   39 2
     6    6   39 1
     7    7   54 1
     8    8   14 2
     9    9   14 2
    10   10   60 1
    11   11   71 2
    12   12   71 1
    13   13   23 1
    14   14   55 1
    15   15   16 ar
    16   16   17 1
    17   18   16 ar
    18   19   18 1
    19   20   18 ar
    20   21   20 1
    21   22   20 ar
    22   23   15 ar
    23   24    1 1
    24   25   24 1
    25   26   24 1
    26   27   24 1
    27   28   15 1
    28   29   28 1
    29   30   28 1
    30   31   30 1
    31   32   30 1
    32   33   30 1
    33   34   33 1
    34   35   33 1
    35   36    4 1
    36   37   36 2
    37   38   37 1
    38   39   37 1
    39   40    6 1
    40   41   40 1
    41   42   40 1
    42   43   40 1
    43   44   43 1
    44   45   43 1
    45   46   43 1
    46   47   48 ar
    47   48   49 1
    48   50   48 ar
    49   51   50 1
    50   52   50 ar
    51   53   52 1
    52   54   52 ar
    53   55   47 ar
    54   56    7 1
    55   57   56 1
    56   58   56 1
    57   59   56 1
    58   60   47 1
    59   61   60 1
    60   62   60 1
    61   63   62 1
    62   64   62 1
    63   65   62 1
    64   66   65 1
    65   67   65 1
    66   68   10 1
    67   69   68 2
    68   70   69 1
    69   71   69 1
    70   72   12 1
    71   73   72 1
    72   74   72 1
    73   75   72 1
    74   76   75 1
    75   77   75 1
    76   78   75 1
    77   22   23 ar
    78   33   36 1
    79   54   55 ar
    80   65   68 1
@<TRIPOS>SUBSTRUCTURE
     1 RES1 1
     2 RES2 7

@<TRIPOS>CRYSIN
   9.8440   11.1830   14.3900  87.4400  77.5700  72.7400   2 1

