# MOL2 file generated by ConQuest
# Please check atom types

@<TRIPOS>MOLECULE
TUGXID
    56    61     1
SMALL
NO_CHARGES
****
Generated from CSD

@<TRIPOS>ATOM
      1 O1         4.3087    5.2850    0.6545 O.3       1 RES1    0.0000
      2 O2         4.1487    0.9615    2.0013 O.3       1 RES1    0.0000
      3 N1         3.2996    4.8770   -0.3036 N.3       1 RES1    0.0000
      4 C1         2.4703    3.8590    0.3858 C.3       1 RES1    0.0000
      5 H1         2.0462    4.2891    1.1586 H         1 RES1    0.0000
      6 C2         1.3624    3.4504   -0.5941 C.ar      1 RES1    0.0000
      7 C3         0.8029    2.1702   -0.5687 C.ar      1 RES1    0.0000
      8 H2         1.1304    1.5401    0.0317 H         1 RES1    0.0000
      9 C4        -0.2330    1.8212   -1.4253 C.ar      1 RES1    0.0000
     10 H3        -0.5892    0.9629   -1.4049 H         1 RES1    0.0000
     11 C5        -0.7303    2.7596   -2.3082 C.ar      1 RES1    0.0000
     12 H4        -1.4430    2.5428   -2.8656 H         1 RES1    0.0000
     13 C6        -0.1671    4.0198   -2.3606 C.ar      1 RES1    0.0000
     14 H5        -0.5007    4.6410   -2.9668 H         1 RES1    0.0000
     15 C7         0.8865    4.3798   -1.5278 C.ar      1 RES1    0.0000
     16 C8         1.5293    5.7328   -1.6970 C.3       1 RES1    0.0000
     17 H6         0.8365    6.4108   -1.7357 H         1 RES1    0.0000
     18 H7         2.0118    5.7512   -2.5378 H         1 RES1    0.0000
     19 C9         2.4903    6.0679   -0.5662 C.3       1 RES1    0.0000
     20 H8         3.0600    6.8113   -0.8203 H         1 RES1    0.0000
     21 H9         1.9952    6.3181    0.2296 H         1 RES1    0.0000
     22 C10        5.6036    4.8468    0.1760 C.3       1 RES1    0.0000
     23 H10        5.8960    5.4508   -0.5378 H         1 RES1    0.0000
     24 C11        6.5370    4.9992    1.3532 C.ar      1 RES1    0.0000
     25 C12        7.8840    5.2930    1.1298 C.ar      1 RES1    0.0000
     26 H11        8.2013    5.3713    0.2583 H         1 RES1    0.0000
     27 C13        8.7500    5.4691    2.1946 C.ar      1 RES1    0.0000
     28 H12        9.6458    5.6599    2.0363 H         1 RES1    0.0000
     29 C14        8.2887    5.3626    3.4949 C.ar      1 RES1    0.0000
     30 H13        8.8680    5.5009    4.2101 H         1 RES1    0.0000
     31 C15        6.9715    5.0518    3.7244 C.ar      1 RES1    0.0000
     32 H14        6.6636    4.9605    4.5968 H         1 RES1    0.0000
     33 C16        6.0946    4.8717    2.6635 C.ar      1 RES1    0.0000
     34 H15        5.2045    4.6646    2.8309 H         1 RES1    0.0000
     35 C17        5.5318    3.4160   -0.3841 C.3       1 RES1    0.0000
     36 H16        5.1346    3.4366   -1.2689 H         1 RES1    0.0000
     37 H17        6.4282    3.0567   -0.4653 H         1 RES1    0.0000
     38 C18        4.7177    2.5243    0.5061 C.2       1 RES1    0.0000
     39 C19        5.1547    1.4435    1.1976 C.2       1 RES1    0.0000
     40 C20        6.4235    0.6791    1.2351 C.3       1 RES1    0.0000
     41 H18        6.2913   -0.1796    0.8278 H         1 RES1    0.0000
     42 H19        6.6999    0.5625    2.1466 H         1 RES1    0.0000
     43 H20        7.1013    1.1603    0.7538 H         1 RES1    0.0000
     44 C21        3.3466    2.7451    0.8984 C.2       1 RES1    0.0000
     45 C22        3.0466    1.7841    1.8328 C.2       1 RES1    0.0000
     46 C23        1.9205    1.4566    2.7020 C.ar      1 RES1    0.0000
     47 C24        0.7311    2.1990    2.7076 C.ar      1 RES1    0.0000
     48 H21        0.6446    2.9315    2.1420 H         1 RES1    0.0000
     49 C25       -0.3198    1.8526    3.5490 C.ar      1 RES1    0.0000
     50 H22       -1.0998    2.3588    3.5439 H         1 RES1    0.0000
     51 C26       -0.2169    0.7662    4.3886 C.ar      1 RES1    0.0000
     52 H23       -0.9282    0.5242    4.9367 H         1 RES1    0.0000
     53 C27        0.9568    0.0406    4.4068 C.ar      1 RES1    0.0000
     54 H24        1.0375   -0.6847    4.9820 H         1 RES1    0.0000
     55 C28        2.0072    0.3728    3.5892 C.ar      1 RES1    0.0000
     56 H25        2.7898   -0.1281    3.6240 H         1 RES1    0.0000
@<TRIPOS>BOND
     1    1    3 1
     2    2   39 1
     3    3    4 1
     4    4    5 1
     5    6    4 1
     6    7    6 ar
     7    8    7 1
     8    9    7 ar
     9   10    9 1
    10   11    9 ar
    11   12   11 1
    12   13   11 ar
    13   14   13 1
    14   15    6 ar
    15   16   15 1
    16   17   16 1
    17   18   16 1
    18   19    3 1
    19   20   19 1
    20   21   19 1
    21   22    1 1
    22   23   22 1
    23   24   22 1
    24   25   24 ar
    25   26   25 1
    26   27   25 ar
    27   28   27 1
    28   29   27 ar
    29   30   29 1
    30   31   29 ar
    31   32   31 1
    32   33   24 ar
    33   34   33 1
    34   35   22 1
    35   36   35 1
    36   37   35 1
    37   38   35 1
    38   39   38 2
    39   40   39 1
    40   41   40 1
    41   42   40 1
    42   43   40 1
    43   44    4 1
    44   45    2 1
    45   46   45 1
    46   47   46 ar
    47   48   47 1
    48   49   47 ar
    49   50   49 1
    50   51   49 ar
    51   52   51 1
    52   53   51 ar
    53   54   53 1
    54   55   46 ar
    55   56   55 1
    56   13   15 ar
    57   16   19 1
    58   31   33 ar
    59   38   44 1
    60   44   45 2
    61   53   55 ar
@<TRIPOS>SUBSTRUCTURE
     1 RES1 1

@<TRIPOS>CRYSIN
   9.5186   14.7240   15.1860  90.0000  95.8800  90.0000 231 1

