# MOL2 file generated by ConQuest
# Please check atom types

@<TRIPOS>MOLECULE
TUGXEZ
    68    73     1
SMALL
NO_CHARGES
****
Generated from CSD

@<TRIPOS>ATOM
      1 O1        -0.3906    1.1524    6.9624 O.3       1 RES1    0.0000
      2 O2         4.1384    3.0983    7.6956 O.3       1 RES1    0.0000
      3 N1         3.0290    3.9058    8.1219 N.3       1 RES1    0.0000
      4 C1        -0.7639    2.4453   10.3648 C.ar      1 RES1    0.0000
      5 H1         0.1189    2.4405   10.6569 H         1 RES1    0.0000
      6 C2        -1.7790    2.7283   11.2587 C.ar      1 RES1    0.0000
      7 H2        -1.5724    2.9423   12.1393 H         1 RES1    0.0000
      8 C3        -3.0972    2.6954   10.8525 C.ar      1 RES1    0.0000
      9 H3        -3.7764    2.8771   11.4605 H         1 RES1    0.0000
     10 C4        -3.4058    2.3931    9.5425 C.ar      1 RES1    0.0000
     11 H4        -4.2943    2.3553    9.2715 H         1 RES1    0.0000
     12 C5        -2.3974    2.1469    8.6334 C.ar      1 RES1    0.0000
     13 H5        -2.6121    1.9656    7.7466 H         1 RES1    0.0000
     14 C6        -1.0512    2.1676    9.0312 C.ar      1 RES1    0.0000
     15 C7         0.0037    1.8827    8.0616 C.2       1 RES1    0.0000
     16 C8         0.7168    0.9618    6.1780 C.2       1 RES1    0.0000
     17 C9         1.8014    1.5373    6.7537 C.2       1 RES1    0.0000
     18 C10        3.1919    1.4470    6.2108 C.3       1 RES1    0.0000
     19 H6         3.1466    1.1713    5.2812 H         1 RES1    0.0000
     20 H7         3.6723    0.7600    6.6981 H         1 RES1    0.0000
     21 C11        3.9747    2.7412    6.2964 C.3       1 RES1    0.0000
     22 H8         3.4678    3.4488    5.8460 H         1 RES1    0.0000
     23 C12        2.1095    3.0443    8.9195 C.3       1 RES1    0.0000
     24 H9         1.4564    3.6470    9.3321 H         1 RES1    0.0000
     25 C13        1.3316    2.1591    7.9721 C.2       1 RES1    0.0000
     26 C14        0.4957    0.1955    4.9303 C.3       1 RES1    0.0000
     27 H10        1.3392    0.0315    4.5018 H         1 RES1    0.0000
     28 H11       -0.0700    0.7000    4.3406 H         1 RES1    0.0000
     29 H12        0.0746   -0.6414    5.1394 H         1 RES1    0.0000
     30 C15        2.8046    2.3184   10.0626 C.ar      1 RES1    0.0000
     31 C16        3.0708    0.9605   10.0245 C.ar      1 RES1    0.0000
     32 H13        2.8182    0.4649    9.2787 H         1 RES1    0.0000
     33 C17        3.7061    0.3302   11.0781 C.ar      1 RES1    0.0000
     34 H14        3.8719   -0.5831   11.0278 H         1 RES1    0.0000
     35 C18        4.1022    1.0289   12.2077 C.ar      1 RES1    0.0000
     36 C19        3.8294    2.3846   12.2490 C.ar      1 RES1    0.0000
     37 H15        4.0844    2.8795   12.9939 H         1 RES1    0.0000
     38 C20        3.1862    3.0162   11.2062 C.ar      1 RES1    0.0000
     39 H16        3.0030    3.9264   11.2678 H         1 RES1    0.0000
     40 C21        4.8121    0.3431   13.3496 C.3       1 RES1    0.0000
     41 H17        5.7467    0.5607   13.3223 H         1 RES1    0.0000
     42 H18        4.7022   -0.6077   13.2702 H         1 RES1    0.0000
     43 H19        4.4390    0.6401   14.1829 H         1 RES1    0.0000
     44 C22        3.5420    5.0613    8.7973 C.ar      1 RES1    0.0000
     45 C23        2.6379    5.9845    9.3184 C.ar      1 RES1    0.0000
     46 H20        1.7239    5.8390    9.2242 H         1 RES1    0.0000
     47 C24        3.0866    7.1130    9.9733 C.ar      1 RES1    0.0000
     48 H21        2.4656    7.7063   10.3296 H         1 RES1    0.0000
     49 C25        4.4464    7.3876   10.1148 C.ar      1 RES1    0.0000
     50 C26        5.3239    6.4744    9.5569 C.ar      1 RES1    0.0000
     51 H22        6.2370    6.6363    9.6218 H         1 RES1    0.0000
     52 C27        4.8968    5.3284    8.9065 C.ar      1 RES1    0.0000
     53 H23        5.5184    4.7394    8.5442 H         1 RES1    0.0000
     54 C28        4.9454    8.6022   10.8567 C.3       1 RES1    0.0000
     55 H24        4.9045    8.4392   11.8024 H         1 RES1    0.0000
     56 H25        4.3954    9.3584   10.6387 H         1 RES1    0.0000
     57 H26        5.8537    8.7825   10.6011 H         1 RES1    0.0000
     58 C29        5.3655    2.6895    5.7132 C.ar      1 RES1    0.0000
     59 C30        6.0284    1.5082    5.3967 C.ar      1 RES1    0.0000
     60 H27        5.6053    0.6923    5.5394 H         1 RES1    0.0000
     61 C31        7.3050    1.5297    4.8745 C.ar      1 RES1    0.0000
     62 H28        7.7365    0.7314    4.6691 H         1 RES1    0.0000
     63 C32        7.9420    2.7349    4.6572 C.ar      1 RES1    0.0000
     64 H29        8.8079    2.7480    4.3175 H         1 RES1    0.0000
     65 C33        7.2955    3.9185    4.9424 C.ar      1 RES1    0.0000
     66 H30        7.7172    4.7305    4.7782 H         1 RES1    0.0000
     67 C34        6.0191    3.8956    5.4723 C.ar      1 RES1    0.0000
     68 H31        5.5906    4.6966    5.6715 H         1 RES1    0.0000
@<TRIPOS>BOND
     1    1   15 1
     2    2    3 1
     3    3   23 1
     4    4    5 1
     5    6    4 ar
     6    7    6 1
     7    8    6 ar
     8    9    8 1
     9   10    8 ar
    10   11   10 1
    11   12   10 ar
    12   13   12 1
    13   14    4 ar
    14   15   14 1
    15   16    1 1
    16   17   16 2
    17   18   17 1
    18   19   18 1
    19   20   18 1
    20   21    2 1
    21   22   21 1
    22   23   24 1
    23   25   15 2
    24   26   16 1
    25   27   26 1
    26   28   26 1
    27   29   26 1
    28   30   23 1
    29   31   30 ar
    30   32   31 1
    31   33   31 ar
    32   34   33 1
    33   35   33 ar
    34   36   35 ar
    35   37   36 1
    36   38   30 ar
    37   39   38 1
    38   40   35 1
    39   41   40 1
    40   42   40 1
    41   43   40 1
    42   44    3 1
    43   45   44 ar
    44   46   45 1
    45   47   45 ar
    46   48   47 1
    47   49   47 ar
    48   50   49 ar
    49   51   50 1
    50   52   44 ar
    51   53   52 1
    52   54   49 1
    53   55   54 1
    54   56   54 1
    55   57   54 1
    56   58   21 1
    57   59   58 ar
    58   60   59 1
    59   61   59 ar
    60   62   61 1
    61   63   61 ar
    62   64   63 1
    63   65   63 ar
    64   66   65 1
    65   67   58 ar
    66   68   67 1
    67   12   14 ar
    68   17   25 1
    69   18   21 1
    70   23   25 1
    71   36   38 ar
    72   50   52 ar
    73   65   67 ar
@<TRIPOS>SUBSTRUCTURE
     1 RES1 1

@<TRIPOS>CRYSIN
  10.4810   10.6170   12.3830  92.8000 100.6900 101.1200   2 1

