# MOL2 file generated by ConQuest
# Please check atom types

@<TRIPOS>MOLECULE
TUHBAA
   100   108     2
SMALL
NO_CHARGES
****
Generated from CSD

@<TRIPOS>ATOM
      1 C1        12.3336    4.4616    8.6976 C.3       1 RES1    0.0000
      2 H1        11.9740    4.6525    7.8051 H         1 RES1    0.0000
      3 C2        11.5972    3.2355    9.2497 C.3       1 RES1    0.0000
      4 H2        12.0393    2.4323    8.9048 H         1 RES1    0.0000
      5 C3        10.1865    3.2539    8.7296 C.2       1 RES1    0.0000
      6 C4         9.8018    3.0401    7.3628 C.ar      1 RES1    0.0000
      7 C5        10.5177    2.7770    6.1983 C.ar      1 RES1    0.0000
      8 H3        11.4412    2.6678    6.2226 H         1 RES1    0.0000
      9 C6         9.8301    2.6826    5.0083 C.ar      1 RES1    0.0000
     10 H4        10.2967    2.5247    4.2200 H         1 RES1    0.0000
     11 C7         8.4468    2.8204    4.9712 C.ar      1 RES1    0.0000
     12 H5         8.0071    2.7455    4.1551 H         1 RES1    0.0000
     13 C8         7.7139    3.0653    6.1031 C.ar      1 RES1    0.0000
     14 H6         6.7889    3.1507    6.0707 H         1 RES1    0.0000
     15 C9         8.4075    3.1806    7.3007 C.ar      1 RES1    0.0000
     16 C10        9.0388    3.5169    9.4151 C.2       1 RES1    0.0000
     17 H7         8.9910    3.7001   10.3264 H         1 RES1    0.0000
     18 C11       11.6552    3.1957   10.7569 C.ar      1 RES1    0.0000
     19 C12       11.2791    2.0583   11.4547 C.ar      1 RES1    0.0000
     20 H8        11.0117    1.3043   10.9813 H         1 RES1    0.0000
     21 C13       11.2893    2.0151   12.8246 C.ar      1 RES1    0.0000
     22 H9        11.0188    1.2452   13.2701 H         1 RES1    0.0000
     23 C14       11.7018    3.1136   13.5349 C.ar      1 RES1    0.0000
     24 H10       11.7118    3.0900   14.4636 H         1 RES1    0.0000
     25 C15       12.0993    4.2485   12.8751 C.ar      1 RES1    0.0000
     26 H11       12.3930    4.9871   13.3572 H         1 RES1    0.0000
     27 C16       12.0652    4.2978   11.4967 C.ar      1 RES1    0.0000
     28 C17       12.1032    5.6914    9.5691 C.3       1 RES1    0.0000
     29 H12       11.1400    5.8739    9.5709 H         1 RES1    0.0000
     30 C18       12.7930    6.9271    9.0611 C.ar      1 RES1    0.0000
     31 C19       12.2447    7.6277    8.0041 C.ar      1 RES1    0.0000
     32 H13       11.4344    7.3473    7.6442 H         1 RES1    0.0000
     33 C20       12.8670    8.7243    7.4750 C.ar      1 RES1    0.0000
     34 H14       12.4744    9.1850    6.7680 H         1 RES1    0.0000
     35 C21       14.0786    9.1497    7.9886 C.ar      1 RES1    0.0000
     36 C22       15.9890   10.5244    7.6621 C.3       1 RES1    0.0000
     37 H15       16.2608   11.3083    7.1793 H         1 RES1    0.0000
     38 H16       16.5341    9.7800    7.3961 H         1 RES1    0.0000
     39 H17       16.0930   10.6758    8.6053 H         1 RES1    0.0000
     40 C23       14.6361    8.4786    9.0416 C.ar      1 RES1    0.0000
     41 H18       15.4453    8.7645    9.3988 H         1 RES1    0.0000
     42 C24       13.9913    7.3662    9.5771 C.ar      1 RES1    0.0000
     43 H19       14.3748    6.9149   10.2928 H         1 RES1    0.0000
     44 C25        4.6674    8.8724    2.8451 C.3       2 RES2    0.0000
     45 H20        5.1201    8.0122    2.9750 H         2 RES2    0.0000
     46 C26        5.3535    9.9155    3.7553 C.3       2 RES2    0.0000
     47 H21        4.9373    9.8631    4.6402 H         2 RES2    0.0000
     48 C27        6.7922    9.5113    3.8956 C.2       2 RES2    0.0000
     49 C28        7.2535    8.3999    4.6697 C.ar      2 RES2    0.0000
     50 C29        6.6225    7.4580    5.5056 C.ar      2 RES2    0.0000
     51 H22        5.7048    7.4950    5.6527 H         2 RES2    0.0000
     52 C30        7.3862    6.4860    6.0975 C.ar      2 RES2    0.0000
     53 H23        6.9796    5.8559    6.6473 H         2 RES2    0.0000
     54 C31        8.7630    6.4261    5.8869 C.ar      2 RES2    0.0000
     55 H24        9.2539    5.7521    6.2986 H         2 RES2    0.0000
     56 C32        9.4090    7.3287    5.0955 C.ar      2 RES2    0.0000
     57 H25       10.3296    7.2858    4.9687 H         2 RES2    0.0000
     58 C33        8.6462    8.3127    4.4866 C.ar      2 RES2    0.0000
     59 C34        7.8833   10.0290    3.2792 C.2       2 RES2    0.0000
     60 H26        7.8737   10.7618    2.7068 H         2 RES2    0.0000
     61 C35        5.1456   11.3106    3.2255 C.ar      2 RES2    0.0000
     62 C36        5.4439   12.4204    4.0204 C.ar      2 RES2    0.0000
     63 H27        5.8191   12.2882    4.8614 H         2 RES2    0.0000
     64 C37        5.1995   13.6959    3.5937 C.ar      2 RES2    0.0000
     65 H28        5.4247   14.4186    4.1350 H         2 RES2    0.0000
     66 C38        4.6185   13.9108    2.3634 C.ar      2 RES2    0.0000
     67 H29        4.4269   14.7760    2.0832 H         2 RES2    0.0000
     68 C39        4.3237   12.8431    1.5552 C.ar      2 RES2    0.0000
     69 H30        3.9403   12.9853    0.7197 H         2 RES2    0.0000
     70 C40        4.5964   11.5531    1.9810 C.ar      2 RES2    0.0000
     71 C41        4.8126    9.2632    1.3782 C.3       2 RES2    0.0000
     72 H31        5.7711    9.3062    1.1802 H         2 RES2    0.0000
     73 C42        4.2018    8.2503    0.4412 C.ar      2 RES2    0.0000
     74 C43        2.8806    8.3093    0.0659 C.ar      2 RES2    0.0000
     75 H32        2.3534    9.0264    0.3375 H         2 RES2    0.0000
     76 C44        2.3327    7.3126   -0.7097 C.ar      2 RES2    0.0000
     77 H33        1.4377    7.3636   -0.9589 H         2 RES2    0.0000
     78 C45        3.0867    6.2495   -1.1167 C.ar      2 RES2    0.0000
     79 C46        3.0958    4.2761   -2.3760 C.3       2 RES2    0.0000
     80 H34        2.4953    3.7210   -2.8789 H         2 RES2    0.0000
     81 H35        3.4901    3.7627   -1.6674 H         2 RES2    0.0000
     82 H36        3.7865    4.6071   -2.9549 H         2 RES2    0.0000
     83 C47        4.4190    6.1998   -0.7890 C.ar      2 RES2    0.0000
     84 H37        4.9493    5.4966   -1.0885 H         2 RES2    0.0000
     85 C48        4.9637    7.2004   -0.0127 C.ar      2 RES2    0.0000
     86 H38        5.8656    7.1632    0.2079 H         2 RES2    0.0000
     87 N1        13.8085    4.2159    8.5570 N.pl3     1 RES1    0.0000
     88 N2         7.9685    3.4717    8.5655 N.pl3     1 RES1    0.0000
     89 H39        7.1489    3.6049    8.7908 H         1 RES1    0.0000
     90 N3         3.2315    8.6937    3.2027 N.pl3     2 RES2    0.0000
     91 N4         8.9992    9.3172    3.6218 N.pl3     2 RES2    0.0000
     92 H40        9.7965    9.4747    3.3393 H         2 RES2    0.0000
     93 O1        14.4294    3.8259    9.5219 O.2       1 RES1    0.0000
     94 O2        14.3099    4.4049    7.4683 O.2       1 RES1    0.0000
     95 O3        12.4946    5.4661   10.9171 O.3       1 RES1    0.0000
     96 O4        14.6336   10.2410    7.3769 O.3       1 RES1    0.0000
     97 O5         2.8628    7.5753    3.4732 O.2       2 RES2    0.0000
     98 O6         2.4972    9.6471    3.1721 O.2       2 RES2    0.0000
     99 O7         4.2636   10.5425    1.1026 O.3       2 RES2    0.0000
    100 O8         2.4120    5.3199   -1.8496 O.3       2 RES2    0.0000
@<TRIPOS>BOND
     1    1    2 1
     2    3    1 1
     3    4    3 1
     4    5    3 1
     5    6    5 1
     6    7    6 ar
     7    8    7 1
     8    9    7 ar
     9   10    9 1
    10   11    9 ar
    11   12   11 1
    12   13   11 ar
    13   14   13 1
    14   15    6 ar
    15   16    5 2
    16   17   16 1
    17   18    3 1
    18   19   18 ar
    19   20   19 1
    20   21   19 ar
    21   22   21 1
    22   23   21 ar
    23   24   23 1
    24   25   23 ar
    25   26   25 1
    26   27   18 ar
    27   28    1 1
    28   29   28 1
    29   30   28 1
    30   31   30 ar
    31   32   31 1
    32   33   31 ar
    33   34   33 1
    34   35   33 ar
    35   36   37 1
    36   38   36 1
    37   39   36 1
    38   40   35 ar
    39   41   40 1
    40   42   30 ar
    41   43   42 1
    42   44   45 1
    43   46   44 1
    44   47   46 1
    45   48   46 1
    46   49   48 1
    47   50   49 ar
    48   51   50 1
    49   52   50 ar
    50   53   52 1
    51   54   52 ar
    52   55   54 1
    53   56   54 ar
    54   57   56 1
    55   58   49 ar
    56   59   48 2
    57   60   59 1
    58   61   46 1
    59   62   61 ar
    60   63   62 1
    61   64   62 ar
    62   65   64 1
    63   66   64 ar
    64   67   66 1
    65   68   66 ar
    66   69   68 1
    67   70   61 ar
    68   71   44 1
    69   72   71 1
    70   73   71 1
    71   74   73 ar
    72   75   74 1
    73   76   74 ar
    74   77   76 1
    75   78   76 ar
    76   79   80 1
    77   81   79 1
    78   82   79 1
    79   83   78 ar
    80   84   83 1
    81   85   73 ar
    82   86   85 1
    83   87    1 1
    84   88   15 1
    85   89   88 1
    86   90   44 1
    87   91   58 1
    88   92   91 1
    89   93   87 2
    90   94   87 2
    91   95   27 1
    92   96   35 1
    93   97   90 2
    94   98   90 2
    95   99   70 1
    96  100   78 1
    97   13   15 ar
    98   16   88 1
    99   25   27 ar
   100   28   95 1
   101   36   96 1
   102   40   42 ar
   103   56   58 ar
   104   59   91 1
   105   68   70 ar
   106   71   99 1
   107   79  100 1
   108   83   85 ar
@<TRIPOS>SUBSTRUCTURE
     1 RES1 1
     2 RES2 44

@<TRIPOS>CRYSIN
   9.5512    9.7059   22.4393  84.9330  89.4700  81.5060   2 1

