# MOL2 file generated by ConQuest
# Please check atom types

@<TRIPOS>MOLECULE
TUHBII
    42    45     1
SMALL
NO_CHARGES
****
Generated from CSD

@<TRIPOS>ATOM
      1 O1        -1.5354   -3.2052    2.4851 O.2       1 RES1    0.0000
      2 O2        -2.1687   -1.9258    4.1040 O.2       1 RES1    0.0000
      3 O3        -1.0087    1.0980    1.2685 O.3       1 RES1    0.0000
      4 N1        -1.5936   -2.1164    3.0413 N.pl3     1 RES1    0.0000
      5 N2         2.1511   -3.2947    4.9410 N.pl3     1 RES1    0.0000
      6 H1         2.3306   -3.8076    5.6334 H         1 RES1    0.0000
      7 C1        -0.8646   -0.9779    2.3972 C.3       1 RES1    0.0000
      8 H2        -0.4796   -1.3023    1.5322 H         1 RES1    0.0000
      9 C2        -1.8075    0.2074    2.0918 C.3       1 RES1    0.0000
     10 C3        -2.9544   -0.2361    1.2107 C.3       1 RES1    0.0000
     11 H3        -2.6051   -0.7461    0.4501 H         1 RES1    0.0000
     12 H4        -3.4376    0.5507    0.8821 H         1 RES1    0.0000
     13 H5        -3.5650   -0.8012    1.7291 H         1 RES1    0.0000
     14 C4        -2.3030    0.9898    3.2965 C.3       1 RES1    0.0000
     15 H6        -1.5393    1.2620    3.8460 H         1 RES1    0.0000
     16 H7        -2.9035    0.4267    3.8280 H         1 RES1    0.0000
     17 H8        -2.7864    1.7867    2.9920 H         1 RES1    0.0000
     18 C5         0.2554    1.4262    1.7341 C.ar      1 RES1    0.0000
     19 C6         0.8004    2.5898    1.2097 C.ar      1 RES1    0.0000
     20 H9         0.2956    3.1266    0.6099 H         1 RES1    0.0000
     21 C7         2.0845    2.9631    1.5684 C.ar      1 RES1    0.0000
     22 H10        2.4619    3.7616    1.2177 H         1 RES1    0.0000
     23 C8         2.8159    2.1749    2.4334 C.ar      1 RES1    0.0000
     24 H11        3.7020    2.4237    2.6685 H         1 RES1    0.0000
     25 C9         2.2575    1.0229    2.9569 C.ar      1 RES1    0.0000
     26 H12        2.7727    0.4834    3.5456 H         1 RES1    0.0000
     27 C10        0.9573    0.6345    2.6434 C.ar      1 RES1    0.0000
     28 C11        0.2933   -0.5614    3.3105 C.3       1 RES1    0.0000
     29 H13       -0.1179   -0.2250    4.1585 H         1 RES1    0.0000
     30 C12        1.2043   -1.6937    3.6923 C.2       1 RES1    0.0000
     31 C13        1.2147   -2.2949    4.9151 C.2       1 RES1    0.0000
     32 H14        0.6540   -2.0555    5.6445 H         1 RES1    0.0000
     33 C14        2.7634   -3.3709    3.7164 C.ar      1 RES1    0.0000
     34 C15        3.7772   -4.2136    3.2724 C.ar      1 RES1    0.0000
     35 H15        4.1639   -4.8639    3.8481 H         1 RES1    0.0000
     36 C16        4.1958   -4.0732    1.9813 C.ar      1 RES1    0.0000
     37 H16        4.8869   -4.6356    1.6528 H         1 RES1    0.0000
     38 C17        3.6247   -3.1159    1.1263 C.ar      1 RES1    0.0000
     39 H17        3.9328   -3.0507    0.2301 H         1 RES1    0.0000
     40 C18        2.6269   -2.2650    1.5613 C.ar      1 RES1    0.0000
     41 H18        2.2487   -1.6191    0.9766 H         1 RES1    0.0000
     42 C19        2.1839   -2.3800    2.8885 C.ar      1 RES1    0.0000
@<TRIPOS>BOND
     1    1    4 2
     2    2    4 2
     3    3    9 1
     4    4    7 1
     5    5    6 1
     6    7    8 1
     7    9    7 1
     8   10    9 1
     9   11   10 1
    10   12   10 1
    11   13   10 1
    12   14    9 1
    13   15   14 1
    14   16   14 1
    15   17   14 1
    16   18    3 1
    17   19   18 ar
    18   20   19 1
    19   21   19 ar
    20   22   21 1
    21   23   21 ar
    22   24   23 1
    23   25   23 ar
    24   26   25 1
    25   27   18 ar
    26   28    7 1
    27   29   28 1
    28   30   28 1
    29   31    5 1
    30   32   31 1
    31   33    5 1
    32   34   33 ar
    33   35   34 1
    34   36   34 ar
    35   37   36 1
    36   38   36 ar
    37   39   38 1
    38   40   38 ar
    39   41   40 1
    40   42   30 1
    41   25   27 ar
    42   27   28 1
    43   30   31 2
    44   33   42 ar
    45   40   42 ar
@<TRIPOS>SUBSTRUCTURE
     1 RES1 1

@<TRIPOS>CRYSIN
   8.8496    9.1080   10.2057  83.9730  81.0530  80.9410   2 1

