# MOL2 file generated by ConQuest
# Please check atom types

@<TRIPOS>MOLECULE
TUHBEE01
    84    90     2
SMALL
NO_CHARGES
****
Generated from CSD

@<TRIPOS>ATOM
      1 C1         6.8684    8.8675    3.6249 C.3       1 RES1    0.0000
      2 H1         6.5095    9.7914    3.4831 H         1 RES1    0.0000
      3 N1         5.9684    7.9181    2.9356 N.pl3     1 RES1    0.0000
      4 O1         4.9460    8.3635    2.4260 O.2       1 RES1    0.0000
      5 O2         6.2793    6.7066    2.9191 O.2       1 RES1    0.0000
      6 C2         8.3124    8.8242    3.0609 C.3       1 RES1    0.0000
      7 C3         8.2778    8.8802    1.5403 C.3       1 RES1    0.0000
      8 H2         7.7971    8.1039    1.1990 H         1 RES1    0.0000
      9 H3         9.1870    8.8624    1.2023 H         1 RES1    0.0000
     10 H4         7.8305    9.6998    1.2534 H         1 RES1    0.0000
     11 C4         9.1129    9.9263    3.6431 C.3       1 RES1    0.0000
     12 H5         9.1781    9.8105    4.6111 H         1 RES1    0.0000
     13 H6         8.6772   10.7827    3.4468 H         1 RES1    0.0000
     14 H7        10.0105    9.9212    3.2506 H         1 RES1    0.0000
     15 O3         8.9180    7.5567    3.3479 O.3       1 RES1    0.0000
     16 C5         8.7624    7.0146    4.5617 C.ar      1 RES1    0.0000
     17 C6         9.6243    5.9507    4.9311 C.ar      1 RES1    0.0000
     18 H8        10.2995    5.6987    4.3242 H         1 RES1    0.0000
     19 C7         9.5172    5.3322    6.1284 C.ar      1 RES1    0.0000
     20 H9        10.1062    4.6170    6.3395 H         1 RES1    0.0000
     21 C8         8.5935    5.7140    7.0157 C.ar      1 RES1    0.0000
     22 H10        8.5328    5.2686    7.8518 H         1 RES1    0.0000
     23 C9         7.7229    6.7524    6.7139 C.ar      1 RES1    0.0000
     24 H11        7.0873    7.0349    7.3620 H         1 RES1    0.0000
     25 C10        7.7668    7.4078    5.4522 C.ar      1 RES1    0.0000
     26 C11        6.8472    8.5697    5.1455 C.3       1 RES1    0.0000
     27 H12        7.2626    9.3663    5.5842 H         1 RES1    0.0000
     28 C12        5.4765    8.4921    5.6699 C.2       1 RES1    0.0000
     29 C13        4.6581    7.3684    5.6864 C.2       1 RES1    0.0000
     30 H13        4.8967    6.4992    5.3994 H         1 RES1    0.0000
     31 N2         3.4239    7.7476    6.1878 N.pl3     1 RES1    0.0000
     32 H14        2.7302    7.2284    6.2488 H         1 RES1    0.0000
     33 C14        3.4559    9.0482    6.6034 C.ar      1 RES1    0.0000
     34 C15        2.4504    9.8117    7.2202 C.ar      1 RES1    0.0000
     35 H15        1.6028    9.4516    7.4411 H         1 RES1    0.0000
     36 C16        2.7945   11.0971    7.4774 C.ar      1 RES1    0.0000
     37 H16        2.1500   11.6417    7.8930 H         1 RES1    0.0000
     38 C17        3.9788   11.6570    7.1839 C.ar      1 RES1    0.0000
     39 H17        4.1227   12.5707    7.3686 H         1 RES1    0.0000
     40 C18        4.9993   10.8858    6.5836 C.ar      1 RES1    0.0000
     41 H18        5.8488   11.2549    6.3840 H         1 RES1    0.0000
     42 C19        4.7121    9.5598    6.3065 C.ar      1 RES1    0.0000
     43 C20       -0.1941    4.6475    4.8156 C.3       2 RES2    0.0000
     44 H19        0.1832    3.7376    4.9839 H         2 RES2    0.0000
     45 N3         0.6680    5.6720    5.5710 N.pl3     2 RES2    0.0000
     46 O4         1.6576    5.2482    6.1548 O.2       2 RES2    0.0000
     47 O5         0.3666    6.8440    5.5743 O.2       2 RES2    0.0000
     48 C21       -1.6157    4.6908    5.3863 C.3       2 RES2    0.0000
     49 C22       -1.7304    4.6743    6.8738 C.3       2 RES2    0.0000
     50 H20       -2.6700    4.7659    7.1344 H         2 RES2    0.0000
     51 H21       -1.2208    5.4175    7.2432 H         2 RES2    0.0000
     52 H22       -1.3752    3.8356    7.2136 H         2 RES2    0.0000
     53 C23       -2.3750    3.5124    4.7249 C.3       2 RES2    0.0000
     54 H23       -2.3182    3.5951    3.7503 H         2 RES2    0.0000
     55 H24       -3.3134    3.5251    5.0003 H         2 RES2    0.0000
     56 H25       -1.9669    2.6623    5.0036 H         2 RES2    0.0000
     57 O6        -2.3014    5.9010    5.0102 O.3       2 RES2    0.0000
     58 C24       -2.0837    6.4521    3.7486 C.ar      2 RES2    0.0000
     59 C25       -2.9231    7.4854    3.3973 C.ar      2 RES2    0.0000
     60 H26       -3.5928    7.7680    4.0092 H         2 RES2    0.0000
     61 C26       -2.7955    8.1268    2.1967 C.ar      2 RES2    0.0000
     62 H27       -3.4037    8.8064    1.9543 H         2 RES2    0.0000
     63 C27       -1.7740    7.7603    1.3457 C.ar      2 RES2    0.0000
     64 H28       -1.6694    8.1905    0.5063 H         2 RES2    0.0000
     65 C28       -0.8793    6.7282    1.7382 C.ar      2 RES2    0.0000
     66 H29       -0.1560    6.4928    1.1676 H         2 RES2    0.0000
     67 C29       -1.0459    6.0499    2.9520 C.ar      2 RES2    0.0000
     68 C30       -0.1495    4.9122    3.3314 C.3       2 RES2    0.0000
     69 H30       -0.5392    4.0990    2.8976 H         2 RES2    0.0000
     70 C31        1.2746    5.0064    2.8383 C.2       2 RES2    0.0000
     71 C32        2.1116    6.1047    2.8811 C.2       2 RES2    0.0000
     72 H31        1.8859    6.9433    3.2621 H         2 RES2    0.0000
     73 N4         3.2959    5.8081    2.2858 N.pl3     2 RES2    0.0000
     74 H32        3.9767    6.3566    2.2165 H         2 RES2    0.0000
     75 C33        3.2640    4.5228    1.8207 C.ar      2 RES2    0.0000
     76 C34        4.2249    3.7733    1.1280 C.ar      2 RES2    0.0000
     77 H33        5.0699    4.1360    0.9038 H         2 RES2    0.0000
     78 C35        3.8863    2.4816    0.7916 C.ar      2 RES2    0.0000
     79 H34        4.5231    1.9547    0.3397 H         2 RES2    0.0000
     80 C36        2.6716    1.9407    1.0918 C.ar      2 RES2    0.0000
     81 H35        2.4733    1.0563    0.8114 H         2 RES2    0.0000
     82 C37        1.7126    2.6699    1.7943 C.ar      2 RES2    0.0000
     83 H36        0.8747    2.2754    2.0120 H         2 RES2    0.0000
     84 C38        1.9894    3.9731    2.1769 C.ar      2 RES2    0.0000
@<TRIPOS>BOND
     1    1    2 1
     2    3    1 1
     3    4    3 2
     4    5    3 2
     5    6    1 1
     6    7    6 1
     7    8    7 1
     8    9    7 1
     9   10    7 1
    10   11    6 1
    11   12   11 1
    12   13   11 1
    13   14   11 1
    14   15    6 1
    15   16   15 1
    16   17   16 ar
    17   18   17 1
    18   19   17 ar
    19   20   19 1
    20   21   19 ar
    21   22   21 1
    22   23   21 ar
    23   24   23 1
    24   25   16 ar
    25   26    1 1
    26   27   26 1
    27   28   26 1
    28   29   28 2
    29   30   29 1
    30   31   29 1
    31   32   31 1
    32   33   31 1
    33   34   33 ar
    34   35   34 1
    35   36   34 ar
    36   37   36 1
    37   38   36 ar
    38   39   38 1
    39   40   38 ar
    40   41   40 1
    41   42   28 1
    42   43   44 1
    43   45   43 1
    44   46   45 2
    45   47   45 2
    46   48   43 1
    47   49   48 1
    48   50   49 1
    49   51   49 1
    50   52   49 1
    51   53   48 1
    52   54   53 1
    53   55   53 1
    54   56   53 1
    55   57   48 1
    56   58   57 1
    57   59   58 ar
    58   60   59 1
    59   61   59 ar
    60   62   61 1
    61   63   61 ar
    62   64   63 1
    63   65   63 ar
    64   66   65 1
    65   67   58 ar
    66   68   43 1
    67   69   68 1
    68   70   68 1
    69   71   70 2
    70   72   71 1
    71   73   71 1
    72   74   73 1
    73   75   73 1
    74   76   75 ar
    75   77   76 1
    76   78   76 ar
    77   79   78 1
    78   80   78 ar
    79   81   80 1
    80   82   80 ar
    81   83   82 1
    82   84   70 1
    83   23   25 ar
    84   25   26 1
    85   33   42 ar
    86   40   42 ar
    87   65   67 ar
    88   67   68 1
    89   75   84 ar
    90   82   84 ar
@<TRIPOS>SUBSTRUCTURE
     1 RES1 1
     2 RES2 43

@<TRIPOS>CRYSIN
  15.5170   12.7260   16.6270  90.0000  97.3090  90.0000  14 1

