# MOL2 file generated by ConQuest
# Please check atom types

@<TRIPOS>MOLECULE
TUHBEE
   168   180     4
SMALL
NO_CHARGES
****
Generated from CSD

@<TRIPOS>ATOM
      1 C1         6.3437   12.8660    7.7644 C.3       1 RES1    0.0000
      2 H1         5.9692   13.7823    7.6110 H         1 RES1    0.0000
      3 C2         7.8234   12.8240    7.2366 C.3       1 RES1    0.0000
      4 C3         7.5784   12.7896    5.6501 C.3       1 RES1    0.0000
      5 H2         7.0428   11.9955    5.4225 H         1 RES1    0.0000
      6 H3         8.4417   12.7387    5.1867 H         1 RES1    0.0000
      7 H4         7.1019   13.5939    5.3731 H         1 RES1    0.0000
      8 C4         8.5555   13.9095    7.7347 C.3       1 RES1    0.0000
      9 H5         8.6309   13.8370    8.7077 H         1 RES1    0.0000
     10 H6         8.0962   14.7469    7.5055 H         1 RES1    0.0000
     11 H7         9.4509   13.9121    7.3356 H         1 RES1    0.0000
     12 C5         8.2531   10.8935    8.6648 C.ar      1 RES1    0.0000
     13 C6         9.0727    9.9390    9.0623 C.ar      1 RES1    0.0000
     14 H8         9.7739    9.6985    8.4702 H         1 RES1    0.0000
     15 C7         9.0056    9.2773   10.2382 C.ar      1 RES1    0.0000
     16 H9         9.6238    8.5850   10.4394 H         1 RES1    0.0000
     17 C8         8.0825    9.6081   11.0842 C.ar      1 RES1    0.0000
     18 H10        8.0032    9.1169   11.8956 H         1 RES1    0.0000
     19 C9         7.1698   10.6898   10.8203 C.ar      1 RES1    0.0000
     20 H11        6.5133   10.9660   11.4503 H         1 RES1    0.0000
     21 C10        7.3177   11.3236    9.5702 C.ar      1 RES1    0.0000
     22 C11        6.2447   12.5224    9.2618 C.3       1 RES1    0.0000
     23 H12        6.6140   13.3279    9.7335 H         1 RES1    0.0000
     24 C12        4.9286   12.3595    9.7962 C.2       1 RES1    0.0000
     25 C13        4.0803   11.3261    9.7682 C.2       1 RES1    0.0000
     26 H13        4.2575   10.4710    9.3905 H         1 RES1    0.0000
     27 C14        2.8343   13.0187   10.6637 C.ar      1 RES1    0.0000
     28 C15        1.8970   13.7568   11.3415 C.ar      1 RES1    0.0000
     29 H14        1.0722   13.3890   11.6383 H         1 RES1    0.0000
     30 C16        2.2390   15.0421   11.5542 C.ar      1 RES1    0.0000
     31 H15        1.5404   15.6059   11.8593 H         1 RES1    0.0000
     32 C17        3.4789   15.6530   11.3844 C.ar      1 RES1    0.0000
     33 H16        3.6461   16.5374   11.6895 H         1 RES1    0.0000
     34 C18        4.5605   14.8245   10.6818 C.ar      1 RES1    0.0000
     35 H17        5.4124   15.1605   10.4278 H         1 RES1    0.0000
     36 C19        4.1560   13.5850   10.4724 C.ar      1 RES1    0.0000
     37 N1         5.4463   11.8390    7.0783 N.pl3     1 RES1    0.0000
     38 N2         2.9658   11.6863   10.3520 N.pl3     1 RES1    0.0000
     39 H18        2.3294   11.1060   10.5350 H         1 RES1    0.0000
     40 O1         4.4551   12.3799    6.5918 O.2       1 RES1    0.0000
     41 O2         5.8584   10.6949    6.9992 O.2       1 RES1    0.0000
     42 O3         8.4760   11.4979    7.4477 O.3       1 RES1    0.0000
     43 C20       -0.6809    8.6282    8.8776 C.3       2 RES2    0.0000
     44 H19       -0.3254    7.7120    9.0573 H         2 RES2    0.0000
     45 C21       -2.0567    8.7453    9.5142 C.3       2 RES2    0.0000
     46 C22       -2.2290    8.5850   10.9787 C.3       2 RES2    0.0000
     47 H20       -3.1743    8.7020   11.2112 H         2 RES2    0.0000
     48 H21       -1.6932    9.2582   11.4470 H         2 RES2    0.0000
     49 H22       -1.9361    7.6890   11.2475 H         2 RES2    0.0000
     50 C23       -2.9279    7.4434    8.8545 C.3       2 RES2    0.0000
     51 H23       -2.8925    7.4893    7.8765 H         2 RES2    0.0000
     52 H24       -3.8613    7.4931    9.1514 H         2 RES2    0.0000
     53 H25       -2.5339    6.5997    9.1580 H         2 RES2    0.0000
     54 C24       -2.5772   10.4735    7.9227 C.ar      2 RES2    0.0000
     55 C25       -3.4000   11.5132    7.4296 C.ar      2 RES2    0.0000
     56 H26       -4.0530   11.8288    8.0447 H         2 RES2    0.0000
     57 C26       -3.4085   12.0642    6.3708 C.ar      2 RES2    0.0000
     58 H27       -4.0810   12.6827    6.1218 H         2 RES2    0.0000
     59 C27       -2.2489   11.6825    5.4357 C.ar      2 RES2    0.0000
     60 H28       -2.1139   12.1177    4.6012 H         2 RES2    0.0000
     61 C28       -1.4172   10.6822    5.8711 C.ar      2 RES2    0.0000
     62 H29       -0.6777   10.4290    5.3318 H         2 RES2    0.0000
     63 C29       -1.6272   10.0319    7.0734 C.ar      2 RES2    0.0000
     64 C30       -0.7267    8.8318    7.4444 C.3       2 RES2    0.0000
     65 H30       -1.1137    8.0085    7.0255 H         2 RES2    0.0000
     66 C31        0.8481    8.9642    6.9612 C.2       2 RES2    0.0000
     67 C32        1.6961   10.0128    6.8953 C.2       2 RES2    0.0000
     68 H31        1.4514   10.8807    7.1938 H         2 RES2    0.0000
     69 C33        2.7977    8.5264    5.9519 C.ar      2 RES2    0.0000
     70 C34        3.7358    7.6992    5.2197 C.ar      2 RES2    0.0000
     71 H32        4.5734    8.0237    4.9195 H         2 RES2    0.0000
     72 C35        3.3231    6.3375    4.9773 C.ar      2 RES2    0.0000
     73 H33        3.9594    5.7483    4.6012 H         2 RES2    0.0000
     74 C36        2.1784    5.8921    5.2279 C.ar      2 RES2    0.0000
     75 H34        1.9776    5.0064    4.9426 H         2 RES2    0.0000
     76 C37        1.1828    6.6048    5.9008 C.ar      2 RES2    0.0000
     77 H35        0.3494    6.1988    6.1069 H         2 RES2    0.0000
     78 C38        1.4308    7.9232    6.2653 C.ar      2 RES2    0.0000
     79 N3         0.1527    9.6425    9.6857 N.pl3     2 RES2    0.0000
     80 N4         2.7514    9.7812    6.4467 N.pl3     2 RES2    0.0000
     81 H36        3.4249   10.3475    6.4335 H         2 RES2    0.0000
     82 O4         1.0764    9.2620   10.3470 O.2       2 RES2    0.0000
     83 O5        -0.1852   10.8680    9.6098 O.2       2 RES2    0.0000
     84 O6        -2.8534    9.8690    9.1448 O.3       2 RES2    0.0000
     85 C39       15.2244   12.0592   -0.7553 C.3       3 RES3    0.0000
     86 H37       14.8255   12.9627   -0.9120 H         3 RES3    0.0000
     87 C40       16.6934   12.0910   -1.2600 C.3       3 RES3    0.0000
     88 C41       17.3375   13.1460   -0.5954 C.3       3 RES3    0.0000
     89 H38       18.2840   13.1701   -0.8493 H         3 RES3    0.0000
     90 H39       17.2612   13.0251    0.3744 H         3 RES3    0.0000
     91 H40       16.9152   13.9999   -0.8477 H         3 RES3    0.0000
     92 C42       16.7487   11.9624   -2.7673 C.3       3 RES3    0.0000
     93 H41       16.2671   11.1492   -3.0411 H         3 RES3    0.0000
     94 H42       17.6826   11.8963   -3.0559 H         3 RES3    0.0000
     95 H43       16.3296   12.7425   -3.1780 H         3 RES3    0.0000
     96 C43       17.1072   10.2966    0.4255 C.ar      3 RES3    0.0000
     97 C44       17.9633    9.2671    0.6349 C.ar      3 RES3    0.0000
     98 H44       18.6496    9.0189    0.0264 H         3 RES3    0.0000
     99 C45       17.6993    8.5379    1.9790 C.ar      3 RES3    0.0000
    100 H45       18.2419    7.7947    2.2132 H         3 RES3    0.0000
    101 C46       16.8162    8.8891    2.7426 C.ar      3 RES3    0.0000
    102 H46       16.7434    8.4641    3.5886 H         3 RES3    0.0000
    103 C47       15.8583    9.9517    2.3963 C.ar      3 RES3    0.0000
    104 H47       15.1528   10.1681    2.9966 H         3 RES3    0.0000
    105 C48       15.9833   10.6580    1.1676 C.ar      3 RES3    0.0000
    106 C49       15.0891   11.7334    0.7834 C.3       3 RES3    0.0000
    107 H48       15.4818   12.5364    1.2303 H         3 RES3    0.0000
    108 C50       13.8160   11.6761    1.2847 C.2       3 RES3    0.0000
    109 C51       12.9898   10.5295    1.1330 C.2       3 RES3    0.0000
    110 H49       13.1956    9.7214    0.6778 H         3 RES3    0.0000
    111 C52       11.7852   12.2055    2.3105 C.ar      3 RES3    0.0000
    112 C53       10.8028   12.8787    2.9652 C.ar      3 RES3    0.0000
    113 H50        9.9522   12.4778    3.1120 H         3 RES3    0.0000
    114 C54       11.0659   14.1004    3.3940 C.ar      3 RES3    0.0000
    115 H51       10.4300   14.5649    3.9234 H         3 RES3    0.0000
    116 C55       12.3534   14.7367    3.0461 C.ar      3 RES3    0.0000
    117 H52       12.5482   15.6199    3.3182 H         3 RES3    0.0000
    118 C56       13.2764   13.9922    2.3105 C.ar      3 RES3    0.0000
    119 H53       14.1155   14.3740    2.0829 H         3 RES3    0.0000
    120 C57       12.9707   12.7018    1.9114 C.ar      3 RES3    0.0000
    121 N5        14.3334   11.0245   -1.4546 N.pl3     3 RES3    0.0000
    122 N6        11.6763   10.8922    1.8768 N.pl3     3 RES3    0.0000
    123 H54       10.9868   10.3602    2.0021 H         3 RES3    0.0000
    124 O7        13.2782   11.4929   -1.9625 O.2       3 RES3    0.0000
    125 O8        14.5989    9.9059   -1.5403 O.2       3 RES3    0.0000
    126 O9        17.2681   10.7929   -0.8774 O.3       3 RES3    0.0000
    127 C58        8.1254    7.8570    0.5145 C.3       4 RES4    0.0000
    128 H55        8.4669    6.9255    0.6465 H         4 RES4    0.0000
    129 C59        6.7155    7.9016    1.1149 C.3       4 RES4    0.0000
    130 C60        5.8467    6.7830    0.4486 C.3       4 RES4    0.0000
    131 H56        4.9453    6.7944    0.8345 H         4 RES4    0.0000
    132 H57        6.2589    5.9074    0.6102 H         4 RES4    0.0000
    133 H58        5.7904    6.9420   -0.5162 H         4 RES4    0.0000
    134 C61        6.5416    7.7565    2.5678 C.3       4 RES4    0.0000
    135 H59        5.5862    7.7387    2.7822 H         4 RES4    0.0000
    136 H60        6.9640    8.5137    3.0246 H         4 RES4    0.0000
    137 H61        6.9597    6.9217    2.8646 H         4 RES4    0.0000
    138 C62        6.2472    9.5890   -0.4601 C.ar      4 RES4    0.0000
    139 C63        5.3396   10.7624   -0.7999 C.ar      4 RES4    0.0000
    140 H62        4.6921   11.0793   -0.1798 H         4 RES4    0.0000
    141 C64        5.4864   11.3389   -2.0170 C.ar      4 RES4    0.0000
    142 H63        4.9284   12.0770   -2.2396 H         4 RES4    0.0000
    143 C65        6.4110   10.9062   -2.9471 C.ar      4 RES4    0.0000
    144 H64        6.4563   11.3071   -3.8080 H         4 RES4    0.0000
    145 C66        7.2426    9.9123   -2.6074 C.ar      4 RES4    0.0000
    146 H65        7.8556    9.6234   -3.2736 H         4 RES4    0.0000
    147 C67        7.3025    9.2340   -1.3325 C.ar      4 RES4    0.0000
    148 C68        8.0687    8.1077   -1.0274 C.3       4 RES4    0.0000
    149 H66        7.6074    7.3200   -1.4348 H         4 RES4    0.0000
    150 C69        9.4909    8.1014   -1.5420 C.2       4 RES4    0.0000
    151 C70       10.2795    9.3154   -1.6047 C.2       4 RES4    0.0000
    152 H67        9.9814   10.1986   -1.4101 H         4 RES4    0.0000
    153 C71       11.4392    7.6496   -2.5414 C.ar      4 RES4    0.0000
    154 C72       12.5131    6.8593   -3.0988 C.ar      4 RES4    0.0000
    155 H68       13.3850    7.2118   -3.2423 H         4 RES4    0.0000
    156 C73       12.1672    5.5740   -3.4023 C.ar      4 RES4    0.0000
    157 H69       12.7561    5.0497   -3.9284 H         4 RES4    0.0000
    158 C74       11.0382    5.0649   -2.9834 C.ar      4 RES4    0.0000
    159 H70       10.9161    4.1220   -3.0477 H         4 RES4    0.0000
    160 C75       10.0774    5.7776   -2.4853 C.ar      4 RES4    0.0000
    161 H71        9.2317    5.3767   -2.3402 H         4 RES4    0.0000
    162 C76       10.2491    7.1915   -2.1423 C.ar      4 RES4    0.0000
    163 N7         9.0264    8.7300    1.2089 N.pl3     4 RES4    0.0000
    164 N8        11.6353    8.9184   -2.0252 N.pl3     4 RES4    0.0000
    165 H72       12.3845    9.3752   -1.9625 H         4 RES4    0.0000
    166 O10       10.0801    8.3788    1.7399 O.2       4 RES4    0.0000
    167 O11        8.8153   10.0077    1.1610 O.2       4 RES4    0.0000
    168 O12        6.1582    9.1118    0.7537 O.3       4 RES4    0.0000
@<TRIPOS>BOND
     1    1    2 1
     2    3    1 1
     3    4    3 1
     4    5    4 1
     5    6    4 1
     6    7    4 1
     7    8    3 1
     8    9    8 1
     9   10    8 1
    10   11    8 1
    11   12   13 ar
    12   13   14 1
    13   15   13 ar
    14   16   15 1
    15   17   15 ar
    16   18   17 1
    17   19   17 ar
    18   20   19 1
    19   21   12 ar
    20   22    1 1
    21   23   22 1
    22   24   22 1
    23   25   24 2
    24   26   25 1
    25   27   28 ar
    26   28   29 1
    27   30   28 ar
    28   31   30 1
    29   32   30 ar
    30   33   32 1
    31   34   32 ar
    32   35   34 1
    33   36   24 1
    34   37    1 1
    35   38   25 1
    36   39   38 1
    37   40   37 2
    38   41   37 2
    39   42    3 1
    40   43   44 1
    41   45   43 1
    42   46   45 1
    43   47   46 1
    44   48   46 1
    45   49   46 1
    46   50   45 1
    47   51   50 1
    48   52   50 1
    49   53   50 1
    50   54   55 ar
    51   55   56 1
    52   57   55 ar
    53   58   57 1
    54   59   57 ar
    55   60   59 1
    56   61   59 ar
    57   62   61 1
    58   63   54 ar
    59   64   43 1
    60   65   64 1
    61   66   64 1
    62   67   66 2
    63   68   67 1
    64   69   70 ar
    65   70   71 1
    66   72   70 ar
    67   73   72 1
    68   74   72 ar
    69   75   74 1
    70   76   74 ar
    71   77   76 1
    72   78   66 1
    73   79   43 1
    74   80   67 1
    75   81   80 1
    76   82   79 2
    77   83   79 2
    78   84   45 1
    79   85   86 1
    80   87   85 1
    81   88   87 1
    82   89   88 1
    83   90   88 1
    84   91   88 1
    85   92   87 1
    86   93   92 1
    87   94   92 1
    88   95   92 1
    89   96   97 ar
    90   97   98 1
    91   99   97 ar
    92  100   99 1
    93  101   99 ar
    94  102  101 1
    95  103  101 ar
    96  104  103 1
    97  105   96 ar
    98  106   85 1
    99  107  106 1
   100  108  106 1
   101  109  108 2
   102  110  109 1
   103  111  112 ar
   104  112  113 1
   105  114  112 ar
   106  115  114 1
   107  116  114 ar
   108  117  116 1
   109  118  116 ar
   110  119  118 1
   111  120  108 1
   112  121   85 1
   113  122  109 1
   114  123  122 1
   115  124  121 2
   116  125  121 2
   117  126   87 1
   118  127  128 1
   119  129  127 1
   120  130  129 1
   121  131  130 1
   122  132  130 1
   123  133  130 1
   124  134  129 1
   125  135  134 1
   126  136  134 1
   127  137  134 1
   128  138  139 ar
   129  139  140 1
   130  141  139 ar
   131  142  141 1
   132  143  141 ar
   133  144  143 1
   134  145  143 ar
   135  146  145 1
   136  147  138 ar
   137  148  127 1
   138  149  148 1
   139  150  148 1
   140  151  150 2
   141  152  151 1
   142  153  154 ar
   143  154  155 1
   144  156  154 ar
   145  157  156 1
   146  158  156 ar
   147  159  158 1
   148  160  158 ar
   149  161  160 1
   150  162  150 1
   151  163  127 1
   152  164  151 1
   153  165  164 1
   154  166  163 2
   155  167  163 2
   156  168  129 1
   157   12   42 1
   158   19   21 ar
   159   21   22 1
   160   27   36 ar
   161   27   38 1
   162   34   36 ar
   163   54   84 1
   164   61   63 ar
   165   63   64 1
   166   69   78 ar
   167   69   80 1
   168   76   78 ar
   169   96  126 1
   170  103  105 ar
   171  105  106 1
   172  111  120 ar
   173  111  122 1
   174  118  120 ar
   175  138  168 1
   176  145  147 ar
   177  147  148 1
   178  153  162 ar
   179  153  164 1
   180  160  162 ar
@<TRIPOS>SUBSTRUCTURE
     1 RES1 1
     2 RES2 43
     3 RES3 85
     4 RES4 127

@<TRIPOS>CRYSIN
  15.5170   12.7260   16.6270  90.0000  97.3090  90.0000   4 1

