# MOL2 file generated by ConQuest
# Please check atom types

@<TRIPOS>MOLECULE
TUHDIJ
    34    35     1
SMALL
NO_CHARGES
****
Generated from CSD

@<TRIPOS>ATOM
      1 C1         6.1996    0.6775    6.0861 C.ar      1 RES1    0.0000
      2 C2         7.5769    0.6574    6.2229 C.ar      1 RES1    0.0000
      3 C3         8.1457    1.2508    7.3263 C.ar      1 RES1    0.0000
      4 C4         7.3248    1.8643    8.2444 C.ar      1 RES1    0.0000
      5 C5         5.9601    1.8668    8.0174 C.ar      1 RES1    0.0000
      6 N1         5.3765    1.2772    6.9641 N.ar      1 RES1    0.0000
      7 C6         5.0737    2.5493    8.9338 C.1       1 RES1    0.0000
      8 C7         4.4153    3.1654    9.6866 C.1       1 RES1    0.0000
      9 C8         5.5565   -0.0301    4.9560 C.2       1 RES1    0.0000
     10 N2         6.0339    0.1280    3.6657 N.3       1 RES1    0.0000
     11 O1         6.9000    0.9460    3.3101 O.2       1 RES1    0.0000
     12 C9         5.1749   -0.6260    2.7175 C.3       1 RES1    0.0000
     13 C10        4.4592   -1.5670    3.7191 C.3       1 RES1    0.0000
     14 N3         4.5883   -0.8820    5.0478 N.2       1 RES1    0.0000
     15 C11        4.2537    0.3789    2.0498 C.3       1 RES1    0.0000
     16 C12        6.0535   -1.3048    1.6709 C.3       1 RES1    0.0000
     17 C13        5.1751   -2.8919    3.8877 C.3       1 RES1    0.0000
     18 C14        3.0035   -1.8342    3.4253 C.3       1 RES1    0.0000
     19 H1         8.1209    0.2409    5.5636 H         1 RES1    0.0000
     20 H2         9.0870    1.2358    7.4498 H         1 RES1    0.0000
     21 H3         7.6878    2.2758    9.0189 H         1 RES1    0.0000
     22 H4         4.7553    0.9196    1.4506 H         1 RES1    0.0000
     23 H5         3.5780   -0.0828    1.5657 H         1 RES1    0.0000
     24 H6         3.8498    0.9271    2.7108 H         1 RES1    0.0000
     25 H7         6.4444   -0.6449    1.1084 H         1 RES1    0.0000
     26 H8         6.7390   -1.7978    2.1032 H         1 RES1    0.0000
     27 H9         5.5227   -1.8932    1.1451 H         1 RES1    0.0000
     28 H10        4.6995   -3.4313    4.5086 H         1 RES1    0.0000
     29 H11        5.2197   -3.3360    3.0497 H         1 RES1    0.0000
     30 H12        6.0548   -2.7363    4.2115 H         1 RES1    0.0000
     31 H13        2.6488   -2.4164    4.0863 H         1 RES1    0.0000
     32 H14        2.5221   -1.0150    3.4336 H         1 RES1    0.0000
     33 H15        2.9222   -2.2395    2.5690 H         1 RES1    0.0000
     34 H16        3.8636    3.7513   10.3927 H         1 RES1    0.0000
@<TRIPOS>BOND
     1    1    2 ar
     2    2    3 ar
     3    3    4 ar
     4    4    5 ar
     5    5    6 ar
     6    6    1 ar
     7    7    5 1
     8    8    7 3
     9    9    1 1
    10   10    9 1
    11   11   10 1
    12   12   10 1
    13   13   12 1
    14   14    9 2
    15   15   12 1
    16   16   12 1
    17   17   13 1
    18   18   13 1
    19   19    2 1
    20   20    3 1
    21   21    4 1
    22   22   15 1
    23   23   15 1
    24   24   15 1
    25   25   16 1
    26   26   16 1
    27   27   16 1
    28   28   17 1
    29   29   17 1
    30   30   17 1
    31   31   18 1
    32   32   18 1
    33   33   18 1
    34   34    8 1
    35   13   14 1
@<TRIPOS>SUBSTRUCTURE
     1 RES1 1

@<TRIPOS>CRYSIN
   6.3120   12.5460   16.7180  90.0000  93.1700  90.0000 231 1

