# MOL2 file generated by ConQuest
# Please check atom types

@<TRIPOS>MOLECULE
TUHNAN
    65    67     1
SMALL
NO_CHARGES
****
Generated from CSD

@<TRIPOS>ATOM
      1 C1         0.5121   -3.6173   14.6128 C.3       1 RES1    0.0000
      2 H1         0.4394   -4.3875   15.1827 H         1 RES1    0.0000
      3 H2         1.0427   -3.8373   13.8445 H         1 RES1    0.0000
      4 H3        -0.3644   -3.3460   14.3288 H         1 RES1    0.0000
      5 C2         1.1614   -2.5004   15.3645 C.ar      1 RES1    0.0000
      6 C3         1.4634   -2.5984   16.6930 C.ar      1 RES1    0.0000
      7 H4         1.3082   -3.4048   17.1297 H         1 RES1    0.0000
      8 C4         1.9897   -1.5499   17.4058 C.ar      1 RES1    0.0000
      9 H5         2.1764   -1.6564   18.3098 H         1 RES1    0.0000
     10 C5         2.2441   -0.3391   16.7927 C.ar      1 RES1    0.0000
     11 C6         1.9491   -0.2409   15.4400 C.ar      1 RES1    0.0000
     12 H6         2.1073    0.5607   14.9949 H         1 RES1    0.0000
     13 C7         1.4284   -1.3052   14.7464 C.ar      1 RES1    0.0000
     14 H7         1.2542   -1.2148   13.8386 H         1 RES1    0.0000
     15 C8         1.7029    4.4758   18.1077 C.ar      1 RES1    0.0000
     16 C9         0.5378    4.9322   18.6845 C.ar      1 RES1    0.0000
     17 H8         0.1202    4.4236   19.3416 H         1 RES1    0.0000
     18 C10       -0.0156    6.1358   18.2967 C.ar      1 RES1    0.0000
     19 H9        -0.8119    6.4192   18.6833 H         1 RES1    0.0000
     20 C11        0.5893    6.9180   17.3531 C.ar      1 RES1    0.0000
     21 C12        0.0270    8.2851   16.9676 C.3       1 RES1    0.0000
     22 H10       -0.9317    8.2534   16.9854 H         1 RES1    0.0000
     23 H11        0.3227    8.5142   16.0821 H         1 RES1    0.0000
     24 H12        0.3379    8.9467   17.5902 H         1 RES1    0.0000
     25 C13        1.7291    6.4538   16.7636 C.ar      1 RES1    0.0000
     26 H13        2.1397    6.9663   16.1038 H         1 RES1    0.0000
     27 C14        2.2862    5.2455   17.1208 C.ar      1 RES1    0.0000
     28 H14        3.0581    4.9466   16.6968 H         1 RES1    0.0000
     29 C15        2.3176    3.1403   18.5199 C.3       1 RES1    0.0000
     30 H15        1.9173    2.8772   19.3752 H         1 RES1    0.0000
     31 C16        1.9486    2.0822   17.4898 C.3       1 RES1    0.0000
     32 H16        2.0706    2.4567   16.5920 H         1 RES1    0.0000
     33 C17        2.7608    0.8092   17.6039 C.3       1 RES1    0.0000
     34 H17        2.7359    0.5335   18.5450 H         1 RES1    0.0000
     35 C18        4.2344    1.1916   17.2771 C.3       1 RES1    0.0000
     36 C19        4.7025    2.3698   18.1340 C.2       1 RES1    0.0000
     37 C20        3.8206    3.2150   18.7138 C.2       1 RES1    0.0000
     38 C21        4.3907    1.5991   15.8682 C.1       1 RES1    0.0000
     39 C22        4.3295    4.2379   19.6240 C.2       1 RES1    0.0000
     40 C23        3.7620    5.9022   21.2156 C.3       1 RES1    0.0000
     41 H18        4.3822    6.4930   20.7608 H         1 RES1    0.0000
     42 H19        4.2032    5.5450   22.0021 H         1 RES1    0.0000
     43 C24        2.5660    6.6377   21.6046 C.3       1 RES1    0.0000
     44 H20        2.1504    7.0085   20.8221 H         1 RES1    0.0000
     45 H21        2.8075    7.3461   22.2057 H         1 RES1    0.0000
     46 H22        1.9526    6.0424   22.0417 H         1 RES1    0.0000
     47 C25        5.0971   -0.0402   17.6027 C.2       1 RES1    0.0000
     48 C26        6.8197   -1.4725   16.8767 C.3       1 RES1    0.0000
     49 H23        7.5967   -1.3957   16.3015 H         1 RES1    0.0000
     50 H24        7.1241   -1.4499   17.7958 H         1 RES1    0.0000
     51 C27        6.1475   -2.7431   16.6158 C.3       1 RES1    0.0000
     52 H25        5.4989   -2.9089   17.3056 H         1 RES1    0.0000
     53 H26        6.7941   -3.4515   16.6098 H         1 RES1    0.0000
     54 H27        5.7067   -2.7039   15.7658 H         1 RES1    0.0000
     55 N1         6.0454    2.4628   18.2568 N.3       1 RES1    0.0000
     56 H28        6.3917    3.0928   18.7288 H         1 RES1    0.0000
     57 H29        6.5535    1.8930   17.8630 H         1 RES1    0.0000
     58 N2         0.4825    1.7098   17.6741 N.pl3     1 RES1    0.0000
     59 N3         4.4830    1.9758   14.8002 N.1       1 RES1    0.0000
     60 O1        -0.2223    1.7657   16.7013 O.2       1 RES1    0.0000
     61 O2         0.1093    1.3473   18.7515 O.2       1 RES1    0.0000
     62 O3         4.9929   -0.6271   18.6306 O.2       1 RES1    0.0000
     63 O4         5.9213   -0.3414   16.6334 O.3       1 RES1    0.0000
     64 O5         5.5068    4.5463   19.7578 O.2       1 RES1    0.0000
     65 O6         3.3721    4.8200   20.3346 O.3       1 RES1    0.0000
@<TRIPOS>BOND
     1    1    2 1
     2    3    1 1
     3    4    1 1
     4    5    1 1
     5    6    5 ar
     6    7    6 1
     7    8    6 ar
     8    9    8 1
     9   10    8 ar
    10   11   10 ar
    11   12   11 1
    12   13    5 ar
    13   14   13 1
    14   15   16 ar
    15   16   17 1
    16   18   16 ar
    17   19   18 1
    18   20   18 ar
    19   21   20 1
    20   22   21 1
    21   23   21 1
    22   24   21 1
    23   25   20 ar
    24   26   25 1
    25   27   15 ar
    26   28   27 1
    27   29   15 1
    28   30   29 1
    29   31   29 1
    30   32   31 1
    31   33   10 1
    32   34   33 1
    33   35   33 1
    34   36   35 1
    35   37   29 1
    36   38   35 1
    37   39   37 1
    38   40   41 1
    39   42   40 1
    40   43   40 1
    41   44   43 1
    42   45   43 1
    43   46   43 1
    44   47   35 1
    45   48   49 1
    46   50   48 1
    47   51   48 1
    48   52   51 1
    49   53   51 1
    50   54   51 1
    51   55   36 1
    52   56   55 1
    53   57   55 1
    54   58   31 1
    55   59   38 3
    56   60   58 2
    57   61   58 2
    58   62   47 2
    59   63   47 1
    60   64   39 2
    61   65   39 1
    62   11   13 ar
    63   25   27 ar
    64   31   33 1
    65   36   37 2
    66   40   65 1
    67   48   63 1
@<TRIPOS>SUBSTRUCTURE
     1 RES1 1

@<TRIPOS>CRYSIN
   8.8799   15.0720   19.7780  90.0000  91.9500  90.0000  14 1

