# MOL2 file generated by ConQuest
# Please check atom types

@<TRIPOS>MOLECULE
TUHSAQ
    33    38     1
SMALL
NO_CHARGES
****
Generated from CSD

@<TRIPOS>ATOM
      1 O1        -0.3404   11.9291    0.6124 O.3       1 RES1    0.0000
      2 N1        -1.2154   11.1833   -0.2001 N.2       1 RES1    0.0000
      3 C1        -2.7187    9.3197   -0.1607 C.3       1 RES1    0.0000
      4 C2        -1.7603   10.2665    0.4699 C.2       1 RES1    0.0000
      5 C3        -1.3742   10.2479    1.9131 C.3       1 RES1    0.0000
      6 C4        -0.2696   11.2846    1.9176 C.3       1 RES1    0.0000
      7 C5         1.3833   15.2985    1.6296 C.3       1 RES1    0.0000
      8 O2        -0.9161   14.7680    1.7600 O.2       1 RES1    0.0000
      9 C6         0.2045   14.4900    2.0025 C.2       1 RES1    0.0000
     10 O3         0.6111   13.3721    2.6725 O.3       1 RES1    0.0000
     11 C7        -0.3987   12.3911    2.9863 C.3       1 RES1    0.0000
     12 C8         1.0932   11.0835    4.5659 C.3       1 RES1    0.0000
     13 C9        -0.2125   11.8863    4.4219 C.3       1 RES1    0.0000
     14 C10       -1.3422   12.5508   11.6467 C.3       1 RES1    0.0000
     15 C11       -1.7363   11.8378    7.1156 C.3       1 RES1    0.0000
     16 C12       -0.2650   13.0655    5.4284 C.3       1 RES1    0.0000
     17 C13       -1.3788   14.1007    5.1753 C.3       1 RES1    0.0000
     18 C14       -1.7020   14.7695    6.5305 C.3       1 RES1    0.0000
     19 C15       -0.6957   14.1335    7.4976 C.3       1 RES1    0.0000
     20 C16       -0.4866   12.7019    6.9398 C.3       1 RES1    0.0000
     21 C17        0.6922   12.1073    7.7129 C.3       1 RES1    0.0000
     22 C18        0.4478   12.1230    9.2212 C.3       1 RES1    0.0000
     23 C19       -0.1862   13.4862   11.3101 C.3       1 RES1    0.0000
     24 C20        0.1234   13.5247    9.7836 C.3       1 RES1    0.0000
     25 C21       -1.0052   14.1977    8.9923 C.3       1 RES1    0.0000
     26 C22       -1.1709   15.6635    9.4274 C.3       1 RES1    0.0000
     27 C23       -1.2588   15.8817   10.9190 C.2       1 RES1    0.0000
     28 O4        -1.8654   16.8071   11.3859 O.2       1 RES1    0.0000
     29 C24       -0.4855   14.9263   11.7770 C.3       1 RES1    0.0000
     30 C25       -0.4272   15.2172   13.2702 C.3       1 RES1    0.0000
     31 C26        0.7985   15.4853   12.4455 C.3       1 RES1    0.0000
     32 C27        1.8574   14.4187   12.3394 C.3       1 RES1    0.0000
     33 C28        1.0806   13.1325   12.1317 C.3       1 RES1    0.0000
@<TRIPOS>BOND
     1    1    2 1
     2    2    4 2
     3    3    4 1
     4    4    5 1
     5    5    6 1
     6    6    1 1
     7    7    9 1
     8    8    9 2
     9    9   10 1
    10   10   11 1
    11   11    6 1
    12   12   13 1
    13   13   11 1
    14   14   23 1
    15   15   20 1
    16   16   13 1
    17   17   16 1
    18   18   17 1
    19   19   18 1
    20   20   16 1
    21   21   20 1
    22   22   21 1
    23   23   24 1
    24   24   22 1
    25   25   19 1
    26   26   25 1
    27   27   26 1
    28   28   27 2
    29   29   23 1
    30   30   29 1
    31   31   29 1
    32   32   31 1
    33   33   23 1
    34   19   20 1
    35   24   25 1
    36   27   29 1
    37   30   31 1
    38   32   33 1
@<TRIPOS>SUBSTRUCTURE
     1 RES1 1

@<TRIPOS>CRYSIN
  11.4230   14.2590   15.1590  90.0000  90.0000  90.0000  19 1

