# MOL2 file generated by ConQuest
# Please check atom types

@<TRIPOS>MOLECULE
TUJPUL
    25    25     1
SMALL
NO_CHARGES
****
Generated from CSD

@<TRIPOS>ATOM
      1 O1         6.4248    4.9631    8.7061 O.3       1 RES1    0.0000
      2 O2         0.3981    7.0654    5.9248 O.2       1 RES1    0.0000
      3 O3        -0.0708    4.9972    5.4789 O.2       1 RES1    0.0000
      4 O4         7.9230    3.4273    9.3562 O.2       1 RES1    0.0000
      5 N1         0.7036    5.8534    5.9317 N.pl3     1 RES1    0.0000
      6 N2         2.6895    7.7096    7.1123 N.pl3     1 RES1    0.0000
      7 H1         3.2993    8.1731    7.4359 H         1 RES1    0.0000
      8 H2         1.9758    8.0362    6.8304 H         1 RES1    0.0000
      9 C1         2.8696    6.3813    7.0490 C.ar      1 RES1    0.0000
     10 C2         1.9589    5.4497    6.4855 C.ar      1 RES1    0.0000
     11 C3         4.3371    4.4905    7.5943 C.ar      1 RES1    0.0000
     12 C4         4.0739    5.8341    7.5975 C.ar      1 RES1    0.0000
     13 H3         4.6975    6.4726    7.9956 H         1 RES1    0.0000
     14 C5         2.2618    4.0692    6.4516 C.ar      1 RES1    0.0000
     15 H4         1.6567    3.4684    6.0477 H         1 RES1    0.0000
     16 C6         3.4180    3.5922    6.9920 C.ar      1 RES1    0.0000
     17 H5         3.6429    2.6438    6.9583 H         1 RES1    0.0000
     18 C7         5.5872    3.9005    8.1990 C.3       1 RES1    0.0000
     19 H6         5.3906    3.2779    8.9414 H         1 RES1    0.0000
     20 H7         6.0837    3.3726    7.5180 H         1 RES1    0.0000
     21 C8         7.5875    4.5847    9.2727 C.2       1 RES1    0.0000
     22 C9         8.3615    5.7639    9.7554 C.3       1 RES1    0.0000
     23 H8         8.5139    6.3437    9.0118 H         1 RES1    0.0000
     24 H9         9.1475    5.4814   10.2122 H         1 RES1    0.0000
     25 H10        7.8183    6.3186   10.3377 H         1 RES1    0.0000
@<TRIPOS>BOND
     1    1   18 1
     2    2    5 2
     3    3    5 2
     4    4   21 2
     5    5   10 1
     6    6    7 1
     7    8    6 1
     8    9    6 1
     9   10    9 ar
    10   11   12 ar
    11   12    9 ar
    12   13   12 1
    13   14   10 ar
    14   15   14 1
    15   16   11 ar
    16   17   16 1
    17   18   11 1
    18   19   18 1
    19   20   18 1
    20   21    1 1
    21   22   21 1
    22   23   22 1
    23   24   22 1
    24   25   22 1
    25   14   16 ar
@<TRIPOS>SUBSTRUCTURE
     1 RES1 1

@<TRIPOS>CRYSIN
  14.4803   11.4054   13.0936  90.0000 116.3410  90.0000  15 1

