# MOL2 file generated by ConQuest
# Please check atom types

@<TRIPOS>MOLECULE
TUJRIB
    28    30     1
SMALL
NO_CHARGES
****
Generated from CSD

@<TRIPOS>ATOM
      1 O1         2.6588    1.2719    3.1356 O.3       1 RES1    0.0000
      2 O2         1.4430   -1.3096   -2.3261 O.3       1 RES1    0.0000
      3 O3         0.8211   -2.0180   -0.2121 O.3       1 RES1    0.0000
      4 N1         3.1444    1.9422    4.2476 N.am      1 RES1    0.0000
      5 C1         3.3033    1.6616    1.9651 C.2       1 RES1    0.0000
      6 C2         2.8061    0.8756    0.8255 C.ar      1 RES1    0.0000
      7 C3         4.1422    1.3948    5.0263 C.2       1 RES1    0.0000
      8 C4         1.9991   -0.2549    1.0126 C.ar      1 RES1    0.0000
      9 H1         1.7439   -0.5443    1.8578 H         1 RES1    0.0000
     10 C5         2.6402    3.1585    4.6512 C.2       1 RES1    0.0000
     11 C6         1.9887   -0.4873   -1.3846 C.ar      1 RES1    0.0000
     12 C7         3.1942    1.2821   -0.4361 C.ar      1 RES1    0.0000
     13 H2         3.7397    2.0299   -0.5257 H         1 RES1    0.0000
     14 C8         1.6121   -0.9031   -0.1202 C.ar      1 RES1    0.0000
     15 C9         4.3616    2.3687    6.1410 C.3       1 RES1    0.0000
     16 H3         5.2792    2.6831    6.1432 H         1 RES1    0.0000
     17 H4         4.1733    1.9541    6.9980 H         1 RES1    0.0000
     18 C10        2.7865    0.5962   -1.5779 C.ar      1 RES1    0.0000
     19 H5         3.0459    0.8656   -2.4299 H         1 RES1    0.0000
     20 C11        3.4058    3.5192    5.8854 C.3       1 RES1    0.0000
     21 H6         2.8031    3.6339    6.6380 H         1 RES1    0.0000
     22 H7         3.8959    4.3453    5.7522 H         1 RES1    0.0000
     23 C12        0.7613   -2.3299   -1.6044 C.3       1 RES1    0.0000
     24 H8         1.1803   -3.1892   -1.7694 H         1 RES1    0.0000
     25 H9        -0.1633   -2.3800   -1.8931 H         1 RES1    0.0000
     26 O4         4.6744    0.3407    4.7922 O.2       1 RES1    0.0000
     27 O5         4.1270    2.5203    1.9750 O.2       1 RES1    0.0000
     28 O6         1.7525    3.7422    4.0800 O.2       1 RES1    0.0000
@<TRIPOS>BOND
     1    1    4 1
     2    2   11 1
     3    3   14 1
     4    4    7 1
     5    5    1 1
     6    6    5 1
     7    7   15 1
     8    8    6 ar
     9    9    8 1
    10   10    4 1
    11   11   14 ar
    12   12    6 ar
    13   13   12 1
    14   14    8 ar
    15   15   16 1
    16   17   15 1
    17   18   11 ar
    18   19   18 1
    19   20   10 1
    20   21   20 1
    21   22   20 1
    22   23    2 1
    23   24   23 1
    24   25   23 1
    25   26    7 2
    26   27    5 2
    27   28   10 2
    28    3   23 1
    29   12   18 ar
    30   15   20 1
@<TRIPOS>SUBSTRUCTURE
     1 RES1 1

@<TRIPOS>CRYSIN
   8.7694    6.2631   22.1680  90.0000  94.8140  90.0000 231 1

