# MOL2 file generated by ConQuest
# Please check atom types

@<TRIPOS>MOLECULE
TUJRUN
    74    76     2
SMALL
NO_CHARGES
****
Generated from CSD

@<TRIPOS>ATOM
      1 O1         8.7018   10.8745    1.4856 O.2       1 RES1    0.0000
      2 O2         6.3456   14.6766    2.0571 O.2       1 RES1    0.0000
      3 O3         4.0896   10.8659    1.1609 O.2       1 RES1    0.0000
      4 O4         7.3357    9.7698   -3.3851 O.2       1 RES1    0.0000
      5 O5         5.2451    9.9784   -3.5378 O.2       1 RES1    0.0000
      6 N1         7.5375   12.7977    1.7518 N.am      1 RES1    0.0000
      7 N2         5.1787   12.7934    1.5895 N.am      1 RES1    0.0000
      8 N3         6.2403    9.8475   -2.8916 N.pl3     1 RES1    0.0000
      9 C1         7.6340   11.4715    1.3898 C.2       1 RES1    0.0000
     10 C2         8.7407   13.5212    2.1658 C.3       1 RES1    0.0000
     11 H1         9.5127   12.9358    2.0879 H         1 RES1    0.0000
     12 H2         8.6504   13.8003    3.0702 H         1 RES1    0.0000
     13 H3         8.8735   14.2793    1.5943 H         1 RES1    0.0000
     14 C3         6.3456   13.4882    1.7957 C.2       1 RES1    0.0000
     15 C4         3.9104   13.5241    1.8005 C.3       1 RES1    0.0000
     16 H4         4.1009   14.4332    2.0425 H         1 RES1    0.0000
     17 H5         3.4115   13.1041    2.5052 H         1 RES1    0.0000
     18 H6         3.3940   13.5097    0.9920 H         1 RES1    0.0000
     19 C5         5.1336   11.4729    1.2225 C.2       1 RES1    0.0000
     20 C6         6.4421   10.8486    0.8004 C.3       1 RES1    0.0000
     21 H7         6.4270    9.9122    1.0894 H         1 RES1    0.0000
     22 C7         6.6601   10.8601   -0.7615 C.3       1 RES1    0.0000
     23 H8         7.6114   10.6429   -0.8556 H         1 RES1    0.0000
     24 C8         6.5649   12.2583   -1.3476 C.ar      1 RES1    0.0000
     25 C9         5.3680   12.8624   -1.6804 C.ar      1 RES1    0.0000
     26 H9         4.5633   12.4093   -1.5635 H         1 RES1    0.0000
     27 C10        5.3792   14.1700   -2.1983 C.ar      1 RES1    0.0000
     28 H10        4.5784   14.5914   -2.4110 H         1 RES1    0.0000
     29 C11        6.5235   14.8000   -2.3834 C.ar      1 RES1    0.0000
     30 H11        6.5273   15.6616   -2.7341 H         1 RES1    0.0000
     31 C12        7.6941   14.1944   -2.0668 C.ar      1 RES1    0.0000
     32 H12        8.4950   14.6418   -2.2145 H         1 RES1    0.0000
     33 C13        7.7154   12.9559   -1.5391 C.ar      1 RES1    0.0000
     34 H13        8.5288   12.5719   -1.3037 H         1 RES1    0.0000
     35 C14        6.0448    9.8345   -1.4093 C.3       1 RES1    0.0000
     36 H14        5.0935    9.8719   -1.2209 H         1 RES1    0.0000
     37 H15        6.3807    8.9959   -1.0569 H         1 RES1    0.0000
     38 O6        -4.2638    9.8072    7.7103 O.2       2 RES2    0.0000
     39 O7        -6.3142   10.8055    3.8154 O.2       2 RES2    0.0000
     40 O8        -8.8560    9.5598    7.3191 O.2       2 RES2    0.0000
     41 O9        -5.3667   13.6982   10.6100 O.2       2 RES2    0.0000
     42 O10       -7.4497   13.4206   10.5581 O.2       2 RES2    0.0000
     43 N4        -5.2464   10.3466    5.7523 N.am      2 RES2    0.0000
     44 N5        -7.6102   10.2560    5.5656 N.am      2 RES2    0.0000
     45 N6        -6.3518   13.0422   10.3551 N.pl3     2 RES2    0.0000
     46 C15       -5.2665   10.0604    7.0901 C.2       2 RES2    0.0000
     47 C16       -3.9542   10.4603    5.0850 C.3       2 RES2    0.0000
     48 H16       -3.2436   10.3265    5.7344 H         2 RES2    0.0000
     49 H17       -3.8577   11.3334    4.7019 H         2 RES2    0.0000
     50 H18       -3.8677    9.7957    4.3983 H         2 RES2    0.0000
     51 C17       -6.3857   10.5092    4.9811 C.2       2 RES2    0.0000
     52 C18       -8.7757   10.2690    4.6840 C.3       2 RES2    0.0000
     53 H19       -9.5666   10.0733    5.1954 H         2 RES2    0.0000
     54 H20       -8.6617    9.5958    4.0086 H         2 RES2    0.0000
     55 H21       -8.8660   11.1277    4.2700 H         2 RES2    0.0000
     56 C19       -7.7819    9.9439    6.9002 C.2       2 RES2    0.0000
     57 C20       -6.6050   10.1798    7.7737 C.3       2 RES2    0.0000
     58 H22       -6.6301    9.5051    8.4832 H         2 RES2    0.0000
     59 C21       -6.8832   11.5937    8.4556 C.3       2 RES2    0.0000
     60 H23       -7.8282   11.6053    8.7137 H         2 RES2    0.0000
     61 C22       -6.6777   12.7373    7.4636 C.ar      2 RES2    0.0000
     62 C23       -5.4582   13.2594    7.1258 C.ar      2 RES2    0.0000
     63 H24       -4.6849   12.9430    7.5317 H         2 RES2    0.0000
     64 C24       -5.3843   14.2836    6.1533 C.ar      2 RES2    0.0000
     65 H25       -4.5596   14.6375    5.9082 H         2 RES2    0.0000
     66 C25       -6.5085   14.7453    5.5851 C.ar      2 RES2    0.0000
     67 H26       -6.4659   15.4157    4.9405 H         2 RES2    0.0000
     68 C26       -7.6979   14.2347    5.9471 C.ar      2 RES2    0.0000
     69 H27       -8.4762   14.5569    5.5526 H         2 RES2    0.0000
     70 C27       -7.7731   13.2479    6.8904 C.ar      2 RES2    0.0000
     71 H28       -8.6078   12.9229    7.1405 H         2 RES2    0.0000
     72 C28       -6.1074   11.7275    9.6813 C.3       2 RES2    0.0000
     73 H29       -5.1637   11.6455    9.4719 H         2 RES2    0.0000
     74 H30       -6.3431   11.0083   10.2869 H         2 RES2    0.0000
@<TRIPOS>BOND
     1    1    9 2
     2    2   14 2
     3    3   19 2
     4    4    8 2
     5    5    8 2
     6    6    9 1
     7    7   14 1
     8    8   35 1
     9    9   20 1
    10   10    6 1
    11   11   10 1
    12   12   10 1
    13   13   10 1
    14   14    6 1
    15   15    7 1
    16   16   15 1
    17   17   15 1
    18   18   15 1
    19   19    7 1
    20   20   19 1
    21   21   20 1
    22   22   20 1
    23   23   22 1
    24   24   22 1
    25   25   24 ar
    26   26   25 1
    27   27   25 ar
    28   28   27 1
    29   29   27 ar
    30   30   29 1
    31   31   29 ar
    32   32   31 1
    33   33   24 ar
    34   34   33 1
    35   35   22 1
    36   36   35 1
    37   37   35 1
    38   38   46 2
    39   39   51 2
    40   40   56 2
    41   41   45 2
    42   42   45 2
    43   43   46 1
    44   44   51 1
    45   45   72 1
    46   46   57 1
    47   47   43 1
    48   48   47 1
    49   49   47 1
    50   50   47 1
    51   51   43 1
    52   52   44 1
    53   53   52 1
    54   54   52 1
    55   55   52 1
    56   56   44 1
    57   57   56 1
    58   58   57 1
    59   59   57 1
    60   60   59 1
    61   61   59 1
    62   62   61 ar
    63   63   62 1
    64   64   62 ar
    65   65   64 1
    66   66   64 ar
    67   67   66 1
    68   68   66 ar
    69   69   68 1
    70   70   61 ar
    71   71   70 1
    72   72   59 1
    73   73   72 1
    74   74   72 1
    75   31   33 ar
    76   68   70 ar
@<TRIPOS>SUBSTRUCTURE
     1 RES1 1
     2 RES2 38

@<TRIPOS>CRYSIN
  12.5332   14.3843   16.2357  90.0000  90.0000  90.0000  19 1

