# MOL2 file generated by ConQuest
# Please check atom types

@<TRIPOS>MOLECULE
TUJVUR
    38    40     1
SMALL
NO_CHARGES
****
Generated from CSD

@<TRIPOS>ATOM
      1 O1         8.1036    3.3862    0.5456 O.2       1 RES1    0.0000
      2 O2         0.1176   -0.6711    1.8955 O.2       1 RES1    0.0000
      3 O3        -0.2579   -0.0654    3.8902 O.2       1 RES1    0.0000
      4 O4         6.1530    0.3806    5.5596 O.2       1 RES1    0.0000
      5 N1         7.9248    1.5484    4.7473 N.am      1 RES1    0.0000
      6 N2         8.5877    2.1818    3.7580 N.2       1 RES1    0.0000
      7 N3         0.4560   -0.1847    2.9457 N.pl3     1 RES1    0.0000
      8 C1         7.9388    2.3977    2.6479 C.2       1 RES1    0.0000
      9 C2         6.5756    2.0371    2.4632 C.2       1 RES1    0.0000
     10 C3         5.8959    1.4284    3.4560 C.2       1 RES1    0.0000
     11 C4         6.6083    1.0721    4.6625 C.2       1 RES1    0.0000
     12 C5         8.7208    1.3295    5.9346 C.ar      1 RES1    0.0000
     13 C6         8.2143    1.6031    7.1775 C.ar      1 RES1    0.0000
     14 C7         8.9803    1.4145    8.2965 C.ar      1 RES1    0.0000
     15 C8        10.2631    0.9274    8.1614 C.ar      1 RES1    0.0000
     16 C9        10.7671    0.6361    6.9191 C.ar      1 RES1    0.0000
     17 C10        9.9832    0.8173    5.7978 C.ar      1 RES1    0.0000
     18 C11        8.6809    3.0865    1.5596 C.2       1 RES1    0.0000
     19 C12       10.1349    3.3762    1.7469 C.3       1 RES1    0.0000
     20 C13        4.4724    1.0332    3.3212 C.ar      1 RES1    0.0000
     21 C14        3.9960    0.5483    2.1183 C.ar      1 RES1    0.0000
     22 C15        2.6695    0.1697    2.0043 C.ar      1 RES1    0.0000
     23 C16        1.8465    0.2924    3.0673 C.ar      1 RES1    0.0000
     24 C17        2.2781    0.7885    4.2392 C.ar      1 RES1    0.0000
     25 C18        3.6067    1.1767    4.3916 C.ar      1 RES1    0.0000
     26 H1         6.1504    2.2218    1.6553 H         1 RES1    0.0000
     27 H2         7.3428    1.9194    7.2617 H         1 RES1    0.0000
     28 H3         8.6373    1.6131    9.1380 H         1 RES1    0.0000
     29 H4        10.7891    0.7950    8.9170 H         1 RES1    0.0000
     30 H5        11.6360    0.3163    6.8327 H         1 RES1    0.0000
     31 H6        10.3107    0.5934    4.9564 H         1 RES1    0.0000
     32 H7        10.6168    2.5505    1.8314 H         1 RES1    0.0000
     33 H8        10.2573    3.8999    2.5422 H         1 RES1    0.0000
     34 H9        10.4641    3.8642    0.9894 H         1 RES1    0.0000
     35 H10        4.5637    0.4768    1.3864 H         1 RES1    0.0000
     36 H11        2.3470   -0.1674    1.2007 H         1 RES1    0.0000
     37 H12        1.6874    0.8731    4.9532 H         1 RES1    0.0000
     38 H13        3.9086    1.5269    5.1997 H         1 RES1    0.0000
@<TRIPOS>BOND
     1    1   18 2
     2    2    7 2
     3    3    7 2
     4    4   11 2
     5    5    6 1
     6    6    8 2
     7    7   23 1
     8    8    9 1
     9    9   10 2
    10   10   11 1
    11   11    5 1
    12   12    5 1
    13   13   12 ar
    14   14   13 ar
    15   15   14 ar
    16   16   15 ar
    17   17   12 ar
    18   18    8 1
    19   19   18 1
    20   20   10 1
    21   21   20 ar
    22   22   21 ar
    23   23   22 ar
    24   24   23 ar
    25   25   20 ar
    26   26    9 1
    27   27   13 1
    28   28   14 1
    29   29   15 1
    30   30   16 1
    31   31   17 1
    32   32   19 1
    33   33   19 1
    34   34   19 1
    35   35   21 1
    36   36   22 1
    37   37   24 1
    38   38   25 1
    39   16   17 ar
    40   24   25 ar
@<TRIPOS>SUBSTRUCTURE
     1 RES1 1

@<TRIPOS>CRYSIN
  25.6800    3.8480   32.0200  90.0000  90.6210  90.0000  15 1

