# MOL2 file generated by ConQuest
# Please check atom types

@<TRIPOS>MOLECULE
TUJYII
    34    37     1
SMALL
USER_CHARGES
****
Generated from CSD

@<TRIPOS>ATOM
      1 N1         2.3961    3.6941    5.3742 N.pl3     1 RES1    1.0000
      2 O1         1.8877    2.7578    4.6127 O.2       1 RES1   -1.0000
      3 N2        -0.8075    2.5264    6.2041 N.pl3     1 RES1    1.0000
      4 C1         2.4755    3.4933    6.7531 C.ar      1 RES1    0.0000
      5 O2        -0.2695    3.5826    6.7354 O.2       1 RES1   -1.0000
      6 C2         1.9703    2.3083    7.3631 C.ar      1 RES1    0.0000
      7 C3         1.2091    1.1991    6.7026 C.ar      1 RES1    0.0000
      8 C4        -0.1089    1.3055    6.1847 C.ar      1 RES1    0.0000
      9 C5        -0.7796    0.1715    5.6579 C.ar      1 RES1    0.0000
     10 C6         3.1009    4.5035    7.5344 C.ar      1 RES1    0.0000
     11 C7        -2.0441    2.6211    5.6971 C.ar      1 RES1    0.0000
     12 C8         1.1131   -1.2056    6.2475 C.ar      1 RES1    0.0000
     13 C9        -0.1256   -1.0895    5.6946 C.ar      1 RES1    0.0000
     14 C10        2.8609    4.8285    4.8220 C.ar      1 RES1    0.0000
     15 C11        1.7743   -0.0636    6.7401 C.ar      1 RES1    0.0000
     16 C12        3.4524    5.8376    5.5821 C.ar      1 RES1    0.0000
     17 C13        2.2090    2.1440    8.7054 C.ar      1 RES1    0.0000
     18 C14        3.5729    5.6884    6.9252 C.ar      1 RES1    0.0000
     19 C15       -2.0853    0.2959    5.1230 C.ar      1 RES1    0.0000
     20 C16        2.8397    3.1272    9.4899 C.ar      1 RES1    0.0000
     21 C17       -2.7064    1.5118    5.1531 C.ar      1 RES1    0.0000
     22 C18        3.2535    4.2924    8.9272 C.ar      1 RES1    0.0000
     23 H1         2.7621    4.8974    3.8573 H         1 RES1    0.0000
     24 H2         1.8484    1.3002    9.1499 H         1 RES1    0.0000
     25 H3         3.7943    6.5706    5.1213 H         1 RES1    0.0000
     26 H4        -0.6037   -1.8207    5.2600 H         1 RES1    0.0000
     27 H5        -2.4068    3.5972    5.7737 H         1 RES1    0.0000
     28 H6        -3.5902    1.6247    4.8277 H         1 RES1    0.0000
     29 H7         2.8963    2.9987   10.4057 H         1 RES1    0.0000
     30 H8        -2.5191   -0.4151    4.6810 H         1 RES1    0.0000
     31 H9         4.0125    6.3367    7.4781 H         1 RES1    0.0000
     32 H10        2.5768   -0.1517    7.0704 H         1 RES1    0.0000
     33 H11        3.6658    5.0196    9.4679 H         1 RES1    0.0000
     34 H12        1.5737   -2.0504    6.2549 H         1 RES1    0.0000
@<TRIPOS>BOND
     1    1    2 1
     2    3    5 1
     3    4    1 ar
     4    6    4 ar
     5    7    6 1
     6    8    3 ar
     7    9    8 ar
     8   10    4 ar
     9   11    3 ar
    10   12   13 ar
    11   13    9 ar
    12   14    1 ar
    13   15    7 ar
    14   16   14 ar
    15   17    6 ar
    16   18   10 ar
    17   19    9 ar
    18   20   17 ar
    19   21   11 ar
    20   22   10 ar
    21   23   14 1
    22   24   17 1
    23   25   16 1
    24   26   13 1
    25   27   11 1
    26   28   21 1
    27   29   20 1
    28   30   19 1
    29   31   18 1
    30   32   15 1
    31   33   22 1
    32   34   12 1
    33    7    8 ar
    34   12   15 ar
    35   16   18 ar
    36   19   21 ar
    37   20   22 ar
@<TRIPOS>SUBSTRUCTURE
     1 RES1 1

@<TRIPOS>CRYSIN
   7.7200   21.0730    8.1610  90.0000  92.2020  90.0000 231 1

