# MOL2 file generated by ConQuest
# Please check atom types

@<TRIPOS>MOLECULE
TUKROH
    56    59     1
SMALL
NO_CHARGES
****
Generated from CSD

@<TRIPOS>ATOM
      1 C1        10.9451   10.0237    7.8624 C.ar      1 RES1    0.0000
      2 H1        10.9846    9.1514    7.4899 H         1 RES1    0.0000
      3 C2        12.0475   10.5297    8.5528 C.ar      1 RES1    0.0000
      4 H2        12.8310   10.0004    8.6456 H         1 RES1    0.0000
      5 C3        12.0041   11.8020    9.1053 C.ar      1 RES1    0.0000
      6 H3        12.7518   12.1424    9.5820 H         1 RES1    0.0000
      7 C4        10.8610   12.5712    8.9554 C.ar      1 RES1    0.0000
      8 H4        10.8246   13.4448    9.3270 H         1 RES1    0.0000
      9 C5         9.7727   12.0668    8.2639 C.ar      1 RES1    0.0000
     10 H5         8.9977   12.6062    8.1614 H         1 RES1    0.0000
     11 C6         9.7894   10.7836    7.7144 C.ar      1 RES1    0.0000
     12 C7         8.5582   10.2937    6.9853 C.3       1 RES1    0.0000
     13 H6         8.2665   11.0049    6.3613 H         1 RES1    0.0000
     14 H7         7.8353   10.1712    7.6501 H         1 RES1    0.0000
     15 C8         8.7001    9.0037    6.1982 C.3       1 RES1    0.0000
     16 H8         8.8521    8.2508    6.8234 H         1 RES1    0.0000
     17 H9         9.4848    9.0682    5.5974 H         1 RES1    0.0000
     18 C9         7.4535    8.7343    5.3753 C.3       1 RES1    0.0000
     19 H10        7.2195    9.5626    4.8668 H         1 RES1    0.0000
     20 C10        6.1657    8.2038    6.0900 C.3       1 RES1    0.0000
     21 H11        6.3420    7.6500    6.8911 H         1 RES1    0.0000
     22 H12        5.4835    8.8986    6.2714 H         1 RES1    0.0000
     23 C11        5.9281    7.4120    4.8258 C.2       1 RES1    0.0000
     24 C12        7.3757    7.5039    4.3987 C.3       1 RES1    0.0000
     25 C13        8.2434    6.3306    4.8631 C.3       1 RES1    0.0000
     26 H13        8.0822    6.1616    5.8143 H         1 RES1    0.0000
     27 H14        9.1889    6.5496    4.7263 H         1 RES1    0.0000
     28 H15        8.0145    5.5302    4.3456 H         1 RES1    0.0000
     29 C14        7.4647    7.7210    2.8882 C.3       1 RES1    0.0000
     30 H16        8.4001    7.6111    2.5837 H         1 RES1    0.0000
     31 H17        7.1670    8.6369    2.6589 H         1 RES1    0.0000
     32 C15        6.5633    6.6863    2.2024 C.3       1 RES1    0.0000
     33 H18        6.6503    6.7791    1.2210 H         1 RES1    0.0000
     34 H19        6.8662    5.7765    2.4494 H         1 RES1    0.0000
     35 C16        5.0999    6.8502    2.5936 C.3       1 RES1    0.0000
     36 H20        4.6881    7.5623    2.0256 H         1 RES1    0.0000
     37 C17        4.8852    7.1915    4.0346 C.2       1 RES1    0.0000
     38 H21        4.0034    7.2502    4.3826 H         1 RES1    0.0000
     39 C18        3.1669    5.5489    2.0436 C.2       1 RES1    0.0000
     40 C19        2.6809    4.1862    1.6700 C.ar      1 RES1    0.0000
     41 C20        3.5199    3.0738    1.7327 C.ar      1 RES1    0.0000
     42 H22        4.4235    3.1592    2.0132 H         1 RES1    0.0000
     43 C21        3.0006    1.8409    1.3745 C.ar      1 RES1    0.0000
     44 C22        1.7105    1.6630    0.9095 C.ar      1 RES1    0.0000
     45 H23        1.3929    0.8149    0.6222 H         1 RES1    0.0000
     46 C23        0.9076    2.7905    0.8870 C.ar      1 RES1    0.0000
     47 C24        1.3573    4.0421    1.2768 C.ar      1 RES1    0.0000
     48 H24        0.7702    4.7892    1.2752 H         1 RES1    0.0000
     49 N1        -0.4960    2.6296    0.4910 N.pl3     1 RES1    0.0000
     50 N2         3.8445    0.6494    1.5540 N.pl3     1 RES1    0.0000
     51 O1         4.4754    5.5544    2.2669 O.3       1 RES1    0.0000
     52 O2         2.4417    6.5122    2.1187 O.2       1 RES1    0.0000
     53 O3        -1.2767    3.5332    0.7747 O.2       1 RES1    0.0000
     54 O4        -0.8092    1.6024   -0.0887 O.2       1 RES1    0.0000
     55 O5         4.9188    0.8068    2.1105 O.2       1 RES1    0.0000
     56 O6         3.4106   -0.4296    1.1792 O.2       1 RES1    0.0000
@<TRIPOS>BOND
     1    1    2 1
     2    3    1 ar
     3    4    3 1
     4    5    3 ar
     5    6    5 1
     6    7    5 ar
     7    8    7 1
     8    9    7 ar
     9   10    9 1
    10   11    1 ar
    11   12   11 1
    12   13   12 1
    13   14   12 1
    14   15   12 1
    15   16   15 1
    16   17   15 1
    17   18   15 1
    18   19   18 1
    19   20   18 1
    20   21   20 1
    21   22   20 1
    22   23   20 1
    23   24   18 1
    24   25   24 1
    25   26   25 1
    26   27   25 1
    27   28   25 1
    28   29   24 1
    29   30   29 1
    30   31   29 1
    31   32   29 1
    32   33   32 1
    33   34   32 1
    34   35   32 1
    35   36   35 1
    36   37   23 2
    37   38   37 1
    38   39   40 1
    39   40   41 ar
    40   41   42 1
    41   43   41 ar
    42   44   43 ar
    43   45   44 1
    44   46   44 ar
    45   47   40 ar
    46   48   47 1
    47   49   46 1
    48   50   43 1
    49   51   35 1
    50   52   39 2
    51   53   49 2
    52   54   49 2
    53   55   50 2
    54   56   50 2
    55    9   11 ar
    56   23   24 1
    57   35   37 1
    58   39   51 1
    59   46   47 ar
@<TRIPOS>SUBSTRUCTURE
     1 RES1 1

@<TRIPOS>CRYSIN
   8.1550   10.7111   12.5290  81.5940  82.4350  79.8280   2 1

