# MOL2 file generated by ConQuest
# Please check atom types

@<TRIPOS>MOLECULE
TUKRIB
    53    56     1
SMALL
NO_CHARGES
****
Generated from CSD

@<TRIPOS>ATOM
      1 C1         0.1121   16.2086    1.3018 C.ar      1 RES1    0.0000
      2 H1         0.1231   16.4113    2.2294 H         1 RES1    0.0000
      3 C2        -0.3626   17.1258    0.3903 C.ar      1 RES1    0.0000
      4 C3        -0.3532   16.9063   -0.9708 C.ar      1 RES1    0.0000
      5 H2        -0.6596   17.5612   -1.5875 H         1 RES1    0.0000
      6 C4         0.1272   15.6789   -1.3880 C.ar      1 RES1    0.0000
      7 C5         0.5659   14.7065   -0.5145 C.ar      1 RES1    0.0000
      8 H3         0.8567   13.8629   -0.8377 H         1 RES1    0.0000
      9 C6         0.5752   14.9817    0.8431 C.ar      1 RES1    0.0000
     10 C7         1.0334   13.9746    1.8384 C.2       1 RES1    0.0000
     11 C8         1.3392   11.6262    2.2205 C.3       1 RES1    0.0000
     12 H4         0.9892   11.8467    3.1304 H         1 RES1    0.0000
     13 C9         0.5207   10.4746    1.6408 C.3       1 RES1    0.0000
     14 H5        -0.4271   10.5919    1.9042 H         1 RES1    0.0000
     15 H6         0.5664   10.5142    0.6534 H         1 RES1    0.0000
     16 C10        0.9956    9.1021    2.1028 C.3       1 RES1    0.0000
     17 H7         0.9515    9.0360    3.0901 H         1 RES1    0.0000
     18 H8         0.4258    8.3912    1.7142 H         1 RES1    0.0000
     19 C11        2.4278    8.9512    1.6261 C.3       1 RES1    0.0000
     20 H9         2.4456    8.8127    0.6362 H         1 RES1    0.0000
     21 C12        3.2564   10.1354    1.9891 C.2       1 RES1    0.0000
     22 C13        2.7955   11.3529    2.3201 C.2       1 RES1    0.0000
     23 H10        3.3934   12.0293    2.6137 H         1 RES1    0.0000
     24 C14        4.4708    9.3051    2.2568 C.3       1 RES1    0.0000
     25 H11        4.9162    9.5042    3.1175 H         1 RES1    0.0000
     26 H12        5.1216    9.2866    1.5098 H         1 RES1    0.0000
     27 C15        3.5067    8.0676    2.3013 C.3       1 RES1    0.0000
     28 H13        3.2475    7.8628    3.2456 H         1 RES1    0.0000
     29 C16        3.9316    6.8079    1.5897 C.3       1 RES1    0.0000
     30 H14        4.6642    6.3827    2.1013 H         1 RES1    0.0000
     31 H15        4.2858    7.0470    0.6966 H         1 RES1    0.0000
     32 C17        2.7917    5.7952    1.4163 C.3       1 RES1    0.0000
     33 H16        2.4807    5.5048    2.3100 H         1 RES1    0.0000
     34 H17        2.0324    6.2390    0.9614 H         1 RES1    0.0000
     35 C18        3.2021    4.5810    0.6192 C.ar      1 RES1    0.0000
     36 C19        3.1300    4.5716   -0.7676 C.ar      1 RES1    0.0000
     37 H18        2.8189    5.3435   -1.2263 H         1 RES1    0.0000
     38 C20        3.5101    3.4417   -1.4961 C.ar      1 RES1    0.0000
     39 H19        3.4418    3.4419   -2.4439 H         1 RES1    0.0000
     40 C21        3.9805    2.3385   -0.8449 C.ar      1 RES1    0.0000
     41 H20        4.2486    1.5733   -1.3400 H         1 RES1    0.0000
     42 C22        4.0653    2.3319    0.5325 C.ar      1 RES1    0.0000
     43 H21        4.3933    1.5636    0.9859 H         1 RES1    0.0000
     44 C23        3.6728    3.4456    1.2499 C.ar      1 RES1    0.0000
     45 H22        3.7276    3.4303    2.1978 H         1 RES1    0.0000
     46 N1        -0.9212   18.3924    0.8801 N.pl3     1 RES1    0.0000
     47 N2         0.1300   15.3803   -2.8266 N.pl3     1 RES1    0.0000
     48 O1        -0.8483   18.6317    2.0713 O.2       1 RES1    0.0000
     49 O2        -1.4457   19.1365    0.0697 O.2       1 RES1    0.0000
     50 O3        -0.0174   16.3241   -3.6057 O.2       1 RES1    0.0000
     51 O4         0.2700   14.2232   -3.1703 O.2       1 RES1    0.0000
     52 O5         1.3186   14.2487    2.9756 O.2       1 RES1    0.0000
     53 O6         1.0621   12.7554    1.3179 O.3       1 RES1    0.0000
@<TRIPOS>BOND
     1    1    2 1
     2    3    1 ar
     3    4    3 ar
     4    5    4 1
     5    6    4 ar
     6    7    6 ar
     7    8    7 1
     8    9    1 ar
     9   10    9 1
    10   11   12 1
    11   13   11 1
    12   14   13 1
    13   15   13 1
    14   16   13 1
    15   17   16 1
    16   18   16 1
    17   19   16 1
    18   20   19 1
    19   21   19 1
    20   22   11 1
    21   23   22 1
    22   24   21 1
    23   25   24 1
    24   26   24 1
    25   27   19 1
    26   28   27 1
    27   29   27 1
    28   30   29 1
    29   31   29 1
    30   32   29 1
    31   33   32 1
    32   34   32 1
    33   35   32 1
    34   36   35 ar
    35   37   36 1
    36   38   36 ar
    37   39   38 1
    38   40   38 ar
    39   41   40 1
    40   42   40 ar
    41   43   42 1
    42   44   35 ar
    43   45   44 1
    44   46    3 1
    45   47    6 1
    46   48   46 2
    47   49   46 2
    48   50   47 2
    49   51   47 2
    50   52   10 2
    51   53   10 1
    52    7    9 ar
    53   11   53 1
    54   21   22 2
    55   24   27 1
    56   42   44 ar
@<TRIPOS>SUBSTRUCTURE
     1 RES1 1

@<TRIPOS>CRYSIN
   7.4800   19.4240   14.7794  90.0000 103.1340  90.0000  14 1

