# MOL2 file generated by ConQuest
# Please check atom types

@<TRIPOS>MOLECULE
TUKZIK
    68    70     2
SMALL
NO_CHARGES
****
Generated from CSD

@<TRIPOS>ATOM
      1 C1        11.2484    9.7230    6.8903 C.3       1 RES1    0.0000
      2 H1        10.8289   10.1016    6.0900 H         1 RES1    0.0000
      3 H2        12.1894    9.9986    6.9280 H         1 RES1    0.0000
      4 H3        10.7805   10.0471    7.6881 H         1 RES1    0.0000
      5 O1        11.7561    7.5579    7.8915 O.3       1 RES1    0.0000
      6 C2        11.1694    8.2495    6.8377 C.2       1 RES1    0.0000
      7 C3        10.6364    7.3886    5.9721 C.2       1 RES1    0.0000
      8 H4        10.1773    7.6047    5.1693 H         1 RES1    0.0000
      9 C4        10.8909    6.0742    6.4839 C.2       1 RES1    0.0000
     10 C5        11.5859    6.2282    7.6430 C.2       1 RES1    0.0000
     11 C6        12.1613    5.3290    8.6640 C.3       1 RES1    0.0000
     12 H5        13.1230    5.4974    8.7431 H         1 RES1    0.0000
     13 H6        12.0143    4.3966    8.3981 H         1 RES1    0.0000
     14 H7        11.7291    5.4949    9.5271 H         1 RES1    0.0000
     15 C7        10.5725    4.7649    5.9646 C.2       1 RES1    0.0000
     16 H8        11.0147    4.0648    6.4300 H         1 RES1    0.0000
     17 C8         9.7880    4.3192    4.9711 C.2       1 RES1    0.0000
     18 H9         9.8039    3.3808    4.8231 H         1 RES1    0.0000
     19 C9         8.9235    5.0755    4.0993 C.2       1 RES1    0.0000
     20 O2         8.7904    6.2469    3.9513 O.2       1 RES1    0.0000
     21 O3         8.1383    4.1898    3.3756 O.3       1 RES1    0.0000
     22 C10        7.2211    4.6671    2.4448 C.ar      1 RES1    0.0000
     23 C11        5.9034    4.3158    2.6242 C.ar      1 RES1    0.0000
     24 H10        5.6387    3.8479    3.4069 H         1 RES1    0.0000
     25 C12        4.9693    4.6433    1.6708 C.ar      1 RES1    0.0000
     26 H11        4.0554    4.4110    1.7888 H         1 RES1    0.0000
     27 C13        5.3770    5.3060    0.5532 C.ar      1 RES1    0.0000
     28 C14        6.6885    5.6667    0.3638 C.ar      1 RES1    0.0000
     29 H12        6.9504    6.1312   -0.4227 H         1 RES1    0.0000
     30 C15        7.6158    5.3485    1.3271 C.ar      1 RES1    0.0000
     31 H13        8.5252    5.5995    1.2180 H         1 RES1    0.0000
     32 N1         4.3852    5.6437   -0.4754 N.pl3     1 RES1    0.0000
     33 O4         3.1999    5.4847   -0.2145 O.2       1 RES1    0.0000
     34 O5         4.7924    6.0572   -1.5479 O.2       1 RES1    0.0000
     35 C16        1.8740    5.8454   -3.8083 C.3       2 RES2    0.0000
     36 H14        0.9653    6.2086   -3.8459 H         2 RES2    0.0000
     37 H15        2.3566    6.0819   -4.6274 H         2 RES2    0.0000
     38 H16        2.3422    6.2197   -3.0331 H         2 RES2    0.0000
     39 O6         1.2651    3.6845   -4.7534 O.3       2 RES2    0.0000
     40 C17        1.8104    4.3642   -3.6804 C.2       2 RES2    0.0000
     41 C18        2.2051    3.5059   -2.7421 C.2       2 RES2    0.0000
     42 H17        2.6074    3.7262   -1.9117 H         2 RES2    0.0000
     43 C19        1.9065    2.1830   -3.2225 C.2       2 RES2    0.0000
     44 C20        1.3219    2.3463   -4.4430 C.2       2 RES2    0.0000
     45 C21        0.7558    1.4403   -5.4603 C.3       2 RES2    0.0000
     46 H18        1.3544    1.4037   -6.2343 H         2 RES2    0.0000
     47 H19       -0.1224    1.7729   -5.7413 H         2 RES2    0.0000
     48 H20        0.6591    0.5419   -5.0803 H         2 RES2    0.0000
     49 C22        2.0561    0.8822   -2.6104 C.2       2 RES2    0.0000
     50 H21        1.5339    0.2101   -3.0331 H         2 RES2    0.0000
     51 C23        2.7662    0.4203   -1.5843 C.2       2 RES2    0.0000
     52 H22        2.6119   -0.4849   -1.3422 H         2 RES2    0.0000
     53 C24        3.7555    1.1383   -0.7840 C.2       2 RES2    0.0000
     54 O7         4.0841    2.2808   -0.7978 O.2       2 RES2    0.0000
     55 O8         4.3341    0.2322    0.0803 O.3       2 RES2    0.0000
     56 C25        5.4087    0.5879    0.8969 C.ar      2 RES2    0.0000
     57 C26        5.2918    0.2391    2.2090 C.ar      2 RES2    0.0000
     58 H23        4.4801   -0.1370    2.5301 H         2 RES2    0.0000
     59 C27        6.3426    0.4288    3.0670 C.ar      2 RES2    0.0000
     60 H24        6.2662    0.1974    3.9852 H         2 RES2    0.0000
     61 C28        7.4982    0.9554    2.5753 C.ar      2 RES2    0.0000
     62 C29        7.6328    1.3161    1.2607 C.ar      2 RES2    0.0000
     63 H25        8.4498    1.6793    0.9395 H         2 RES2    0.0000
     64 C30        6.5593    1.1417    0.4139 C.ar      2 RES2    0.0000
     65 H26        6.6188    1.4037   -0.4967 H         2 RES2    0.0000
     66 N2         8.6193    1.1323    3.4947 N.pl3     2 RES2    0.0000
     67 O9         8.4051    1.1221    4.7014 O.2       2 RES2    0.0000
     68 O10        9.7409    1.2889    3.0256 O.2       2 RES2    0.0000
@<TRIPOS>BOND
     1    1    2 1
     2    3    1 1
     3    4    1 1
     4    5    6 1
     5    6    1 1
     6    7    6 2
     7    8    7 1
     8    9    7 1
     9   10    5 1
    10   11   10 1
    11   12   11 1
    12   13   11 1
    13   14   11 1
    14   15    9 1
    15   16   15 1
    16   17   15 2
    17   18   17 1
    18   19   17 1
    19   20   19 2
    20   21   19 1
    21   22   21 1
    22   23   22 ar
    23   24   23 1
    24   25   23 ar
    25   26   25 1
    26   27   25 ar
    27   28   27 ar
    28   29   28 1
    29   30   22 ar
    30   31   30 1
    31   32   27 1
    32   33   32 2
    33   34   32 2
    34   35   36 1
    35   37   35 1
    36   38   35 1
    37   39   40 1
    38   40   35 1
    39   41   40 2
    40   42   41 1
    41   43   41 1
    42   44   39 1
    43   45   44 1
    44   46   45 1
    45   47   45 1
    46   48   45 1
    47   49   43 1
    48   50   49 1
    49   51   49 2
    50   52   51 1
    51   53   51 1
    52   54   53 2
    53   55   53 1
    54   56   55 1
    55   57   56 ar
    56   58   57 1
    57   59   57 ar
    58   60   59 1
    59   61   59 ar
    60   62   61 ar
    61   63   62 1
    62   64   56 ar
    63   65   64 1
    64   66   61 1
    65   67   66 2
    66   68   66 2
    67    9   10 2
    68   28   30 ar
    69   43   44 2
    70   62   64 ar
@<TRIPOS>SUBSTRUCTURE
     1 RES1 1
     2 RES2 35

@<TRIPOS>CRYSIN
  26.0740    8.5073   12.5490  90.0000  91.6400  90.0000  14 1

