# MOL2 file generated by ConQuest
# Please check atom types

@<TRIPOS>MOLECULE
TULCIO
    40    44     1
SMALL
NO_CHARGES
****
Generated from CSD

@<TRIPOS>ATOM
      1 C1        -2.0104    3.8631   11.4719 C.3       1 RES1    0.0000
      2 C2        -1.7540    2.4758   12.0468 C.3       1 RES1    0.0000
      3 O1        -1.2669    2.5287   13.4124 O.3       1 RES1    0.0000
      4 N1         0.0718    2.0557   13.4537 N.2       1 RES1    0.0000
      5 C3         0.4480    1.7656   12.2749 C.2       1 RES1    0.0000
      6 C4        -0.5747    1.9756   11.2011 C.3       1 RES1    0.0000
      7 C5        -0.3402    3.1621   10.2495 C.3       1 RES1    0.0000
      8 N2        -1.5155    3.1411    9.3571 N.am      1 RES1    0.0000
      9 O2        -2.6190    3.6183   10.1703 O.3       1 RES1    0.0000
     10 C6        -0.6405    4.3679   11.1207 C.3       1 RES1    0.0000
     11 N3         1.7629    1.2690   12.0959 N.am      1 RES1    0.0000
     12 C7         2.6489    1.2547   13.1629 C.2       1 RES1    0.0000
     13 C8         3.9020    0.8538   13.0526 C.2       1 RES1    0.0000
     14 C9         4.4258    0.4563   11.7770 C.2       1 RES1    0.0000
     15 O3         5.5881    0.1253   11.5485 O.2       1 RES1    0.0000
     16 N4         3.5039    0.4878   10.7566 N.am      1 RES1    0.0000
     17 C10        2.1919    0.8553   10.8358 C.2       1 RES1    0.0000
     18 O4         1.4716    0.8077    9.8673 O.2       1 RES1    0.0000
     19 C11       -1.5724    3.5906    8.0581 C.2       1 RES1    0.0000
     20 O5        -2.4962    4.2693    7.6501 O.2       1 RES1    0.0000
     21 C12       -0.4839    3.0876    7.1705 C.ar      1 RES1    0.0000
     22 C13        0.1616    1.8737    7.3705 C.ar      1 RES1    0.0000
     23 C14        1.1603    1.4644    6.5174 C.ar      1 RES1    0.0000
     24 C15        1.5255    2.2611    5.4451 C.ar      1 RES1    0.0000
     25 C16        0.8740    3.4487    5.2241 C.ar      1 RES1    0.0000
     26 C17       -0.1247    3.8681    6.0739 C.ar      1 RES1    0.0000
     27 H1        -2.6080    4.4501   11.9859 H         1 RES1    0.0000
     28 H2        -2.5491    1.9156   12.0350 H         1 RES1    0.0000
     29 H3        -0.7573    1.1725   10.7067 H         1 RES1    0.0000
     30 H4         0.4639    3.1284    9.7479 H         1 RES1    0.0000
     31 H5        -0.6415    5.1748   10.5692 H         1 RES1    0.0000
     32 H6        -0.0160    4.4300   11.8955 H         1 RES1    0.0000
     33 H7         2.2678    1.6086   13.9469 H         1 RES1    0.0000
     34 H8         4.5266    0.7934   13.8408 H         1 RES1    0.0000
     35 H9         3.8910    0.1862    9.8756 H         1 RES1    0.0000
     36 H10       -0.0828    1.3017    8.1838 H         1 RES1    0.0000
     37 H11        1.6282    0.6525    6.6512 H         1 RES1    0.0000
     38 H12        2.2388    1.9777    4.8553 H         1 RES1    0.0000
     39 H13        1.1972    4.0157    4.4171 H         1 RES1    0.0000
     40 H14       -0.6006    4.6917    5.8790 H         1 RES1    0.0000
@<TRIPOS>BOND
     1    1    2 1
     2    2    3 1
     3    3    4 1
     4    4    5 2
     5    5    6 1
     6    6    2 1
     7    7    6 1
     8    8    7 1
     9    9    1 1
    10   10    1 1
    11   11    5 1
    12   12   11 1
    13   13   12 2
    14   14   13 1
    15   15   14 2
    16   16   14 1
    17   17   11 1
    18   18   17 2
    19   19    8 1
    20   20   19 2
    21   21   19 1
    22   22   21 ar
    23   23   22 ar
    24   24   23 ar
    25   25   24 ar
    26   26   21 ar
    27   27    1 1
    28   28    2 1
    29   29    6 1
    30   30    7 1
    31   31   10 1
    32   32   10 1
    33   33   12 1
    34   34   13 1
    35   35   16 1
    36   36   22 1
    37   37   23 1
    38   38   24 1
    39   39   25 1
    40   40   26 1
    41    7   10 1
    42    8    9 1
    43   16   17 1
    44   25   26 ar
@<TRIPOS>SUBSTRUCTURE
     1 RES1 1

@<TRIPOS>CRYSIN
   9.9770   16.7740   19.6490  90.0000  90.0000  90.0000  61 1

