# MOL2 file generated by ConQuest
# Please check atom types

@<TRIPOS>MOLECULE
TULGAK
    44    47     1
SMALL
NO_CHARGES
****
Generated from CSD

@<TRIPOS>ATOM
      1 C1         8.7800    3.6026    4.4215 C.2       1 RES1    0.0000
      2 C2         8.1046    3.2189    5.6386 C.2       1 RES1    0.0000
      3 C3         6.8335    2.5277    5.4854 C.ar      1 RES1    0.0000
      4 C4         6.0923    2.1037    6.6002 C.ar      1 RES1    0.0000
      5 H1         6.4440    2.2355    7.4729 H         1 RES1    0.0000
      6 C5         4.8756    1.5067    6.4508 C.ar      1 RES1    0.0000
      7 H2         4.3837    1.2298    7.2155 H         1 RES1    0.0000
      8 C6         4.3546    1.3027    5.1693 C.ar      1 RES1    0.0000
      9 H3         3.5084    0.8818    5.0701 H         1 RES1    0.0000
     10 C7         5.0388    1.6967    4.0625 C.ar      1 RES1    0.0000
     11 H4         4.6746    1.5563    3.1965 H         1 RES1    0.0000
     12 C8         6.2909    2.3168    4.2177 C.ar      1 RES1    0.0000
     13 C9         8.2108    3.3295    3.1863 C.2       1 RES1    0.0000
     14 C10        8.8192    3.6193    1.8774 C.ar      1 RES1    0.0000
     15 C11        8.1084    4.2952    0.8910 C.ar      1 RES1    0.0000
     16 H5         7.2521    4.6546    1.0894 H         1 RES1    0.0000
     17 C12        8.6383    4.4458   -0.3721 C.ar      1 RES1    0.0000
     18 H6         8.1463    4.9072   -1.0417 H         1 RES1    0.0000
     19 C13        9.8803    3.9289   -0.6674 C.ar      1 RES1    0.0000
     20 H7        10.2382    4.0206   -1.5423 H         1 RES1    0.0000
     21 C14       10.5962    3.2839    0.3013 C.ar      1 RES1    0.0000
     22 H8        11.4613    2.9481    0.0977 H         1 RES1    0.0000
     23 C15       10.0852    3.1116    1.5692 C.ar      1 RES1    0.0000
     24 H9        10.5898    2.6526    2.2288 H         1 RES1    0.0000
     25 C16       10.6050    4.7542    5.4108 C.2       1 RES1    0.0000
     26 H10       10.2129    4.6308    6.2667 H         1 RES1    0.0000
     27 C17       11.8710    5.4511    5.3013 C.ar      1 RES1    0.0000
     28 C18       12.4895    5.8732    6.4639 C.ar      1 RES1    0.0000
     29 H11       12.0709    5.7295    7.3037 H         1 RES1    0.0000
     30 C19       13.7151    6.5024    6.4017 C.ar      1 RES1    0.0000
     31 C20       14.3361    6.7469    5.1981 C.ar      1 RES1    0.0000
     32 H12       15.1746    7.1904    5.1726 H         1 RES1    0.0000
     33 C21       13.7277    6.3403    4.0380 C.ar      1 RES1    0.0000
     34 H13       14.1489    6.5064    3.2037 H         1 RES1    0.0000
     35 C22       12.4971    5.6863    4.0737 C.ar      1 RES1    0.0000
     36 N1        10.0051    4.3002    4.3734 N.2       1 RES1    0.0000
     37 N2         6.9934    2.7417    3.1126 N.pl3     1 RES1    0.0000
     38 H14        6.6324    2.6264    2.3193 H         1 RES1    0.0000
     39 N3        14.3404    6.9025    7.6400 N.pl3     1 RES1    0.0000
     40 O1         8.5431    3.4651    6.7883 O.2       1 RES1    0.0000
     41 O2        11.9449    5.2914    2.9265 O.3       1 RES1    0.0000
     42 H15       11.2425    4.8595    3.0869 H         1 RES1    0.0000
     43 O3        15.4473    7.4433    7.5923 O.2       1 RES1    0.0000
     44 O4        13.7411    6.7033    8.6962 O.2       1 RES1    0.0000
@<TRIPOS>BOND
     1    1    2 1
     2    2    3 1
     3    3    4 ar
     4    4    5 1
     5    6    4 ar
     6    7    6 1
     7    8    6 ar
     8    9    8 1
     9   10    8 ar
    10   11   10 1
    11   12    3 ar
    12   13    1 2
    13   14   13 1
    14   15   14 ar
    15   16   15 1
    16   17   15 ar
    17   18   17 1
    18   19   17 ar
    19   20   19 1
    20   21   19 ar
    21   22   21 1
    22   23   14 ar
    23   24   23 1
    24   25   26 1
    25   27   25 1
    26   28   27 ar
    27   29   28 1
    28   30   28 ar
    29   31   30 ar
    30   32   31 1
    31   33   31 ar
    32   34   33 1
    33   35   27 ar
    34   36    1 1
    35   37   12 1
    36   38   37 1
    37   39   30 1
    38   40    2 2
    39   41   35 1
    40   42   41 1
    41   43   39 2
    42   44   39 2
    43   10   12 ar
    44   13   37 1
    45   21   23 ar
    46   25   36 2
    47   33   35 ar
@<TRIPOS>SUBSTRUCTURE
     1 RES1 1

@<TRIPOS>CRYSIN
  12.6476   23.8330   23.8370  90.0000  90.0000  90.0000  43 1

