# MOL2 file generated by ConQuest
# Please check atom types

@<TRIPOS>MOLECULE
TUMBEI
    74    74     2
SMALL
NO_CHARGES
****
Generated from CSD

@<TRIPOS>ATOM
      1 O1         3.8181    4.1015    4.5598 O.2       1 RES1    0.0000
      2 O2         2.9579    6.6600    1.3988 O.2       1 RES1    0.0000
      3 O3         4.4968    6.3466    2.8831 O.2       1 RES1    0.0000
      4 N1         3.3703    6.2478    2.4568 N.pl3     1 RES1    0.0000
      5 O4         3.0784    5.8895    5.5288 O.2       1 RES1    0.0000
      6 O5         0.4200    6.0995    4.4399 O.2       1 RES1    0.0000
      7 O6         1.5838    7.7029    3.5600 O.2       1 RES1    0.0000
      8 O7        -1.0752    1.6095    1.3276 O.2       1 RES1    0.0000
      9 C1         0.6591    4.7945    1.6327 C.2       1 RES1    0.0000
     10 N2         1.3528    6.5419    3.8022 N.pl3     1 RES1    0.0000
     11 C2         2.3582    5.4843    3.3296 C.3       1 RES1    0.0000
     12 N3        -1.8307    2.3510    1.9154 N.pl3     1 RES1    0.0000
     13 C3        -0.6224    4.4472    1.6517 C.2       1 RES1    0.0000
     14 O8        -3.0402    2.2667    1.8643 O.2       1 RES1    0.0000
     15 C4         1.7148    4.2717    2.5780 C.3       1 RES1    0.0000
     16 N4         3.1476    5.1134    4.5943 N.pl3     1 RES1    0.0000
     17 C5         1.1330    3.2908    3.5671 C.2       1 RES1    0.0000
     18 C6         2.8052    3.5300    1.7527 C.3       1 RES1    0.0000
     19 C7        -1.1825    3.5278    2.7205 C.3       1 RES1    0.0000
     20 C8        -0.1308    2.8950    3.5909 C.2       1 RES1    0.0000
     21 C9        -1.5802    4.9682    0.6068 C.3       1 RES1    0.0000
     22 C10       -2.2738    4.2038    3.5422 C.3       1 RES1    0.0000
     23 C11       -0.5700    1.7937    4.5242 C.3       1 RES1    0.0000
     24 H1         0.9337    5.4201    0.9737 H         1 RES1    0.0000
     25 H2         1.7184    2.9306    4.2238 H         1 RES1    0.0000
     26 H3         3.5297    3.2473    2.3488 H         1 RES1    0.0000
     27 H4         3.1627    4.1322    1.0675 H         1 RES1    0.0000
     28 H5         2.4101    2.7430    1.3228 H         1 RES1    0.0000
     29 H6        -2.2584    5.5305    1.0366 H         1 RES1    0.0000
     30 H7        -2.0180    4.2128    0.1603 H         1 RES1    0.0000
     31 H8        -1.0870    5.4965   -0.0534 H         1 RES1    0.0000
     32 H9        -2.9584    4.5667    2.9413 H         1 RES1    0.0000
     33 H10       -1.8827    4.9316    4.0694 H         1 RES1    0.0000
     34 H11       -2.6831    3.5470    4.1442 H         1 RES1    0.0000
     35 H12       -0.9002    1.0332    4.0017 H         1 RES1    0.0000
     36 H13       -1.2865    2.1243    5.1060 H         1 RES1    0.0000
     37 H14        0.1899    1.5070    5.0728 H         1 RES1    0.0000
     38 O9         6.4186    8.2764    1.2836 O.2       2 RES2    0.0000
     39 O10        1.8016   10.9288    4.2713 O.2       2 RES2    0.0000
     40 O11        5.4946   12.6794    4.6251 O.2       2 RES2    0.0000
     41 N5         4.5360   13.1734    4.0908 N.pl3     2 RES2    0.0000
     42 O12        4.2352   14.3623    4.0528 O.2       2 RES2    0.0000
     43 O13        3.2181   13.4529    1.4855 O.2       2 RES2    0.0000
     44 N6         2.6454   11.7494    4.5598 N.pl3     2 RES2    0.0000
     45 N7         7.2845    8.6007    2.0555 N.pl3     2 RES2    0.0000
     46 C12        4.2573   10.9988    2.6836 C.3       2 RES2    0.0000
     47 O14        2.8523   12.2073    5.6618 O.2       2 RES2    0.0000
     48 C13        3.5597   12.2029    3.4199 C.3       2 RES2    0.0000
     49 C14        6.6727   10.9838    2.0127 C.2       2 RES2    0.0000
     50 N8         2.6929   13.0676    2.5091 N.pl3     2 RES2    0.0000
     51 C15        5.8354    9.4108    3.8307 C.2       2 RES2    0.0000
     52 C16        5.4654   11.5041    1.9296 C.2       2 RES2    0.0000
     53 C17        4.6400    9.9508    3.7001 C.2       2 RES2    0.0000
     54 C18        7.0026    9.8558    2.9746 C.3       2 RES2    0.0000
     55 O15        1.5555   13.3258    2.8748 O.2       2 RES2    0.0000
     56 C19        3.2787   10.3666    1.6684 C.3       2 RES2    0.0000
     57 C20        6.0847    8.2934    4.8092 C.3       2 RES2    0.0000
     58 C21        7.7988   11.4682    1.1293 C.3       2 RES2    0.0000
     59 O16        8.3365    8.0161    2.1600 O.2       2 RES2    0.0000
     60 C22        8.2464   10.1250    3.7987 C.3       2 RES2    0.0000
     61 H15        5.3459   12.2498    1.3549 H         2 RES2    0.0000
     62 H16        3.9613    9.6557    4.2974 H         2 RES2    0.0000
     63 H17        3.0586   11.0230    0.9749 H         2 RES2    0.0000
     64 H18        2.4594   10.0938    2.1315 H         2 RES2    0.0000
     65 H19        3.6972    9.5818    1.2563 H         2 RES2    0.0000
     66 H20        6.7359    8.5855    5.4813 H         2 RES2    0.0000
     67 H21        6.4365    7.5130    4.3318 H         2 RES2    0.0000
     68 H22        5.2441    8.0540    5.2521 H         2 RES2    0.0000
     69 H23        8.1762   10.7109    0.6365 H         2 RES2    0.0000
     70 H24        8.4952   11.8778    1.6838 H         2 RES2    0.0000
     71 H25        7.4540   12.1309    0.4952 H         2 RES2    0.0000
     72 H26        8.1052   10.9211    4.3520 H         2 RES2    0.0000
     73 H27        9.0082   10.2721    3.2014 H         2 RES2    0.0000
     74 H28        8.4277    9.3538    4.3770 H         2 RES2    0.0000
@<TRIPOS>BOND
     1    1   16 2
     2    2    4 2
     3    3    4 2
     4    4   11 1
     5    5   16 2
     6    6   10 2
     7    7   10 2
     8    8   12 2
     9    9   13 2
    10   10   11 1
    11   11   15 1
    12   12   14 2
    13   13   19 1
    14   15    9 1
    15   16   11 1
    16   17   15 1
    17   18   15 1
    18   19   12 1
    19   20   17 2
    20   21   13 1
    21   22   19 1
    22   23   20 1
    23   24    9 1
    24   25   17 1
    25   26   18 1
    26   27   18 1
    27   28   18 1
    28   29   21 1
    29   30   21 1
    30   31   21 1
    31   32   22 1
    32   33   22 1
    33   34   22 1
    34   35   23 1
    35   36   23 1
    36   37   23 1
    37   38   45 2
    38   39   44 2
    39   40   41 2
    40   41   42 2
    41   43   50 2
    42   44   47 2
    43   45   54 1
    44   46   48 1
    45   48   41 1
    46   49   52 2
    47   50   48 1
    48   51   53 2
    49   52   46 1
    50   53   46 1
    51   54   49 1
    52   55   50 2
    53   56   46 1
    54   57   51 1
    55   58   49 1
    56   59   45 2
    57   60   54 1
    58   61   52 1
    59   62   53 1
    60   63   56 1
    61   64   56 1
    62   65   56 1
    63   66   57 1
    64   67   57 1
    65   68   57 1
    66   69   58 1
    67   70   58 1
    68   71   58 1
    69   72   60 1
    70   73   60 1
    71   74   60 1
    72   19   20 1
    73   44   48 1
    74   51   54 1
@<TRIPOS>SUBSTRUCTURE
     1 RES1 1
     2 RES2 38

@<TRIPOS>CRYSIN
   9.3440   13.2280   13.4590 113.9900 102.6800  92.4700   2 1

