# MOL2 file generated by ConQuest
# Please check atom types

@<TRIPOS>MOLECULE
TUMBAE
    66    66     2
SMALL
NO_CHARGES
****
Generated from CSD

@<TRIPOS>ATOM
      1 C1        10.0400    5.9016    4.0087 C.ar      1 RES1    0.0000
      2 C2         9.3594    6.7100    4.9312 C.ar      1 RES1    0.0000
      3 C3         9.7988    6.7422    6.2447 C.ar      1 RES1    0.0000
      4 C4        10.8953    5.9957    6.6874 C.ar      1 RES1    0.0000
      5 C5        11.5170    5.1735    5.7648 C.ar      1 RES1    0.0000
      6 C6        11.1280    5.1071    4.4307 C.ar      1 RES1    0.0000
      7 C7         9.5637    5.8030    2.5649 C.3       1 RES1    0.0000
      8 C8         8.1425    7.5275    4.5672 C.3       1 RES1    0.0000
      9 C9        11.3640    6.0639    8.1208 C.3       1 RES1    0.0000
     10 C10       11.8661    4.1559    3.5247 C.3       1 RES1    0.0000
     11 C11       10.1573    6.7902    1.5700 C.3       1 RES1    0.0000
     12 N1        11.6667    6.7081    1.5265 N.pl3     1 RES1    0.0000
     13 O1        12.1530    6.0381    0.6516 O.2       1 RES1    0.0000
     14 O2        12.2738    7.2658    2.4325 O.2       1 RES1    0.0000
     15 N2         9.7138    6.5100    0.1303 N.pl3     1 RES1    0.0000
     16 O3         9.1215    5.4675   -0.0765 O.2       1 RES1    0.0000
     17 O4        10.0005    7.3423   -0.6971 O.2       1 RES1    0.0000
     18 N3         9.6705    8.2262    1.7872 N.pl3     1 RES1    0.0000
     19 O5         8.4765    8.3663    1.5658 O.2       1 RES1    0.0000
     20 O6        10.4196    9.0622    2.1367 O.2       1 RES1    0.0000
     21 H1         9.3388    7.2925    6.8673 H         1 RES1    0.0000
     22 H2        12.2400    4.6315    6.0544 H         1 RES1    0.0000
     23 H3         9.7564    4.8878    2.2402 H         1 RES1    0.0000
     24 H4         8.5799    5.9155    2.5587 H         1 RES1    0.0000
     25 H5         7.9436    7.4132    3.6157 H         1 RES1    0.0000
     26 H6         8.3158    8.4741    4.7554 H         1 RES1    0.0000
     27 H7         7.3750    7.2261    5.0988 H         1 RES1    0.0000
     28 H8        10.8034    6.6962    8.6172 H         1 RES1    0.0000
     29 H9        12.2964    6.3643    8.1456 H         1 RES1    0.0000
     30 H10       11.2954    5.1763    8.5283 H         1 RES1    0.0000
     31 H11       11.4931    4.2112    2.6208 H         1 RES1    0.0000
     32 H12       11.7701    3.2416    3.8639 H         1 RES1    0.0000
     33 H13       12.8159    4.3974    3.5019 H         1 RES1    0.0000
     34 C12        3.3316    7.8510    4.2528 C.ar      2 RES2    0.0000
     35 C13        4.4292    8.6207    4.6892 C.ar      2 RES2    0.0000
     36 C14        4.8269    8.5386    6.0192 C.ar      2 RES2    0.0000
     37 C15        4.1872    7.7211    6.9294 C.ar      2 RES2    0.0000
     38 C16        3.0944    6.9902    6.4805 C.ar      2 RES2    0.0000
     39 C17        2.6416    7.0418    5.1670 C.ar      2 RES2    0.0000
     40 C18        2.8200    7.9911    2.8193 C.3       2 RES2    0.0000
     41 C19        5.1866    9.5857    3.7956 C.3       2 RES2    0.0000
     42 C20        4.6539    7.6261    8.3587 C.3       2 RES2    0.0000
     43 C21        1.4122    6.2362    4.8216 C.3       2 RES2    0.0000
     44 C22        3.3449    7.0040    1.7872 C.3       2 RES2    0.0000
     45 N4         3.0751    5.5708    2.1719 N.pl3     2 RES2    0.0000
     46 O7         3.8018    5.0915    3.0282 O.2       2 RES2    0.0000
     47 O8         2.0701    5.0684    1.7106 O.2       2 RES2    0.0000
     48 N5         2.6475    7.1939    0.4302 N.pl3     2 RES2    0.0000
     49 O9         1.6865    7.9174    0.3847 O.2       2 RES2    0.0000
     50 O10        3.1289    6.5395   -0.4944 O.2       2 RES2    0.0000
     51 N6         4.8220    7.2234    1.4500 N.pl3     2 RES2    0.0000
     52 O11        5.0146    8.2723    0.8708 O.2       2 RES2    0.0000
     53 O12        5.6573    6.4178    1.7727 O.2       2 RES2    0.0000
     54 H14        5.5643    9.0631    6.3109 H         2 RES2    0.0000
     55 H15        2.6369    6.4307    7.0969 H         2 RES2    0.0000
     56 H16        1.8330    7.9146    2.8400 H         2 RES2    0.0000
     57 H17        3.0377    8.9045    2.5049 H         2 RES2    0.0000
     58 H18        4.8153    9.5507    2.8897 H         2 RES2    0.0000
     59 H19        6.1341    9.3331    3.7708 H         2 RES2    0.0000
     60 H20        5.0989   10.4954    4.1493 H         2 RES2    0.0000
     61 H21        4.0796    7.0003    8.8489 H         2 RES2    0.0000
     62 H22        4.6047    8.5101    8.7786 H         2 RES2    0.0000
     63 H23        5.5787    7.3054    8.3814 H         2 RES2    0.0000
     64 H24        1.1996    6.3570    3.8722 H         2 RES2    0.0000
     65 H25        0.6573    6.5422    5.3656 H         2 RES2    0.0000
     66 H26        1.5819    5.2878    4.9995 H         2 RES2    0.0000
@<TRIPOS>BOND
     1    1    2 ar
     2    2    3 ar
     3    3    4 ar
     4    4    5 ar
     5    5    6 ar
     6    6    1 ar
     7    7    1 1
     8    8    2 1
     9    9    4 1
    10   10    6 1
    11   11    7 1
    12   12   11 1
    13   13   12 2
    14   14   12 2
    15   15   11 1
    16   16   15 2
    17   17   15 2
    18   18   11 1
    19   19   18 2
    20   20   18 2
    21   21    3 1
    22   22    5 1
    23   23    7 1
    24   24    7 1
    25   25    8 1
    26   26    8 1
    27   27    8 1
    28   28    9 1
    29   29    9 1
    30   30    9 1
    31   31   10 1
    32   32   10 1
    33   33   10 1
    34   34   35 ar
    35   35   36 ar
    36   36   37 ar
    37   37   38 ar
    38   38   39 ar
    39   39   34 ar
    40   40   34 1
    41   41   35 1
    42   42   37 1
    43   43   39 1
    44   44   40 1
    45   45   44 1
    46   46   45 2
    47   47   45 2
    48   48   44 1
    49   49   48 2
    50   50   48 2
    51   51   44 1
    52   52   51 2
    53   53   51 2
    54   54   36 1
    55   55   38 1
    56   56   40 1
    57   57   40 1
    58   58   41 1
    59   59   41 1
    60   60   41 1
    61   61   42 1
    62   62   42 1
    63   63   42 1
    64   64   43 1
    65   65   43 1
    66   66   43 1
@<TRIPOS>SUBSTRUCTURE
     1 RES1 1
     2 RES2 34

@<TRIPOS>CRYSIN
  13.3990    9.2170   20.9760  90.0000  99.5600  90.0000  14 1

