# MOL2 file generated by ConQuest
# Please check atom types

@<TRIPOS>MOLECULE
TUMCUZ
    94    96     1
SMALL
NO_CHARGES
****
Generated from CSD

@<TRIPOS>ATOM
      1 N1        -0.7473    4.1914    8.7222 N.3       1 RES1    0.0000
      2 O1        -0.2099    4.7141    9.7550 O.2       1 RES1    0.0000
      3 C1        -0.7591    2.8880    8.4441 C.2       1 RES1    0.0000
      4 C2        -1.5697    5.0036    7.7520 C.3       1 RES1    0.0000
      5 C3        -1.7972    3.9611    6.6244 C.3       1 RES1    0.0000
      6 N2        -1.4471    2.6817    7.3154 N.pl3     1 RES1    0.0000
      7 O2        -1.6588    1.5480    6.7624 O.2       1 RES1    0.0000
      8 C4        -0.7789    6.2386    7.3629 C.3       1 RES1    0.0000
      9 C5        -2.8351    5.4145    8.4829 C.3       1 RES1    0.0000
     10 C6        -3.2249    3.8836    6.1231 C.3       1 RES1    0.0000
     11 C7        -0.8469    4.0738    5.4558 C.3       1 RES1    0.0000
     12 C8        -0.0886    1.8455    9.2612 C.3       1 RES1    0.0000
     13 N3         1.2871    1.6363    8.8074 N.3       1 RES1    0.0000
     14 C9         2.1734    1.1599    9.8660 C.3       1 RES1    0.0000
     15 C10        2.5995    2.2400   10.8125 C.3       1 RES1    0.0000
     16 O3         3.4647    1.6600   11.7676 O.3       1 RES1    0.0000
     17 C11        3.9905    2.5898   12.6850 C.3       1 RES1    0.0000
     18 C12        4.8317    1.8690   13.6886 C.3       1 RES1    0.0000
     19 O4         6.0373    1.4548   13.0914 O.3       1 RES1    0.0000
     20 C13        6.8274    0.6081   13.9247 C.3       1 RES1    0.0000
     21 C14        1.3618    0.8335    7.5806 C.3       1 RES1    0.0000
     22 H1        -0.6944    6.8115    8.1153 H         1 RES1    0.0000
     23 H2         0.0851    5.9804    7.0621 H         1 RES1    0.0000
     24 H3        -1.2319    6.6965    6.6643 H         1 RES1    0.0000
     25 H4        -2.6194    6.0508    9.1545 H         1 RES1    0.0000
     26 H5        -3.4453    5.7996    7.8652 H         1 RES1    0.0000
     27 H6        -3.2308    4.6490    8.8839 H         1 RES1    0.0000
     28 H7        -3.2848    3.2285    5.4375 H         1 RES1    0.0000
     29 H8        -3.8001    3.6441    6.8400 H         1 RES1    0.0000
     30 H9        -3.4846    4.7289    5.7760 H         1 RES1    0.0000
     31 H10       -1.0531    3.4023    4.8144 H         1 RES1    0.0000
     32 H11       -0.9339    4.9285    5.0559 H         1 RES1    0.0000
     33 H12        0.0449    3.9540    5.7598 H         1 RES1    0.0000
     34 H13       -0.5705    1.0284    9.1815 H         1 RES1    0.0000
     35 H14       -0.0786    2.1179   10.1700 H         1 RES1    0.0000
     36 H15        2.9493    0.7866    9.4628 H         1 RES1    0.0000
     37 H16        1.7195    0.4860   10.3587 H         1 RES1    0.0000
     38 H17        1.8387    2.6063   11.2459 H         1 RES1    0.0000
     39 H18        3.0552    2.9256   10.3371 H         1 RES1    0.0000
     40 H19        3.2783    3.0360   13.1281 H         1 RES1    0.0000
     41 H20        4.5228    3.2262   12.2215 H         1 RES1    0.0000
     42 H21        4.3597    1.1083   14.0077 H         1 RES1    0.0000
     43 H22        5.0235    2.4513   14.4142 H         1 RES1    0.0000
     44 H23        6.8098    0.9580   14.8066 H         1 RES1    0.0000
     45 H24        7.7189    0.6152   13.5970 H         1 RES1    0.0000
     46 H25        2.2732    0.8218    7.3122 H         1 RES1    0.0000
     47 H26        0.8408    1.2726    6.9219 H         1 RES1    0.0000
     48 C14B       6.3585   -0.8335   13.9797 C.3       1 RES1    0.0000
     49 N3B        6.4332   -1.6363   12.7529 N.3       1 RES1    0.0000
     50 C8B        7.8089   -1.8455   12.2991 C.3       1 RES1    0.0000
     51 C1B        8.4794   -2.8880   13.1162 C.2       1 RES1    0.0000
     52 N1B        8.4676   -4.1914   12.8381 N.3       1 RES1    0.0000
     53 O1B        7.9302   -4.7141   11.8054 O.2       1 RES1    0.0000
     54 C2B        9.2901   -5.0036   13.8083 C.3       1 RES1    0.0000
     55 C3B        9.5176   -3.9611   14.9359 C.3       1 RES1    0.0000
     56 N2B        9.1674   -2.6817   14.2449 N.pl3     1 RES1    0.0000
     57 O2B        9.3791   -1.5480   14.7979 O.2       1 RES1    0.0000
     58 C6B       10.9452   -3.8836   15.4372 C.3       1 RES1    0.0000
     59 H7B       11.0051   -3.2285   16.1228 H         1 RES1    0.0000
     60 H8B       11.5204   -3.6441   14.7203 H         1 RES1    0.0000
     61 H9B       11.2049   -4.7289   15.7843 H         1 RES1    0.0000
     62 C7B        8.5673   -4.0738   16.1045 C.3       1 RES1    0.0000
     63 H10B       8.7734   -3.4023   16.7459 H         1 RES1    0.0000
     64 H11B       8.6542   -4.9285   16.5044 H         1 RES1    0.0000
     65 H12B       7.6754   -3.9540   15.8005 H         1 RES1    0.0000
     66 C4B        8.4992   -6.2386   14.1975 C.3       1 RES1    0.0000
     67 H1B        8.4147   -6.8115   13.4450 H         1 RES1    0.0000
     68 H2B        7.6352   -5.9804   14.4982 H         1 RES1    0.0000
     69 H3B        8.9522   -6.6965   14.8960 H         1 RES1    0.0000
     70 C5B       10.5554   -5.4145   13.0774 C.3       1 RES1    0.0000
     71 H4B       10.3397   -6.0508   12.4058 H         1 RES1    0.0000
     72 H5B       11.1656   -5.7996   13.6951 H         1 RES1    0.0000
     73 H6B       10.9511   -4.6490   12.6764 H         1 RES1    0.0000
     74 H13B       8.2908   -1.0284   12.3789 H         1 RES1    0.0000
     75 H14B       7.7989   -2.1179   11.3903 H         1 RES1    0.0000
     76 C9B        5.5470   -1.1599   11.6943 C.3       1 RES1    0.0000
     77 C10B       5.1208   -2.2400   10.7478 C.3       1 RES1    0.0000
     78 O3B        4.2556   -1.6600    9.7927 O.3       1 RES1    0.0000
     79 C11B       3.7298   -2.5898    8.8753 C.3       1 RES1    0.0000
     80 C12B       2.8886   -1.8690    7.8717 C.3       1 RES1    0.0000
     81 O4B        1.6830   -1.4548    8.4689 O.3       1 RES1    0.0000
     82 C13B       0.8929   -0.6081    7.6356 C.3       1 RES1    0.0000
     83 H23B       0.9105   -0.9580    6.7538 H         1 RES1    0.0000
     84 H24B       0.0014   -0.6152    7.9633 H         1 RES1    0.0000
     85 H21B       3.3607   -1.1083    7.5526 H         1 RES1    0.0000
     86 H22B       2.6968   -2.4513    7.1462 H         1 RES1    0.0000
     87 H19B       4.4420   -3.0360    8.4322 H         1 RES1    0.0000
     88 H20B       3.1975   -3.2262    9.3389 H         1 RES1    0.0000
     89 H17B       5.8816   -2.6063   10.3145 H         1 RES1    0.0000
     90 H18B       4.6651   -2.9256   11.2232 H         1 RES1    0.0000
     91 H15B       4.7710   -0.7866   12.0975 H         1 RES1    0.0000
     92 H16B       6.0008   -0.4860   11.2017 H         1 RES1    0.0000
     93 H25B       5.4471   -0.8218   14.2481 H         1 RES1    0.0000
     94 H26B       6.8795   -1.2726   14.6384 H         1 RES1    0.0000
@<TRIPOS>BOND
     1    1    2 1
     2    3    1 1
     3    4    1 1
     4    5    4 1
     5    6    3 2
     6    7    6 1
     7    8    4 1
     8    9    4 1
     9   10    5 1
    10   11    5 1
    11   12    3 1
    12   13   12 1
    13   14   13 1
    14   15   14 1
    15   16   15 1
    16   17   16 1
    17   18   17 1
    18   19   18 1
    19   20   19 1
    20   21   13 1
    21   22    8 1
    22   23    8 1
    23   24    8 1
    24   25    9 1
    25   26    9 1
    26   27    9 1
    27   28   10 1
    28   29   10 1
    29   30   10 1
    30   31   11 1
    31   32   11 1
    32   33   11 1
    33   34   12 1
    34   35   12 1
    35   36   14 1
    36   37   14 1
    37   38   15 1
    38   39   15 1
    39   40   17 1
    40   41   17 1
    41   42   18 1
    42   43   18 1
    43   44   20 1
    44   45   20 1
    45   46   21 1
    46   47   21 1
    47   48   20 1
    48   49   48 1
    49   50   49 1
    50   51   50 1
    51   52   51 1
    52   53   52 1
    53   54   52 1
    54   55   54 1
    55   56   51 2
    56   57   56 1
    57   58   55 1
    58   59   58 1
    59   60   58 1
    60   61   58 1
    61   62   55 1
    62   63   62 1
    63   64   62 1
    64   65   62 1
    65   66   54 1
    66   67   66 1
    67   68   66 1
    68   69   66 1
    69   70   54 1
    70   71   70 1
    71   72   70 1
    72   73   70 1
    73   74   50 1
    74   75   50 1
    75   76   49 1
    76   77   76 1
    77   78   77 1
    78   79   78 1
    79   80   79 1
    80   81   80 1
    81   82   21 1
    82   83   82 1
    83   84   82 1
    84   85   80 1
    85   86   80 1
    86   87   79 1
    87   88   79 1
    88   89   77 1
    89   90   77 1
    90   91   76 1
    91   92   76 1
    92   93   48 1
    93   94   48 1
    94    5    6 1
    95   55   56 1
    96   81   82 1
@<TRIPOS>SUBSTRUCTURE
     1 RES1 1

@<TRIPOS>CRYSIN
   6.1850   23.4800   11.0280  90.0000 102.1700  90.0000 231 1

