# MOL2 file generated by ConQuest
# Please check atom types

@<TRIPOS>MOLECULE
TUMTIE
    30    30     1
SMALL
NO_CHARGES
****
Generated from CSD

@<TRIPOS>ATOM
      1 C1         1.9076    0.6175    0.6359 C.ar      1 RES1    0.0000
      2 C2         1.9819    0.6256    2.0145 C.ar      1 RES1    0.0000
      3 C3         1.8243   -0.5338    2.7746 C.ar      1 RES1    0.0000
      4 C4         1.5742   -1.7178    2.0617 C.ar      1 RES1    0.0000
      5 C5         1.4805   -1.7210    0.6792 C.ar      1 RES1    0.0000
      6 C6         1.6580   -0.5719   -0.0267 C.ar      1 RES1    0.0000
      7 C7         2.1134    1.9234   -0.0458 C.3       1 RES1    0.0000
      8 C8         2.3396    2.8549   -2.1862 C.2       1 RES1    0.0000
      9 C9         2.0297    2.6991   -3.6318 C.3       1 RES1    0.0000
     10 C10        1.8312    0.5776    4.9987 C.2       1 RES1    0.0000
     11 C11        1.9590    0.2486    6.4489 C.3       1 RES1    0.0000
     12 O1         1.6859   -3.1238    3.9012 O.2       1 RES1    0.0000
     13 O2         0.8910   -3.9104    2.0913 O.2       1 RES1    0.0000
     14 O3         1.9281    1.8029   -1.4630 O.3       1 RES1    0.0000
     15 O4         2.8801    3.7989   -1.7024 O.2       1 RES1    0.0000
     16 O5         1.6647    1.6966    4.6015 O.2       1 RES1    0.0000
     17 N1         1.9177   -0.5049    4.1664 N.am      1 RES1    0.0000
     18 N2         1.3704   -2.9992    2.7234 N.pl3     1 RES1    0.0000
     19 H1         1.9348   -1.2765    4.5487 H         1 RES1    0.0000
     20 H2         2.1684    1.4629    2.4708 H         1 RES1    0.0000
     21 H3         1.4261   -2.5611    0.1861 H         1 RES1    0.0000
     22 H4         1.6205   -0.6053   -0.8891 H         1 RES1    0.0000
     23 H5         2.9021    2.1953    0.1344 H         1 RES1    0.0000
     24 H6         1.4727    2.6201    0.2481 H         1 RES1    0.0000
     25 H7         1.7425    3.5221   -3.8871 H         1 RES1    0.0000
     26 H8         2.8590    2.4585   -4.2075 H         1 RES1    0.0000
     27 H9         1.3854    2.1070   -3.7940 H         1 RES1    0.0000
     28 H10        1.8411    0.9439    6.9988 H         1 RES1    0.0000
     29 H11        2.6732   -0.3102    6.6887 H         1 RES1    0.0000
     30 H12        1.3431   -0.3117    6.6783 H         1 RES1    0.0000
@<TRIPOS>BOND
     1    1    2 ar
     2    2    3 ar
     3    3    4 ar
     4    4    5 ar
     5    5    6 ar
     6    6    1 ar
     7    7    1 1
     8    8    9 1
     9    9   25 1
    10   10   11 1
    11   11   28 1
    12   12   18 2
    13   13   18 2
    14   14    7 1
    15   15    8 2
    16   16   10 2
    17   17    3 1
    18   18    4 1
    19   19   17 1
    20   20    2 1
    21   21    5 1
    22   22    6 1
    23   23    7 1
    24   24    7 1
    25   26    9 1
    26   27    9 1
    27   29   11 1
    28   30   11 1
    29    8   14 1
    30   10   17 1
@<TRIPOS>SUBSTRUCTURE
     1 RES1 1

@<TRIPOS>CRYSIN
   7.2280    8.1480   10.4620  81.3200  88.6500  70.5800   2 1

