# MOL2 file generated by ConQuest
# Please check atom types

@<TRIPOS>MOLECULE
TUNQIC
    23    26     1
SMALL
NO_CHARGES
****
Generated from CSD

@<TRIPOS>ATOM
      1 O1         4.0925    4.2573   12.4071 O.2       1 RES1    0.0000
      2 O2        -0.8465    6.9571    9.0630 O.3       1 RES1    0.0000
      3 N1         2.4323    2.8439   13.1179 N.am      1 RES1    0.0000
      4 N2         3.2004    6.1524   10.6995 N.pl3     1 RES1    0.0000
      5 N3        -0.2107    6.1078    9.9660 N.2       1 RES1    0.0000
      6 C1         1.0480    2.7206   12.9418 C.ar      1 RES1    0.0000
      7 C2         0.2143    1.7982   13.5234 C.ar      1 RES1    0.0000
      8 C3        -1.1398    1.8989   13.2407 C.ar      1 RES1    0.0000
      9 C4        -1.6198    2.8841   12.4345 C.ar      1 RES1    0.0000
     10 C5        -0.7813    3.8110   11.8594 C.ar      1 RES1    0.0000
     11 C6         0.5964    3.7444   12.1066 C.ar      1 RES1    0.0000
     12 C7         2.9048    3.9089   12.4038 C.2       1 RES1    0.0000
     13 C8         1.7533    4.5265   11.7108 C.2       1 RES1    0.0000
     14 C9         1.9678    5.5860   10.8869 C.2       1 RES1    0.0000
     15 C10        1.0491    6.3698   10.0113 C.2       1 RES1    0.0000
     16 C11        3.1621    7.1948    9.7835 C.ar      1 RES1    0.0000
     17 C12        1.8638    7.3770    9.3311 C.ar      1 RES1    0.0000
     18 C13        1.5832    8.3826    8.4297 C.ar      1 RES1    0.0000
     19 C14        2.6204    9.1911    7.9935 C.ar      1 RES1    0.0000
     20 C15        3.9017    8.9792    8.4426 C.ar      1 RES1    0.0000
     21 C16        4.2058    7.9742    9.3408 C.ar      1 RES1    0.0000
     22 C17        3.2532    1.9897   13.9176 C.3       1 RES1    0.0000
     23 C18       -2.2693    6.7864    9.2003 C.3       1 RES1    0.0000
@<TRIPOS>BOND
     1    1   12 2
     2    2    5 1
     3    3    6 1
     4    4   14 1
     5    5   15 2
     6    6    7 ar
     7    7    8 ar
     8    8    9 ar
     9    9   10 ar
    10   10   11 ar
    11   11    6 ar
    12   12    3 1
    13   13   11 1
    14   14   13 2
    15   15   14 1
    16   16    4 1
    17   17   15 1
    18   18   17 ar
    19   19   18 ar
    20   20   19 ar
    21   21   16 ar
    22   22    3 1
    23   23    2 1
    24   12   13 1
    25   16   17 ar
    26   20   21 ar
@<TRIPOS>SUBSTRUCTURE
     1 RES1 1

@<TRIPOS>CRYSIN
  16.2360    5.5040   16.6620  90.0000 104.1700  90.0000  14 1

