# MOL2 file generated by ConQuest
# Please check atom types

@<TRIPOS>MOLECULE
TUNQAU
    21    24     1
SMALL
NO_CHARGES
****
Generated from CSD

@<TRIPOS>ATOM
      1 O1        18.6205    1.6335   13.6061 O.2       1 RES1    0.0000
      2 O2        13.0492    3.6866   16.3527 O.3       1 RES1    0.0000
      3 N1        18.4597    0.0176   15.2435 N.am      1 RES1    0.0000
      4 N2        16.6234    3.4140   13.7204 N.pl3     1 RES1    0.0000
      5 N3        14.1960    2.9198   16.1660 N.2       1 RES1    0.0000
      6 C1        17.5970   -0.3079   16.2942 C.ar      1 RES1    0.0000
      7 C2        17.7204   -1.3452   17.1832 C.ar      1 RES1    0.0000
      8 C3        16.8758   -1.4511   18.1782 C.ar      1 RES1    0.0000
      9 C4        15.7244   -0.5549   18.2507 C.ar      1 RES1    0.0000
     10 C5        15.6123    0.4902   17.3519 C.ar      1 RES1    0.0000
     11 C6        16.5769    0.6432   16.3499 C.ar      1 RES1    0.0000
     12 C7        18.0442    1.1373   14.6053 C.2       1 RES1    0.0000
     13 C8        16.8351    1.5962   15.2755 C.2       1 RES1    0.0000
     14 C9        16.1682    2.7081   14.7850 C.2       1 RES1    0.0000
     15 C10       14.9025    3.3748   15.1822 C.2       1 RES1    0.0000
     16 C11       15.7652    4.4651   13.3776 C.ar      1 RES1    0.0000
     17 C12       14.6840    4.4788   14.2583 C.ar      1 RES1    0.0000
     18 C13       13.7013    5.4436   14.1092 C.ar      1 RES1    0.0000
     19 C14       13.8190    6.3574   13.0780 C.ar      1 RES1    0.0000
     20 C15       14.9002    6.3162   12.2154 C.ar      1 RES1    0.0000
     21 C16       15.8977    5.3769   12.3492 C.ar      1 RES1    0.0000
@<TRIPOS>BOND
     1    1   12 2
     2    2    5 1
     3    3    6 1
     4    4   14 1
     5    5   15 2
     6    6    7 ar
     7    7    8 ar
     8    8    9 ar
     9    9   10 ar
    10   10   11 ar
    11   11    6 ar
    12   12    3 1
    13   13   11 1
    14   14   13 2
    15   15   14 1
    16   16    4 1
    17   17   15 1
    18   18   17 ar
    19   19   18 ar
    20   20   19 ar
    21   21   16 ar
    22   12   13 1
    23   16   17 ar
    24   20   21 ar
@<TRIPOS>SUBSTRUCTURE
     1 RES1 1

@<TRIPOS>CRYSIN
  22.6430   22.6430   13.9350  90.0000  90.0000 120.0000 233 1

