# MOL2 file generated by ConQuest
# Please check atom types

@<TRIPOS>MOLECULE
TUNQEY
    22    25     1
SMALL
NO_CHARGES
****
Generated from CSD

@<TRIPOS>ATOM
      1 O1         6.3711    9.1586   -0.3255 O.2       1 RES1    0.0000
      2 O2         1.6184   11.8234    3.3218 O.3       1 RES1    0.0000
      3 N1         6.6387    7.7960    1.5139 N.am      1 RES1    0.0000
      4 N2         4.3886   10.9057   -0.0263 N.pl3     1 RES1    0.0000
      5 N3         2.6327   10.9103    3.0033 N.2       1 RES1    0.0000
      6 C1         6.0475    7.6130    2.7548 C.ar      1 RES1    0.0000
      7 C2         6.4064    6.7387    3.7471 C.ar      1 RES1    0.0000
      8 C3         5.6833    6.7511    4.9302 C.ar      1 RES1    0.0000
      9 C4         4.6200    7.6301    5.0895 C.ar      1 RES1    0.0000
     10 C5         4.2503    8.5013    4.0849 C.ar      1 RES1    0.0000
     11 C6         4.9707    8.5308    2.8895 C.ar      1 RES1    0.0000
     12 C7         6.0350    8.7772    0.8103 C.2       1 RES1    0.0000
     13 C8         4.9323    9.3059    1.6627 C.2       1 RES1    0.0000
     14 C9         4.1844   10.3584    1.2059 C.2       1 RES1    0.0000
     15 C10        3.0721   11.0018    1.8149 C.2       1 RES1    0.0000
     16 C11        3.5361   11.9799   -0.2783 C.ar      1 RES1    0.0000
     17 C12        2.6973   12.1598    0.8296 C.ar      1 RES1    0.0000
     18 C13        1.7271   13.1674    0.7946 C.ar      1 RES1    0.0000
     19 C14        1.6438   13.9580   -0.3308 C.ar      1 RES1    0.0000
     20 C15        2.4971   13.7735   -1.4159 C.ar      1 RES1    0.0000
     21 C16        3.4703   12.7767   -1.3966 C.ar      1 RES1    0.0000
     22 C17        1.0794   11.5133    4.6152 C.3       1 RES1    0.0000
@<TRIPOS>BOND
     1    1   12 2
     2    2    5 1
     3    3    6 1
     4    4   14 1
     5    5   15 2
     6    6    7 ar
     7    7    8 ar
     8    8    9 ar
     9    9   10 ar
    10   10   11 ar
    11   11    6 ar
    12   12    3 1
    13   13   11 1
    14   14   13 2
    15   15   14 1
    16   16    4 1
    17   17   15 1
    18   18   17 ar
    19   19   18 ar
    20   20   19 ar
    21   21   16 ar
    22   22    2 1
    23   12   13 1
    24   16   17 ar
    25   20   21 ar
@<TRIPOS>SUBSTRUCTURE
     1 RES1 1

@<TRIPOS>CRYSIN
   5.0610   15.5020   17.5090  90.0000  91.6600  90.0000  14 1

