# MOL2 file generated by ConQuest
# Please check atom types

@<TRIPOS>MOLECULE
TUNSEA01
    68    72     2
SMALL
NO_CHARGES
****
Generated from CSD

@<TRIPOS>ATOM
      1 O1        10.7963   10.0747    3.3351 O.2       1 RES1    0.0000
      2 O2         4.2608    4.2642    1.3261 O.2       1 RES1    0.0000
      3 O3         2.8594    5.8658    1.7219 O.2       1 RES1    0.0000
      4 N1         4.0031    5.4209    1.6358 N.pl3     1 RES1    0.0000
      5 C1         9.9960   10.7076    2.6558 C.2       1 RES1    0.0000
      6 C2         8.6106   10.2027    2.3986 C.2       1 RES1    0.0000
      7 C3         7.5954   11.2205    1.9520 C.3       1 RES1    0.0000
      8 H1         7.3244   11.7740    2.7266 H         1 RES1    0.0000
      9 H2         6.7907   10.7536    1.6151 H         1 RES1    0.0000
     10 C4         8.1527   12.1274    0.8519 C.3       1 RES1    0.0000
     11 H3         8.2132   11.6121    0.0086 H         1 RES1    0.0000
     12 H4         7.5234   12.8767    0.7038 H         1 RES1    0.0000
     13 C5         9.9493   13.8812    0.6004 C.ar      1 RES1    0.0000
     14 H5         9.3729   14.3564    0.0129 H         1 RES1    0.0000
     15 C6         9.5098   12.6859    1.1812 C.ar      1 RES1    0.0000
     16 C7        11.2135   14.3811    0.8696 C.ar      1 RES1    0.0000
     17 H6        11.4917   15.1968    0.4706 H         1 RES1    0.0000
     18 C8        12.0771   13.6979    1.7182 C.ar      1 RES1    0.0000
     19 H7        12.9422   14.0444    1.9040 H         1 RES1    0.0000
     20 C9        11.6629   12.5077    2.2900 C.ar      1 RES1    0.0000
     21 H8        12.2523   12.0295    2.8611 H         1 RES1    0.0000
     22 C10       10.3819   12.0025    2.0342 C.ar      1 RES1    0.0000
     23 C11        7.2477    8.0493    2.3196 C.ar      1 RES1    0.0000
     24 C12        7.4605    6.7408    1.8591 C.ar      1 RES1    0.0000
     25 H9         8.3475    6.4439    1.6923 H         1 RES1    0.0000
     26 C13        6.4052    5.8771    1.6453 C.ar      1 RES1    0.0000
     27 H10        6.5555    4.9916    1.3375 H         1 RES1    0.0000
     28 C14        5.1214    6.3366    1.8917 C.ar      1 RES1    0.0000
     29 C15        4.8650    7.6073    2.3712 C.ar      1 RES1    0.0000
     30 H11        3.9748    7.8910    2.5421 H         1 RES1    0.0000
     31 C16        5.9366    8.4599    2.5968 C.ar      1 RES1    0.0000
     32 H12        5.7798    9.3311    2.9426 H         1 RES1    0.0000
     33 C17        8.4399    8.8781    2.5382 C.2       1 RES1    0.0000
     34 H13        9.2111    8.4024    2.8224 H         1 RES1    0.0000
     35 O4         4.1817    4.4486    4.4361 O.2       2 RES2    0.0000
     36 O5        12.3474    8.3832    5.6822 O.2       2 RES2    0.0000
     37 O6        11.0587    9.8207    6.6661 O.2       2 RES2    0.0000
     38 N2        11.2473    8.7570    6.0800 N.pl3     2 RES2    0.0000
     39 C18        5.1042    3.6952    4.7233 C.2       2 RES2    0.0000
     40 C19        6.5120    4.1935    4.8478 C.2       2 RES2    0.0000
     41 C20        7.5945    3.1648    4.6808 C.3       2 RES2    0.0000
     42 H14        8.4560    3.5490    4.9825 H         2 RES2    0.0000
     43 H15        7.6825    2.9392    3.7208 H         2 RES2    0.0000
     44 C21        7.3116    1.8888    5.4704 C.3       2 RES2    0.0000
     45 H16        7.9313    1.1807    5.1642 H         2 RES2    0.0000
     46 H17        7.4988    2.0583    6.4274 H         2 RES2    0.0000
     47 C22        5.6088    0.0515    5.5997 C.ar      2 RES2    0.0000
     48 H18        6.3135   -0.5509    5.8080 H         2 RES2    0.0000
     49 C23        5.9031    1.3906    5.3346 C.ar      2 RES2    0.0000
     50 C24        4.3049   -0.4107    5.5623 C.ar      2 RES2    0.0000
     51 H19        4.1212   -1.3229    5.7522 H         2 RES2    0.0000
     52 C25        3.2592    0.4590    5.2473 C.ar      2 RES2    0.0000
     53 H20        2.3635    0.1427    5.2315 H         2 RES2    0.0000
     54 C26        3.5344    1.7811    4.9601 C.ar      2 RES2    0.0000
     55 H21        2.8261    2.3727    4.7351 H         2 RES2    0.0000
     56 C27        4.8546    2.2567    4.9976 C.ar      2 RES2    0.0000
     57 C28        7.8858    6.2845    5.3327 C.ar      2 RES2    0.0000
     58 C29        8.8816    8.2021    6.4550 C.ar      2 RES2    0.0000
     59 H22        8.8108    8.9424    7.0454 H         2 RES2    0.0000
     60 C30        7.7875    7.4011    6.1816 C.ar      2 RES2    0.0000
     61 H23        6.9495    7.6105    6.5776 H         2 RES2    0.0000
     62 C31       10.0858    7.8913    5.8404 C.ar      2 RES2    0.0000
     63 C32       10.2293    6.8099    4.9927 C.ar      2 RES2    0.0000
     64 H24       11.0685    6.6173    4.5920 H         2 RES2    0.0000
     65 C33        9.1247    6.0112    4.7382 C.ar      2 RES2    0.0000
     66 H25        9.2096    5.2686    4.1528 H         2 RES2    0.0000
     67 C34        6.6616    5.5046    5.1106 C.2       2 RES2    0.0000
     68 H26        5.8529    6.0007    5.1599 H         2 RES2    0.0000
@<TRIPOS>BOND
     1    1    5 2
     2    2    4 2
     3    3    4 2
     4    4   28 1
     5    5    6 1
     6    6    7 1
     7    7    8 1
     8    9    7 1
     9   10    7 1
    10   11   10 1
    11   12   10 1
    12   13   14 1
    13   15   10 1
    14   16   13 ar
    15   17   16 1
    16   18   16 ar
    17   19   18 1
    18   20   18 ar
    19   21   20 1
    20   22    5 1
    21   23   24 ar
    22   24   25 1
    23   26   24 ar
    24   27   26 1
    25   28   26 ar
    26   29   28 ar
    27   30   29 1
    28   31   23 ar
    29   32   31 1
    30   33    6 2
    31   34   33 1
    32   35   39 2
    33   36   38 2
    34   37   38 2
    35   38   62 1
    36   39   40 1
    37   40   41 1
    38   41   42 1
    39   43   41 1
    40   44   41 1
    41   45   44 1
    42   46   44 1
    43   47   48 1
    44   49   44 1
    45   50   47 ar
    46   51   50 1
    47   52   50 ar
    48   53   52 1
    49   54   52 ar
    50   55   54 1
    51   56   39 1
    52   57   60 ar
    53   58   59 1
    54   60   58 ar
    55   61   60 1
    56   62   58 ar
    57   63   62 ar
    58   64   63 1
    59   65   57 ar
    60   66   65 1
    61   67   40 2
    62   68   67 1
    63   13   15 ar
    64   15   22 ar
    65   20   22 ar
    66   23   33 1
    67   29   31 ar
    68   47   49 ar
    69   49   56 ar
    70   54   56 ar
    71   57   67 1
    72   63   65 ar
@<TRIPOS>SUBSTRUCTURE
     1 RES1 1
     2 RES2 35

@<TRIPOS>CRYSIN
   7.8732   11.7558   14.5546  81.0450  82.5390  77.5670   2 1

