# MOL2 file generated by ConQuest
# Please check atom types

@<TRIPOS>MOLECULE
TUNSEA
    42    46     2
SMALL
NO_CHARGES
****
Generated from CSD

@<TRIPOS>ATOM
      1 O1         2.5957   -1.4484   -2.7249 O.2       1 RES1    0.0000
      2 O2        -4.1064    4.1255   -0.5105 O.2       1 RES1    0.0000
      3 O3        -2.9855    5.6893   -1.5021 O.2       1 RES1    0.0000
      4 N1        -3.1108    4.5418   -1.0999 N.pl3     1 RES1    0.0000
      5 C1         3.1394   -0.3846   -2.4500 C.2       1 RES1    0.0000
      6 C2         2.3502    0.8816   -2.3373 C.2       1 RES1    0.0000
      7 C3         3.1350    2.1484   -2.5055 C.3       1 RES1    0.0000
      8 C4         4.4334    2.1418   -1.7098 C.3       1 RES1    0.0000
      9 C5         5.2191    0.8689   -1.8649 C.ar      1 RES1    0.0000
     10 C6         6.5852    0.8522   -1.6133 C.ar      1 RES1    0.0000
     11 C7         7.3145   -0.3137   -1.6689 C.ar      1 RES1    0.0000
     12 C8         6.6899   -1.5032   -1.9848 C.ar      1 RES1    0.0000
     13 C9         5.3392   -1.5151   -2.2437 C.ar      1 RES1    0.0000
     14 C10        4.6018   -0.3318   -2.1998 C.ar      1 RES1    0.0000
     15 C11        1.0449    0.7569   -2.0740 C.2       1 RES1    0.0000
     16 C12        0.0170    1.7837   -1.8429 C.ar      1 RES1    0.0000
     17 C13       -1.0525    1.4467   -1.0165 C.ar      1 RES1    0.0000
     18 C14       -2.0648    2.3415   -0.7445 C.ar      1 RES1    0.0000
     19 C15       -2.0208    3.5816   -1.3456 C.ar      1 RES1    0.0000
     20 C16       -0.9956    3.9527   -2.1867 C.ar      1 RES1    0.0000
     21 C17        0.0187    3.0483   -2.4324 C.ar      1 RES1    0.0000
     22 O4        -6.6437    5.3000   10.6686 O.2       2 RES2    0.0000
     23 O5         0.4248    0.1374    8.6984 O.2       2 RES2    0.0000
     24 O6        -0.8462   -1.5625    9.0963 O.2       2 RES2    0.0000
     25 N2        -0.6480   -0.3580    9.0070 N.pl3     2 RES2    0.0000
     26 C18       -7.0823    4.3819    9.9885 C.2       2 RES2    0.0000
     27 C19       -6.2777    3.1432    9.7369 C.2       2 RES2    0.0000
     28 C20       -7.0521    1.9451    9.2762 C.3       2 RES2    0.0000
     29 C21       -8.0608    2.2838    8.1880 C.3       2 RES2    0.0000
     30 C22       -8.8998    3.4883    8.5214 C.ar      2 RES2    0.0000
     31 C23      -10.1623    3.6601    7.9408 C.ar      2 RES2    0.0000
     32 C24      -10.9166    4.7724    8.2128 C.ar      2 RES2    0.0000
     33 C25      -10.4559    5.7469    9.0582 C.ar      2 RES2    0.0000
     34 C26       -9.2074    5.6088    9.6287 C.ar      2 RES2    0.0000
     35 C27       -8.4303    4.4789    9.3727 C.ar      2 RES2    0.0000
     36 C28       -4.9580    3.2519    9.8978 C.2       2 RES2    0.0000
     37 C29       -3.8973    2.2676    9.6886 C.ar      2 RES2    0.0000
     38 C30       -2.6597    2.7419    9.2425 C.ar      2 RES2    0.0000
     39 C31       -1.6057    1.8917    9.0275 C.ar      2 RES2    0.0000
     40 C32       -1.7759    0.5527    9.2615 C.ar      2 RES2    0.0000
     41 C33       -2.9623    0.0481    9.7442 C.ar      2 RES2    0.0000
     42 C34       -4.0178    0.9039    9.9607 C.ar      2 RES2    0.0000
@<TRIPOS>BOND
     1    1    5 2
     2    2    4 2
     3    3    4 2
     4    4   19 1
     5    5    6 1
     6    6    7 1
     7    7    8 1
     8    8    9 1
     9    9   10 ar
    10   10   11 ar
    11   11   12 ar
    12   12   13 ar
    13   13   14 ar
    14   14    5 1
    15   15    6 2
    16   16   15 1
    17   17   16 ar
    18   18   17 ar
    19   19   18 ar
    20   20   19 ar
    21   21   16 ar
    22   22   26 2
    23   23   25 2
    24   24   25 2
    25   25   40 1
    26   26   27 1
    27   27   28 1
    28   28   29 1
    29   29   30 1
    30   30   31 ar
    31   31   32 ar
    32   32   33 ar
    33   33   34 ar
    34   34   35 ar
    35   35   26 1
    36   36   27 2
    37   37   36 1
    38   38   37 ar
    39   39   38 ar
    40   40   39 ar
    41   41   40 ar
    42   42   37 ar
    43    9   14 ar
    44   20   21 ar
    45   30   35 ar
    46   41   42 ar
@<TRIPOS>SUBSTRUCTURE
     1 RES1 1
     2 RES2 22

@<TRIPOS>CRYSIN
  11.8060    7.9150   14.8830  82.4700  98.9100 102.0800   2 1

