# MOL2 file generated by ConQuest
# Please check atom types

@<TRIPOS>MOLECULE
TUNSIE
    68    70     2
SMALL
NO_CHARGES
****
Generated from CSD

@<TRIPOS>ATOM
      1 N1        11.3902    8.4538    4.9026 N.pl3     1 RES1    0.0000
      2 O1        10.4178    9.0243    4.2191 O.2       1 RES1    0.0000
      3 O2        10.5979    8.3574   10.9953 O.3       1 RES1    0.0000
      4 C1        11.2645    8.2029    6.1868 C.2       1 RES1    0.0000
      5 C2        10.0981    8.4816    6.9600 C.2       1 RES1    0.0000
      6 C3        10.1083    8.3099    8.2926 C.2       1 RES1    0.0000
      7 C4         9.0435    8.5753    9.2364 C.ar      1 RES1    0.0000
      8 C5         9.3212    8.5832   10.6195 C.ar      1 RES1    0.0000
      9 C6         8.3061    8.8130   11.5269 C.ar      1 RES1    0.0000
     10 C7         7.0182    9.0269   11.1035 C.ar      1 RES1    0.0000
     11 C8         6.7291    9.0415    9.7484 C.ar      1 RES1    0.0000
     12 C9         7.7288    8.8170    8.8335 C.ar      1 RES1    0.0000
     13 C10       12.6168    8.1488    4.2097 C.ar      1 RES1    0.0000
     14 C11       13.0278    8.9873    3.1932 C.ar      1 RES1    0.0000
     15 C12       14.1947    8.6889    2.5105 C.ar      1 RES1    0.0000
     16 C13       14.9548    7.5863    2.8034 C.ar      1 RES1    0.0000
     17 C14       16.2368    7.2641    2.0592 C.3       1 RES1    0.0000
     18 C15       14.5211    6.7715    3.8386 C.ar      1 RES1    0.0000
     19 C16       13.3478    7.0422    4.5212 C.ar      1 RES1    0.0000
     20 H1        12.0104    7.7909    6.5375 H         1 RES1    0.0000
     21 H2         9.3438    8.8606    6.5748 H         1 RES1    0.0000
     22 H3        10.8928    7.9494    8.5985 H         1 RES1    0.0000
     23 H4         8.5367    8.8738   12.4688 H         1 RES1    0.0000
     24 H5         6.3916    9.2435   11.7880 H         1 RES1    0.0000
     25 H6         5.8823    9.1907    9.4845 H         1 RES1    0.0000
     26 H7         7.5181    8.7945    7.8618 H         1 RES1    0.0000
     27 H8        12.6221    9.7057    3.0496 H         1 RES1    0.0000
     28 H9        14.4426    9.3755    2.0704 H         1 RES1    0.0000
     29 H10       16.4435    6.5365    2.0610 H         1 RES1    0.0000
     30 H11       16.3498    7.7777    1.5108 H         1 RES1    0.0000
     31 H12       17.1809    7.4344    2.5740 H         1 RES1    0.0000
     32 H13       14.9302    5.9819    3.9635 H         1 RES1    0.0000
     33 H14       13.0149    6.5101    5.1852 H         1 RES1    0.0000
     34 H15       10.6797    8.6361   11.8906 H         1 RES1    0.0000
     35 N2         2.2294    6.5246    5.3223 N.pl3     2 RES2    0.0000
     36 O3         2.5063    7.6747    4.7805 O.2       2 RES2    0.0000
     37 O4         6.5082    2.2977    3.9887 O.3       2 RES2    0.0000
     38 C17        2.9025    5.4669    4.9875 C.2       2 RES2    0.0000
     39 C18        3.9799    5.4748    4.0782 C.2       2 RES2    0.0000
     40 C19        4.7401    4.4065    3.8442 C.2       2 RES2    0.0000
     41 C20        5.8751    4.3035    2.9255 C.ar      2 RES2    0.0000
     42 C21        6.7465    3.2207    3.0431 C.ar      2 RES2    0.0000
     43 C22        7.8131    3.0992    2.1328 C.ar      2 RES2    0.0000
     44 C23        8.0296    4.0592    1.1816 C.ar      2 RES2    0.0000
     45 C24        7.2118    5.1579    1.1005 C.ar      2 RES2    0.0000
     46 C25        6.1475    5.2622    1.9715 C.ar      2 RES2    0.0000
     47 C26        1.1296    6.5167    6.2568 C.ar      2 RES2    0.0000
     48 C27        0.3597    7.6431    6.3892 C.ar      2 RES2    0.0000
     49 C28       -0.6928    7.6681    7.2808 C.ar      2 RES2    0.0000
     50 C29       -1.0072    6.5853    8.0502 C.ar      2 RES2    0.0000
     51 C30       -2.1655    6.6236    9.0173 C.3       2 RES2    0.0000
     52 C31       -0.2148    5.4669    7.9364 C.ar      2 RES2    0.0000
     53 C32        0.8482    5.4299    7.0392 C.ar      2 RES2    0.0000
     54 H16        2.6066    4.6746    5.3344 H         2 RES2    0.0000
     55 H17        4.1544    6.2724    3.6744 H         2 RES2    0.0000
     56 H18        4.5019    3.5786    4.1407 H         2 RES2    0.0000
     57 H19        8.3170    2.3637    2.2196 H         2 RES2    0.0000
     58 H20        8.7491    3.9747    0.6248 H         2 RES2    0.0000
     59 H21        7.3497    5.9026    0.6155 H         2 RES2    0.0000
     60 H22        5.6316    5.9819    1.9025 H         2 RES2    0.0000
     61 H23        0.5507    8.2531    5.9313 H         2 RES2    0.0000
     62 H24       -1.2231    8.6229    7.3861 H         2 RES2    0.0000
     63 H25       -2.7441    5.9687    8.7384 H         2 RES2    0.0000
     64 H26       -2.3370    7.5004    9.1114 H         2 RES2    0.0000
     65 H27       -1.9828    6.2328   10.1093 H         2 RES2    0.0000
     66 H28       -0.3960    4.7274    8.3747 H         2 RES2    0.0000
     67 H29        1.4272    4.7406    7.0411 H         2 RES2    0.0000
     68 H30        7.2140    1.8487    4.1500 H         2 RES2    0.0000
@<TRIPOS>BOND
     1    1    2 1
     2    3    8 1
     3    4    1 2
     4    5    4 1
     5    6    5 2
     6    7    6 1
     7    8    7 ar
     8    9    8 ar
     9   10    9 ar
    10   11   10 ar
    11   12    7 ar
    12   13    1 1
    13   14   13 ar
    14   15   14 ar
    15   16   15 ar
    16   17   16 1
    17   18   16 ar
    18   19   13 ar
    19   20    4 1
    20   21    5 1
    21   22    6 1
    22   23    9 1
    23   24   10 1
    24   25   11 1
    25   26   12 1
    26   27   14 1
    27   28   15 1
    28   29   17 1
    29   30   17 1
    30   31   17 1
    31   32   18 1
    32   33   19 1
    33   34    3 1
    34   35   36 1
    35   37   42 1
    36   38   35 2
    37   39   38 1
    38   40   39 2
    39   41   40 1
    40   42   41 ar
    41   43   42 ar
    42   44   43 ar
    43   45   44 ar
    44   46   41 ar
    45   47   35 1
    46   48   47 ar
    47   49   48 ar
    48   50   49 ar
    49   51   50 1
    50   52   50 ar
    51   53   47 ar
    52   54   38 1
    53   55   39 1
    54   56   40 1
    55   57   43 1
    56   58   44 1
    57   59   45 1
    58   60   46 1
    59   61   48 1
    60   62   49 1
    61   63   51 1
    62   64   51 1
    63   65   51 1
    64   66   52 1
    65   67   53 1
    66   68   37 1
    67   11   12 ar
    68   18   19 ar
    69   45   46 ar
    70   52   53 ar
@<TRIPOS>SUBSTRUCTURE
     1 RES1 1
     2 RES2 35

@<TRIPOS>CRYSIN
  21.5210   13.2050    9.3390  90.0000  86.9700  90.0000  14 2

