# MOL2 file generated by ConQuest
# Please check atom types

@<TRIPOS>MOLECULE
TUNTAX01
    24    24     1
SMALL
NO_CHARGES
****
Generated from CSD

@<TRIPOS>ATOM
      1 N1         1.9913    6.4253    1.2888 N.pl3     1 RES1    0.0000
      2 O1         7.5002    7.5332   -1.2793 O.3       1 RES1    0.0000
      3 O2         1.4279    7.4739    1.7872 O.2       1 RES1    0.0000
      4 C1         6.2158    8.8178    0.2444 C.ar      1 RES1    0.0000
      5 C2         6.0392    9.9781    0.9380 C.ar      1 RES1    0.0000
      6 C3         6.9159   11.0543    0.8730 C.ar      1 RES1    0.0000
      7 C4         8.0487   10.9494    0.0111 C.ar      1 RES1    0.0000
      8 C5         8.2302    9.8250   -0.7103 C.ar      1 RES1    0.0000
      9 C6         7.3611    8.7295   -0.6071 C.ar      1 RES1    0.0000
     10 C7         5.2717    7.6505    0.2944 C.2       1 RES1    0.0000
     11 C8         3.1584    6.4709    0.8261 C.2       1 RES1    0.0000
     12 C9         1.1758    5.1836    1.2388 C.3       1 RES1    0.0000
     13 C10        4.0131    7.6864    0.8484 C.2       1 RES1    0.0000
     14 H1         5.1311   10.0857    1.5634 H         1 RES1    0.0000
     15 H2         6.7254   11.9759    1.4444 H         1 RES1    0.0000
     16 H3         8.7364   11.7828   -0.0714 H         1 RES1    0.0000
     17 H4         9.0901    9.7408   -1.3491 H         1 RES1    0.0000
     18 H5         5.5470    6.6226   -0.1349 H         1 RES1    0.0000
     19 H6         3.6169    5.7810    0.5476 H         1 RES1    0.0000
     20 H7         0.4862    5.1739    1.3650 H         1 RES1    0.0000
     21 H8         1.5769    4.3875    1.9602 H         1 RES1    0.0000
     22 H9         1.3028    4.6358    0.2540 H         1 RES1    0.0000
     23 H10        3.6352    8.6646    1.2698 H         1 RES1    0.0000
     24 H11        8.6548    7.3125   -1.7062 H         1 RES1    0.0000
@<TRIPOS>BOND
     1    1    3 1
     2    2    9 1
     3    4    5 ar
     4    5    6 ar
     5    6    7 ar
     6    7    8 ar
     7    8    9 ar
     8    9    4 ar
     9   10    4 1
    10   11    1 2
    11   12    1 1
    12   13   10 2
    13   14    5 1
    14   15    6 1
    15   16    7 1
    16   17    8 1
    17   18   10 1
    18   19   11 1
    19   20   12 1
    20   21   12 1
    21   22   12 1
    22   23   13 1
    23   24    2 1
    24   11   13 1
@<TRIPOS>SUBSTRUCTURE
     1 RES1 1

@<TRIPOS>CRYSIN
  17.1210   13.9260    7.9360  90.0000  90.0000  82.2000  15 3

