# MOL2 file generated by ConQuest
# Please check atom types

@<TRIPOS>MOLECULE
TUNWIJ
    23    24     1
SMALL
USER_CHARGES
****
Generated from CSD

@<TRIPOS>ATOM
      1 O1         0.8846    2.3052    8.2274 O.3       1 RES1    0.0000
      2 O2        -0.1913    4.1176    9.1025 O.2       1 RES1   -1.0000
      3 O3         2.1946    5.7460   10.5017 O.2       1 RES1    0.0000
      4 N1         2.8529    2.5698    8.9734 N.pl3     1 RES1    1.0000
      5 N2         2.1426    1.7761    8.2332 N.2       1 RES1    0.0000
      6 C1         5.2245    3.1226    8.7874 C.ar      1 RES1    0.0000
      7 H1         5.0044    3.9272    8.3765 H         1 RES1    0.0000
      8 C2         6.5528    2.7778    9.0223 C.ar      1 RES1    0.0000
      9 H2         7.2293    3.3600    8.7596 H         1 RES1    0.0000
     10 C3         6.8883    1.5733    9.6456 C.ar      1 RES1    0.0000
     11 C4         5.8612    0.6987   10.0140 C.ar      1 RES1    0.0000
     12 H3         6.0755   -0.1103   10.4189 H         1 RES1    0.0000
     13 C5         4.5275    1.0143    9.7872 C.ar      1 RES1    0.0000
     14 H4         3.8488    0.4278   10.0315 H         1 RES1    0.0000
     15 C6         4.2390    2.2300    9.1852 C.ar      1 RES1    0.0000
     16 C7         0.8429    3.5015    8.9907 C.2       1 RES1    0.0000
     17 C8         2.1754    3.6420    9.4683 C.2       1 RES1    0.0000
     18 C9         2.7577    4.6839   10.2826 C.2       1 RES1    0.0000
     19 H5         3.5966    4.5403   10.6564 H         1 RES1    0.0000
     20 C10        8.3253    1.2189    9.9158 C.3       1 RES1    0.0000
     21 H6         8.8685    2.0068    9.8433 H         1 RES1    0.0000
     22 H7         8.6201    0.5673    9.2755 H         1 RES1    0.0000
     23 H8         8.4042    0.8566   10.8011 H         1 RES1    0.0000
@<TRIPOS>BOND
     1    1    5 1
     2    2   16 1
     3    3   18 2
     4    4    5 2
     5    6    7 1
     6    8    6 ar
     7    9    8 1
     8   10    8 ar
     9   11   10 ar
    10   12   11 1
    11   13   11 ar
    12   14   13 1
    13   15    4 1
    14   16    1 1
    15   17    4 1
    16   18   17 1
    17   19   18 1
    18   20   10 1
    19   21   20 1
    20   22   20 1
    21   23   20 1
    22    6   15 ar
    23   13   15 ar
    24   16   17 2
@<TRIPOS>SUBSTRUCTURE
     1 RES1 1

@<TRIPOS>CRYSIN
  10.5663   10.4088    8.9630  90.0000 108.2220  90.0000  14 1

