# MOL2 file generated by ConQuest
# Please check atom types

@<TRIPOS>MOLECULE
TUNWAB
    32    33     1
SMALL
NO_CHARGES
****
Generated from CSD

@<TRIPOS>ATOM
      1 O1        -2.2865   13.7285    4.5524 O.2       1 RES1    0.0000
      2 O2        -2.0474   11.9419    5.7148 O.2       1 RES1    0.0000
      3 N1        -1.7085   12.6715    4.7822 N.pl3     1 RES1    0.0000
      4 N2        -0.3698   10.0926    4.9930 N.pl3     1 RES1    0.0000
      5 H1        -0.9936   10.2732    5.5576 H         1 RES1    0.0000
      6 N3         0.2579    8.8519    5.0184 N.2       1 RES1    0.0000
      7 C1        -0.6023   12.2694    3.9444 C.ar      1 RES1    0.0000
      8 C2        -0.1664   13.1961    3.0118 C.ar      1 RES1    0.0000
      9 H2        -0.5799   14.0263    2.9560 H         1 RES1    0.0000
     10 C3         0.8689   12.8941    2.1726 C.ar      1 RES1    0.0000
     11 H3         1.1633   13.5106    1.5421 H         1 RES1    0.0000
     12 C4         1.4702   11.6548    2.2798 C.ar      1 RES1    0.0000
     13 H4         2.1772   11.4438    1.7139 H         1 RES1    0.0000
     14 C5         1.0521   10.7379    3.1915 C.ar      1 RES1    0.0000
     15 H5         1.4727    9.9084    3.2277 H         1 RES1    0.0000
     16 C6         0.0052   11.0128    4.0763 C.ar      1 RES1    0.0000
     17 C7        -0.0822    8.0613    5.9416 C.2       1 RES1    0.0000
     18 C8        -1.0462    8.2860    7.0627 C.3       1 RES1    0.0000
     19 H6        -1.8374    7.7436    6.9236 H         1 RES1    0.0000
     20 H7        -1.3185    9.2162    7.0743 H         1 RES1    0.0000
     21 C9        -0.4126    7.9262    8.3947 C.3       1 RES1    0.0000
     22 H8         0.2856    8.5691    8.5990 H         1 RES1    0.0000
     23 H9        -1.0837    7.9828    9.0926 H         1 RES1    0.0000
     24 C10        0.1765    6.5423    8.3874 C.3       1 RES1    0.0000
     25 H10       -0.5311    5.8905    8.2628 H         1 RES1    0.0000
     26 H11        0.5989    6.3670    9.2433 H         1 RES1    0.0000
     27 C11        1.2002    6.3949    7.2787 C.3       1 RES1    0.0000
     28 H12        1.5411    5.4866    7.2700 H         1 RES1    0.0000
     29 H13        1.9447    6.9945    7.4425 H         1 RES1    0.0000
     30 C12        0.5738    6.7161    5.9351 C.3       1 RES1    0.0000
     31 H14        1.2590    6.6965    5.2489 H         1 RES1    0.0000
     32 H15       -0.0861    6.0396    5.7184 H         1 RES1    0.0000
@<TRIPOS>BOND
     1    1    3 2
     2    2    3 2
     3    3    7 1
     4    4    5 1
     5    6    4 1
     6    7    8 ar
     7    8    9 1
     8   10    8 ar
     9   11   10 1
    10   12   10 ar
    11   13   12 1
    12   14   12 ar
    13   15   14 1
    14   16    4 1
    15   17    6 2
    16   18   17 1
    17   19   18 1
    18   20   18 1
    19   21   18 1
    20   22   21 1
    21   23   21 1
    22   24   21 1
    23   25   24 1
    24   26   24 1
    25   27   24 1
    26   28   27 1
    27   29   27 1
    28   30   17 1
    29   31   30 1
    30   32   30 1
    31    7   16 ar
    32   14   16 ar
    33   27   30 1
@<TRIPOS>SUBSTRUCTURE
     1 RES1 1

@<TRIPOS>CRYSIN
   8.5190   19.6090    7.8220  90.0000 112.1100  90.0000  14 1

