# MOL2 file generated by ConQuest
# Please check atom types

@<TRIPOS>MOLECULE
TUNYIM
    18    18     1
SMALL
NO_CHARGES
****
Generated from CSD

@<TRIPOS>ATOM
      1 O1         5.1721    1.8099    7.0613 O.2       1 RES1    0.0000
      2 O2         2.7564   -1.7107    8.3841 O.2       1 RES1    0.0000
      3 O3         3.8269   -0.4916    9.8365 O.2       1 RES1    0.0000
      4 N1         3.4128   -0.7211    8.6934 N.pl3     1 RES1    0.0000
      5 N2         3.1262    1.2020    5.5905 N.3       1 RES1    0.0000
      6 N3         4.8117    0.9629    7.9358 N.2       1 RES1    0.0000
      7 C1         2.8885    0.3149    6.5046 C.2       1 RES1    0.0000
      8 C2         3.7204    0.2386    7.6512 C.2       1 RES1    0.0000
      9 C3         1.6899   -0.5065    6.1296 C.3       1 RES1    0.0000
     10 C4         2.1926    1.1641    4.4523 C.3       1 RES1    0.0000
     11 C5         1.0975    0.2519    4.9395 C.3       1 RES1    0.0000
     12 H1         3.9114    1.7827    5.6901 H         1 RES1    0.0000
     13 H2         1.9103    2.0336    4.3171 H         1 RES1    0.0000
     14 H3         2.6893    0.7846    3.6784 H         1 RES1    0.0000
     15 H4         0.3475    0.8540    5.3148 H         1 RES1    0.0000
     16 H5         0.7685   -0.3309    4.3218 H         1 RES1    0.0000
     17 H6         1.1138   -0.5711    6.8813 H         1 RES1    0.0000
     18 H7         1.9880   -1.4144    5.9571 H         1 RES1    0.0000
@<TRIPOS>BOND
     1    1    6 2
     2    2    4 2
     3    3    4 2
     4    4    8 1
     5    5    7 1
     6    6    8 1
     7    7    8 2
     8    9    7 1
     9   10    5 1
    10   11    9 1
    11   12    5 1
    12   13   10 1
    13   14   10 1
    14   15   11 1
    15   16   11 1
    16   17    9 1
    17   18    9 1
    18   10   11 1
@<TRIPOS>SUBSTRUCTURE
     1 RES1 1

@<TRIPOS>CRYSIN
  10.7071    5.3375   11.7022  90.0000  95.1280  90.0000 231 1

