# MOL2 file generated by ConQuest
# Please check atom types

@<TRIPOS>MOLECULE
TUPFAL
    84    86     1
SMALL
NO_CHARGES
****
Generated from CSD

@<TRIPOS>ATOM
      1 O1        11.6374   15.7545   14.0187 O.2       1 RES1    0.0000
      2 O2         6.7462   16.7742   13.7917 O.2       1 RES1    0.0000
      3 O3         6.1529   14.7335   14.4993 O.3       1 RES1    0.0000
      4 O4         8.4386   12.5134   11.0287 O.2       1 RES1    0.0000
      5 O5         7.8100   13.1931    8.9873 O.3       1 RES1    0.0000
      6 O6        14.3961   13.3219   12.4767 O.2       1 RES1    0.0000
      7 O7        12.8815    7.8274   12.4235 O.2       1 RES1    0.0000
      8 O8        15.0444    8.2396   12.0462 O.3       1 RES1    0.0000
      9 O9        14.6968   10.0865   15.9755 O.2       1 RES1    0.0000
     10 O10       13.5704   11.9334   16.4436 O.3       1 RES1    0.0000
     11 O11        8.8316    9.7018   15.4652 O.2       1 RES1    0.0000
     12 O12        8.2038   11.5776   14.3553 O.3       1 RES1    0.0000
     13 N1        12.4642   14.2808   12.4094 N.am      1 RES1    0.0000
     14 N2        13.6173   14.0638   13.0622 N.2       1 RES1    0.0000
     15 N3        10.4268   11.5979   12.8649 N.3       1 RES1    0.0000
     16 C1        11.4862   15.1153   13.0011 C.2       1 RES1    0.0000
     17 C2        10.3235   15.0632   12.0994 C.2       1 RES1    0.0000
     18 C3        10.6376   14.3256   11.0271 C.2       1 RES1    0.0000
     19 C4        12.0413   13.7471   11.0944 C.3       1 RES1    0.0000
     20 C5        12.0484   12.1952   11.0474 C.3       1 RES1    0.0000
     21 C6        11.6617   11.4778   12.3061 C.2       1 RES1    0.0000
     22 C7        12.3861   10.5681   13.0638 C.2       1 RES1    0.0000
     23 C8        11.5496   10.1140   14.1142 C.2       1 RES1    0.0000
     24 C9        10.3292   10.7547   13.9514 C.2       1 RES1    0.0000
     25 C10        9.0537   15.7618   12.4595 C.3       1 RES1    0.0000
     26 C11        8.2445   14.9157   13.4473 C.3       1 RES1    0.0000
     27 C12        6.9898   15.5998   13.9091 C.2       1 RES1    0.0000
     28 C13        4.8926   15.2961   14.9360 C.3       1 RES1    0.0000
     29 C14        9.7925   14.1000    9.8076 C.3       1 RES1    0.0000
     30 C15        8.6202   13.1830   10.0330 C.2       1 RES1    0.0000
     31 C16        6.5970   12.4064    9.1298 C.3       1 RES1    0.0000
     32 C17       12.9129   14.3227    9.9720 C.3       1 RES1    0.0000
     33 C18       13.7665   10.0648   12.7585 C.3       1 RES1    0.0000
     34 C19       13.8046    8.5939   12.3906 C.2       1 RES1    0.0000
     35 C20       15.2282    6.8179   11.7691 C.3       1 RES1    0.0000
     36 C21       11.9298    9.1739   15.2288 C.3       1 RES1    0.0000
     37 C22       12.3662    9.9144   16.5093 C.3       1 RES1    0.0000
     38 C23       13.6715   10.6216   16.2886 C.2       1 RES1    0.0000
     39 C24       14.7570   12.7057   16.1634 C.3       1 RES1    0.0000
     40 C25        9.0806   10.5985   14.6824 C.2       1 RES1    0.0000
     41 C26        6.8839   11.5212   14.9376 C.3       1 RES1    0.0000
     42 C27        5.8377   11.1654   13.9169 C.ar      1 RES1    0.0000
     43 C28        6.1375   10.7185   12.6364 C.ar      1 RES1    0.0000
     44 C29        5.1224   10.3526   11.7629 C.ar      1 RES1    0.0000
     45 C30        3.8026   10.4235   12.1542 C.ar      1 RES1    0.0000
     46 C31        3.4961   10.9210   13.4160 C.ar      1 RES1    0.0000
     47 C32        4.5074   11.2855   14.2848 C.ar      1 RES1    0.0000
     48 H1         9.2999   16.6180   12.8837 H         1 RES1    0.0000
     49 H2         8.5286   15.9252   11.6627 H         1 RES1    0.0000
     50 H3         8.8063   14.7074   14.2222 H         1 RES1    0.0000
     51 H4         7.9864   14.0971   13.0716 H         1 RES1    0.0000
     52 H5         4.9940   15.9672   15.6562 H         1 RES1    0.0000
     53 H6         4.4505   15.7661   14.1893 H         1 RES1    0.0000
     54 H7         4.3765   14.5324   15.2476 H         1 RES1    0.0000
     55 H8         9.4476   14.9316    9.4961 H         1 RES1    0.0000
     56 H9        10.3065   13.6936    9.0656 H         1 RES1    0.0000
     57 H10        6.1005   12.5409    8.2594 H         1 RES1    0.0000
     58 H11        6.0608   12.7650    9.8890 H         1 RES1    0.0000
     59 H12        6.8452   11.4634    9.2785 H         1 RES1    0.0000
     60 H13       12.6126   13.9409    9.1172 H         1 RES1    0.0000
     61 H14       13.8457   14.1130   10.1050 H         1 RES1    0.0000
     62 H15       12.8405   15.3062    9.9595 H         1 RES1    0.0000
     63 H16       12.9500   11.9334   10.8064 H         1 RES1    0.0000
     64 H17       11.4469   11.9493   10.3023 H         1 RES1    0.0000
     65 H18       14.1972   10.5638   11.9852 H         1 RES1    0.0000
     66 H19       14.3636   10.1429   13.5005 H         1 RES1    0.0000
     67 H20       16.1714    6.7643   11.4576 H         1 RES1    0.0000
     68 H21       15.1647    6.3377   12.6708 H         1 RES1    0.0000
     69 H22       14.5040    6.5272   11.1116 H         1 RES1    0.0000
     70 H23       12.6732    8.5983   14.9470 H         1 RES1    0.0000
     71 H24       11.2006    8.6055   15.4636 H         1 RES1    0.0000
     72 H25       11.6835   10.5435   16.8083 H         1 RES1    0.0000
     73 H26       12.5287    9.2693   17.2310 H         1 RES1    0.0000
     74 H27       14.9747   12.7159   15.1834 H         1 RES1    0.0000
     75 H28       14.4836   13.6140   16.4827 H         1 RES1    0.0000
     76 H29       15.5398   12.3644   16.5767 H         1 RES1    0.0000
     77 H30        6.7234   12.4165   15.3024 H         1 RES1    0.0000
     78 H31        6.8856   10.8632   15.6718 H         1 RES1    0.0000
     79 H32        7.0573   10.6809   12.3703 H         1 RES1    0.0000
     80 H33        5.3555   10.0012   10.8659 H         1 RES1    0.0000
     81 H34        3.0491   10.1559   11.5719 H         1 RES1    0.0000
     82 H35        2.5843   10.9673   13.7119 H         1 RES1    0.0000
     83 H36        4.3050   11.6485   15.1787 H         1 RES1    0.0000
     84 H37        9.7213   12.0318   12.4767 H         1 RES1    0.0000
@<TRIPOS>BOND
     1    1   16 2
     2    2   27 2
     3    3   27 1
     4    4   30 2
     5    5   30 1
     6    6   14 2
     7    7   34 2
     8    8   34 1
     9    9   38 2
    10   10   38 1
    11   11   40 2
    12   12   40 1
    13   13   14 1
    14   15   21 1
    15   16   13 1
    16   17   16 1
    17   18   17 2
    18   19   13 1
    19   20   19 1
    20   21   20 1
    21   22   21 2
    22   23   22 1
    23   24   15 1
    24   25   17 1
    25   26   25 1
    26   27   26 1
    27   28    3 1
    28   29   18 1
    29   30   29 1
    30   31    5 1
    31   32   19 1
    32   33   22 1
    33   34   33 1
    34   35    8 1
    35   36   23 1
    36   37   36 1
    37   38   37 1
    38   39   10 1
    39   40   24 1
    40   41   12 1
    41   42   41 1
    42   43   42 ar
    43   44   43 ar
    44   45   44 ar
    45   46   45 ar
    46   47   42 ar
    47   48   25 1
    48   49   25 1
    49   50   26 1
    50   51   26 1
    51   52   28 1
    52   53   28 1
    53   54   28 1
    54   55   29 1
    55   56   29 1
    56   57   31 1
    57   58   31 1
    58   59   31 1
    59   60   32 1
    60   61   32 1
    61   62   32 1
    62   63   20 1
    63   64   20 1
    64   65   33 1
    65   66   33 1
    66   67   35 1
    67   68   35 1
    68   69   35 1
    69   70   36 1
    70   71   36 1
    71   72   37 1
    72   73   37 1
    73   74   39 1
    74   75   39 1
    75   76   39 1
    76   77   41 1
    77   78   41 1
    78   79   43 1
    79   80   44 1
    80   81   45 1
    81   82   46 1
    82   83   47 1
    83   84   15 1
    84   18   19 1
    85   23   24 2
    86   46   47 ar
@<TRIPOS>SUBSTRUCTURE
     1 RES1 1

@<TRIPOS>CRYSIN
  14.0470   14.4630   16.8020  90.0000 111.2970  90.0000  14 1

