# MOL2 file generated by ConQuest
# Please check atom types

@<TRIPOS>MOLECULE
TUPZUA
    30    31     1
SMALL
NO_CHARGES
****
Generated from CSD

@<TRIPOS>ATOM
      1 O1         2.3739    5.6989    4.1894 O.3       1 RES1    0.0000
      2 O2         1.6672    4.2661    2.5695 O.2       1 RES1    0.0000
      3 O3         5.6599   10.4734    7.9009 O.2       1 RES1    0.0000
      4 O4         4.2486   10.2306    9.5084 O.2       1 RES1    0.0000
      5 N1         0.9796    5.1953    5.8829 N.2       1 RES1    0.0000
      6 N2        -1.1564    2.9123    5.5458 N.3       1 RES1    0.0000
      7 N3         4.6856    9.9298    8.4079 N.pl3     1 RES1    0.0000
      8 C1         1.9668    5.9217    5.4858 C.2       1 RES1    0.0000
      9 C2         0.6518    4.3956    4.7840 C.2       1 RES1    0.0000
     10 C3         1.5261    4.6850    3.6939 C.2       1 RES1    0.0000
     11 C4        -0.3188    3.4178    4.6641 C.2       1 RES1    0.0000
     12 H1        -0.3938    3.0456    3.7938 H         1 RES1    0.0000
     13 C5        -1.1863    3.2960    6.9544 C.3       1 RES1    0.0000
     14 H2        -0.9334    2.5277    7.5076 H         1 RES1    0.0000
     15 H3        -2.0901    3.5873    7.1941 H         1 RES1    0.0000
     16 H4        -0.5551    4.0300    7.1067 H         1 RES1    0.0000
     17 C6        -2.0688    1.8536    5.1674 C.3       1 RES1    0.0000
     18 H5        -2.0014    1.6927    4.2033 H         1 RES1    0.0000
     19 H6        -2.9859    2.1164    5.3909 H         1 RES1    0.0000
     20 H7        -1.8363    1.0339    5.6519 H         1 RES1    0.0000
     21 C7         2.6753    6.9404    6.2363 C.ar      1 RES1    0.0000
     22 C8         2.3108    7.2079    7.5563 C.ar      1 RES1    0.0000
     23 H8         1.6054    6.7176    7.9609 H         1 RES1    0.0000
     24 C9         2.9716    8.1780    8.2718 C.ar      1 RES1    0.0000
     25 H9         2.7223    8.3722    9.1684 H         1 RES1    0.0000
     26 C10        4.0055    8.8673    7.6612 C.ar      1 RES1    0.0000
     27 C11        4.3964    8.6236    6.3550 C.ar      1 RES1    0.0000
     28 H10        5.1087    9.1120    5.9591 H         1 RES1    0.0000
     29 C12        3.7211    7.6496    5.6432 C.ar      1 RES1    0.0000
     30 H11        3.9698    7.4621    4.7453 H         1 RES1    0.0000
@<TRIPOS>BOND
     1    1    8 1
     2    2   10 2
     3    3    7 2
     4    4    7 2
     5    5    8 2
     6    6   11 1
     7    7   26 1
     8    8   21 1
     9    9    5 1
    10   10    1 1
    11   11    9 2
    12   12   11 1
    13   13    6 1
    14   14   13 1
    15   15   13 1
    16   16   13 1
    17   17    6 1
    18   18   17 1
    19   19   17 1
    20   20   17 1
    21   21   22 ar
    22   22   23 1
    23   24   22 ar
    24   25   24 1
    25   26   24 ar
    26   27   26 ar
    27   28   27 1
    28   29   21 ar
    29   30   29 1
    30    9   10 1
    31   27   29 ar
@<TRIPOS>SUBSTRUCTURE
     1 RES1 1

@<TRIPOS>CRYSIN
   9.5313    9.5204   13.0349  90.0000 106.6610  90.0000  14 1

