# MOL2 file generated by ConQuest
# Please check atom types

@<TRIPOS>MOLECULE
TUQCUF
    76    78     2
SMALL
NO_CHARGES
****
Generated from CSD

@<TRIPOS>ATOM
      1 C1         4.2712   -0.0253   19.6468 C.ar      1 RES1    0.0000
      2 C2         3.1656   -0.2583   18.8374 C.ar      1 RES1    0.0000
      3 H1         2.3848   -0.6574   19.2024 H         1 RES1    0.0000
      4 C3         3.2029    0.0871   17.5140 C.ar      1 RES1    0.0000
      5 H2         2.4449   -0.0560   16.9590 H         1 RES1    0.0000
      6 C4         4.3558    0.6477   16.9899 C.ar      1 RES1    0.0000
      7 H3         4.3842    0.9010   16.0758 H         1 RES1    0.0000
      8 C5         5.4690    0.8411   17.7941 C.ar      1 RES1    0.0000
      9 H4         6.2581    1.2032   17.4077 H         1 RES1    0.0000
     10 C6         5.4690    0.5201   19.1573 C.ar      1 RES1    0.0000
     11 C7         6.6900    0.6874   19.9569 C.2       1 RES1    0.0000
     12 H5         6.7531    0.2085   20.7748 H         1 RES1    0.0000
     13 C8         7.7241    1.4721   19.6098 C.2       1 RES1    0.0000
     14 H6         7.6514    1.9953   18.8204 H         1 RES1    0.0000
     15 C9         8.9350    1.5557   20.3797 C.2       1 RES1    0.0000
     16 H7         9.0003    1.0340   21.1709 H         1 RES1    0.0000
     17 N1         4.0938   -0.3552   21.0675 N.pl3     1 RES1    0.0000
     18 O1         4.7864    0.2000   21.9056 O.2       1 RES1    0.0000
     19 O2         3.2129   -1.1476   21.3633 O.2       1 RES1    0.0000
     20 C10        8.9844    3.2880    4.6057 C.ar      2 RES2    0.0000
     21 C11        8.2447    2.8395    3.5191 C.ar      2 RES2    0.0000
     22 H8         8.5986    2.9025    2.6395 H         2 RES2    0.0000
     23 C12        7.0003    2.3057    3.7251 C.ar      2 RES2    0.0000
     24 H9         6.4946    1.9727    2.9932 H         2 RES2    0.0000
     25 C13        6.4870    2.2551    5.0056 C.ar      2 RES2    0.0000
     26 H10        5.6270    1.8805    5.1518 H         2 RES2    0.0000
     27 C14        7.2132    2.7449    6.0803 C.ar      2 RES2    0.0000
     28 H11        6.8249    2.7290    6.9465 H         2 RES2    0.0000
     29 C15        8.5014    3.2612    5.9218 C.ar      2 RES2    0.0000
     30 C16        9.2389    3.8034    7.0708 C.2       2 RES2    0.0000
     31 H12        9.9315    4.4317    6.9000 H         2 RES2    0.0000
     32 C17        8.9942    3.4654    8.3463 C.2       2 RES2    0.0000
     33 H13        8.3307    2.8076    8.5209 H         2 RES2    0.0000
     34 C18        9.6876    4.0501    9.4619 C.2       2 RES2    0.0000
     35 H14       10.3575    4.6998    9.2809 H         2 RES2    0.0000
     36 N2        10.3318    3.7747    4.3128 N.pl3     2 RES2    0.0000
     37 O3        11.2328    3.5416    5.1026 O.2       2 RES2    0.0000
     38 O4        10.5081    4.3835    3.2643 O.2       2 RES2    0.0000
     39 C1B       14.6505    3.9155   20.7750 C.ar      1 RES1    0.0000
     40 C2B       15.7562    4.1485   21.5844 C.ar      1 RES1    0.0000
     41 H1B       16.5369    4.5476   21.2194 H         1 RES1    0.0000
     42 C3B       15.7189    3.8031   22.9079 C.ar      1 RES1    0.0000
     43 H2B       16.4769    3.9462   23.4628 H         1 RES1    0.0000
     44 C4B       14.5659    3.2425   23.4319 C.ar      1 RES1    0.0000
     45 H3B       14.5375    2.9892   24.3461 H         1 RES1    0.0000
     46 C5B       13.4527    3.0491   22.6277 C.ar      1 RES1    0.0000
     47 H4B       12.6636    2.6870   23.0142 H         1 RES1    0.0000
     48 C6B       13.4527    3.3701   21.2645 C.ar      1 RES1    0.0000
     49 C7B       12.2317    3.2028   20.4650 C.2       1 RES1    0.0000
     50 H5B       12.1686    3.6817   19.6470 H         1 RES1    0.0000
     51 C8B       11.1976    2.4181   20.8120 C.2       1 RES1    0.0000
     52 H6B       11.2703    1.8949   21.6014 H         1 RES1    0.0000
     53 C9B        9.9867    2.3345   20.0422 C.2       1 RES1    0.0000
     54 H7B        9.9215    2.8562   19.2509 H         1 RES1    0.0000
     55 N1B       14.8279    4.2454   19.3544 N.pl3     1 RES1    0.0000
     56 O1B       14.1353    3.6902   18.5162 O.2       1 RES1    0.0000
     57 O2B       15.7089    5.0378   19.0585 O.2       1 RES1    0.0000
     58 C10B      10.1469    4.4924   15.6053 C.ar      2 RES2    0.0000
     59 C11B      10.8866    4.9409   16.6918 C.ar      2 RES2    0.0000
     60 H8B       10.5326    4.8779   17.5714 H         2 RES2    0.0000
     61 C12B      12.1310    5.4747   16.4858 C.ar      2 RES2    0.0000
     62 H9B       12.6367    5.8077   17.2177 H         2 RES2    0.0000
     63 C13B      12.6442    5.5253   15.2053 C.ar      2 RES2    0.0000
     64 H10B      13.5043    5.8999   15.0592 H         2 RES2    0.0000
     65 C14B      11.9181    5.0355   14.1307 C.ar      2 RES2    0.0000
     66 H11B      12.3064    5.0514   13.2644 H         2 RES2    0.0000
     67 C15B      10.6299    4.5192   14.2891 C.ar      2 RES2    0.0000
     68 C16B       9.8924    3.9770   13.1401 C.2       2 RES2    0.0000
     69 H12B       9.1997    3.3487   13.3109 H         2 RES2    0.0000
     70 C17B      10.1371    4.3150   11.8646 C.2       2 RES2    0.0000
     71 H13B      10.8006    4.9728   11.6900 H         2 RES2    0.0000
     72 C18B       9.4437    3.7303   10.7490 C.2       2 RES2    0.0000
     73 H14B       8.7738    3.0806   10.9301 H         2 RES2    0.0000
     74 N2B        8.7994    4.0057   15.8981 N.pl3     2 RES2    0.0000
     75 O3B        7.8984    4.2388   15.1083 O.2       2 RES2    0.0000
     76 O4B        8.6232    3.3969   16.9466 O.2       2 RES2    0.0000
@<TRIPOS>BOND
     1    1    2 ar
     2    2    3 1
     3    4    2 ar
     4    5    4 1
     5    6    4 ar
     6    7    6 1
     7    8    6 ar
     8    9    8 1
     9   10    1 ar
    10   11   10 1
    11   12   11 1
    12   13   11 2
    13   14   13 1
    14   15   13 1
    15   16   15 1
    16   17    1 1
    17   18   17 2
    18   19   17 2
    19   20   21 ar
    20   21   22 1
    21   23   21 ar
    22   24   23 1
    23   25   23 ar
    24   26   25 1
    25   27   25 ar
    26   28   27 1
    27   29   20 ar
    28   30   29 1
    29   31   30 1
    30   32   30 2
    31   33   32 1
    32   34   32 1
    33   35   34 1
    34   36   20 1
    35   37   36 2
    36   38   36 2
    37   39   40 ar
    38   40   41 1
    39   42   40 ar
    40   43   42 1
    41   44   42 ar
    42   45   44 1
    43   46   44 ar
    44   47   46 1
    45   48   39 ar
    46   49   48 1
    47   50   49 1
    48   51   49 2
    49   52   51 1
    50   53   15 2
    51   54   53 1
    52   55   39 1
    53   56   55 2
    54   57   55 2
    55   58   59 ar
    56   59   60 1
    57   61   59 ar
    58   62   61 1
    59   63   61 ar
    60   64   63 1
    61   65   63 ar
    62   66   65 1
    63   67   58 ar
    64   68   67 1
    65   69   68 1
    66   70   68 2
    67   71   70 1
    68   72   34 2
    69   73   72 1
    70   74   58 1
    71   75   74 2
    72   76   74 2
    73    8   10 ar
    74   27   29 ar
    75   46   48 ar
    76   51   53 1
    77   65   67 ar
    78   70   72 1
@<TRIPOS>SUBSTRUCTURE
     1 RES1 1
     2 RES2 20

@<TRIPOS>CRYSIN
  19.3408    3.8902   20.2120  90.0000  90.5940  90.0000 231 1

