# MOL2 file generated by ConQuest
# Please check atom types

@<TRIPOS>MOLECULE
TUQCOX
    23    25     1
SMALL
NO_CHARGES
****
Generated from CSD

@<TRIPOS>ATOM
      1 O1         6.2693    6.6525   -2.9217 O.2       1 RES1    0.0000
      2 O2         7.4868    6.3294   -1.1795 O.2       1 RES1    0.0000
      3 N1         6.0775    2.1803    0.9788 N.3       1 RES1    0.0000
      4 N2         4.0271    1.3455    0.7550 N.2       1 RES1    0.0000
      5 N3         6.5335    6.0322   -1.8927 N.pl3     1 RES1    0.0000
      6 C1         5.2123    1.2281    1.3301 C.2       1 RES1    0.0000
      7 C2         4.1553    2.4474   -0.0586 C.2       1 RES1    0.0000
      8 C3         5.4208    3.0005    0.0460 C.2       1 RES1    0.0000
      9 C4         7.4441    2.3047    1.4765 C.3       1 RES1    0.0000
     10 C5         7.5749    3.4385    2.4825 C.ar      1 RES1    0.0000
     11 C6         8.7109    4.2481    2.4741 C.ar      1 RES1    0.0000
     12 C7         8.8508    5.2610    3.4236 C.ar      1 RES1    0.0000
     13 C8         7.8560    5.4638    4.3794 C.ar      1 RES1    0.0000
     14 C9         6.7200    4.6543    4.3878 C.ar      1 RES1    0.0000
     15 C10        6.5788    3.6420    3.4383 C.ar      1 RES1    0.0000
     16 C11        6.0944    4.1396   -0.5249 C.2       1 RES1    0.0000
     17 C12        5.6760    4.8919   -1.5560 C.2       1 RES1    0.0000
     18 C13        4.4791    4.6850   -2.4260 C.ar      1 RES1    0.0000
     19 C14        4.4403    3.6013   -3.3044 C.ar      1 RES1    0.0000
     20 C15        3.3432    3.4256   -4.1472 C.ar      1 RES1    0.0000
     21 C16        2.2849    4.3336   -4.1138 C.ar      1 RES1    0.0000
     22 C17        2.3238    5.4172   -3.2354 C.ar      1 RES1    0.0000
     23 C18        3.4209    5.5929   -2.3926 C.ar      1 RES1    0.0000
@<TRIPOS>BOND
     1    1    5 2
     2    2    5 2
     3    3    6 1
     4    4    6 2
     5    5   17 1
     6    7    4 1
     7    8    3 1
     8    9    3 1
     9   10    9 1
    10   11   10 ar
    11   12   11 ar
    12   13   12 ar
    13   14   13 ar
    14   15   10 ar
    15   16    8 1
    16   17   16 2
    17   18   17 1
    18   19   18 ar
    19   20   19 ar
    20   21   20 ar
    21   22   21 ar
    22   23   18 ar
    23    7    8 2
    24   14   15 ar
    25   22   23 ar
@<TRIPOS>SUBSTRUCTURE
     1 RES1 1

@<TRIPOS>CRYSIN
  12.9530    5.8960   20.9140  90.0000  90.0000  90.0000  33 1

