# MOL2 file generated by ConQuest
# Please check atom types

@<TRIPOS>MOLECULE
TUQCOX01
    38    40     1
SMALL
NO_CHARGES
****
Generated from CSD

@<TRIPOS>ATOM
      1 O1         1.3443   -3.8407    5.7073 O.2       1 RES1    0.0000
      2 O2         2.8248   -3.4737    7.1965 O.2       1 RES1    0.0000
      3 N1         5.0524    0.7394    6.2630 N.3       1 RES1    0.0000
      4 N2         5.1758    1.6181    4.2334 N.2       1 RES1    0.0000
      5 N3         2.2782   -3.1977    6.1427 N.pl3     1 RES1    0.0000
      6 C1         5.5464    1.7311    5.4934 C.2       1 RES1    0.0000
      7 C2         4.3926    0.4989    4.1950 C.2       1 RES1    0.0000
      8 C3         4.2789   -0.0824    5.4371 C.2       1 RES1    0.0000
      9 C4         5.2801    0.5764    7.7049 C.3       1 RES1    0.0000
     10 C5         6.2344   -0.5556    8.0097 C.ar      1 RES1    0.0000
     11 C6         5.9847   -1.4050    9.0750 C.ar      1 RES1    0.0000
     12 C7         6.8516   -2.4387    9.3798 C.ar      1 RES1    0.0000
     13 C8         7.9860   -2.6323    8.6333 C.ar      1 RES1    0.0000
     14 C9         8.2412   -1.7952    7.5704 C.ar      1 RES1    0.0000
     15 C10        7.3698   -0.7639    7.2554 C.ar      1 RES1    0.0000
     16 C11        3.6237   -1.2432    5.9698 C.2       1 RES1    0.0000
     17 C12        2.7261   -2.0284    5.3615 C.2       1 RES1    0.0000
     18 C13        2.0795   -1.8581    4.0311 C.ar      1 RES1    0.0000
     19 C14        1.2585   -0.7541    3.8095 C.ar      1 RES1    0.0000
     20 C15        0.6419   -0.5843    2.5751 C.ar      1 RES1    0.0000
     21 C16        0.8522   -1.5076    1.5635 C.ar      1 RES1    0.0000
     22 C17        1.6642   -2.5944    1.7786 C.ar      1 RES1    0.0000
     23 C18        2.2818   -2.7709    3.0054 C.ar      1 RES1    0.0000
     24 H1         6.0959    2.4674    5.8648 H         1 RES1    0.0000
     25 H2         3.9834    0.1551    3.3639 H         1 RES1    0.0000
     26 H3         5.6555    1.5045    7.9725 H         1 RES1    0.0000
     27 H4         4.3619    0.4128    8.1441 H         1 RES1    0.0000
     28 H5         5.1377   -1.2169    9.6577 H         1 RES1    0.0000
     29 H6         6.6500   -3.0701   10.1891 H         1 RES1    0.0000
     30 H7         8.6228   -3.3827    8.8510 H         1 RES1    0.0000
     31 H8         8.9866   -1.9081    7.0326 H         1 RES1    0.0000
     32 H9         7.5519   -0.1911    6.5140 H         1 RES1    0.0000
     33 H10        3.8543   -1.4966    6.8841 H         1 RES1    0.0000
     34 H11        1.1163   -0.1447    4.5779 H         1 RES1    0.0000
     35 H12        0.0080    0.1429    2.4215 H         1 RES1    0.0000
     36 H13        0.3623   -1.4410    0.6992 H         1 RES1    0.0000
     37 H14        1.6290   -3.2508    1.0846 H         1 RES1    0.0000
     38 H15        2.8850   -3.3265    3.1936 H         1 RES1    0.0000
@<TRIPOS>BOND
     1    1    5 2
     2    2    5 2
     3    3    6 1
     4    4    6 2
     5    5   17 1
     6    6   24 1
     7    7    4 1
     8    8    3 1
     9    9    3 1
    10   10    9 1
    11   11   10 ar
    12   12   11 ar
    13   13   12 ar
    14   14   13 ar
    15   15   10 ar
    16   16    8 1
    17   17   16 2
    18   18   17 1
    19   19   18 ar
    20   20   19 ar
    21   21   20 ar
    22   22   21 ar
    23   23   18 ar
    24   25    7 1
    25   26    9 1
    26   27    9 1
    27   28   11 1
    28   29   12 1
    29   30   13 1
    30   31   14 1
    31   32   15 1
    32   33   16 1
    33   34   19 1
    34   35   20 1
    35   36   21 1
    36   37   22 1
    37   38   23 1
    38    7    8 2
    39   14   15 ar
    40   22   23 ar
@<TRIPOS>SUBSTRUCTURE
     1 RES1 1

@<TRIPOS>CRYSIN
  19.8660    6.1060   12.9320  90.0000  98.0300  90.0000  14 1

