# MOL2 file generated by ConQuest
# Please check atom types

@<TRIPOS>MOLECULE
TUQDAM
    76    78     2
SMALL
NO_CHARGES
****
Generated from CSD

@<TRIPOS>ATOM
      1 C1         0.1426    3.5341    7.3195 C.ar      1 RES1    0.0000
      2 C2         1.3970    3.6907    7.8692 C.ar      1 RES1    0.0000
      3 H1         1.9423    2.9401    8.0706 H         1 RES1    0.0000
      4 C3         1.8328    4.9798    8.1175 C.ar      1 RES1    0.0000
      5 H2         2.6886    5.1239    8.5042 H         1 RES1    0.0000
      6 C4         1.0263    6.0610    7.8041 C.ar      1 RES1    0.0000
      7 H3         1.3407    6.9393    7.9850 H         1 RES1    0.0000
      8 C5        -0.2378    5.8970    7.2287 C.ar      1 RES1    0.0000
      9 C6        -0.6785    4.5920    6.9899 C.ar      1 RES1    0.0000
     10 H4        -1.5326    4.4360    6.6055 H         1 RES1    0.0000
     11 C7        -1.0397    7.0853    6.9055 C.2       1 RES1    0.0000
     12 H5        -0.6797    7.9240    7.1680 H         1 RES1    0.0000
     13 C8        -2.2222    7.1122    6.2803 C.2       1 RES1    0.0000
     14 H6        -2.6004    6.2863    6.0008 H         1 RES1    0.0000
     15 C9        -2.9577    8.3281    6.0070 C.2       1 RES1    0.0000
     16 H7        -2.5681    9.1537    6.2700 H         1 RES1    0.0000
     17 N1        -0.3601    2.1662    7.0900 N.pl3     1 RES1    0.0000
     18 O1         0.3946    1.2331    7.2824 O.2       1 RES1    0.0000
     19 O2        -1.5142    2.0326    6.7224 O.2       1 RES1    0.0000
     20 C10        5.6502    6.9433    0.2788 C.ar      2 RES2    0.0000
     21 C11        6.0147    6.1998    1.3794 C.ar      2 RES2    0.0000
     22 H8         6.8222    5.6994    1.3909 H         2 RES2    0.0000
     23 C12        5.1618    6.2077    2.4684 C.ar      2 RES2    0.0000
     24 H9         5.3788    5.7044    3.2440 H         2 RES2    0.0000
     25 C13        3.9962    6.9441    2.4325 C.ar      2 RES2    0.0000
     26 H10        3.4128    6.9210    3.1812 H         2 RES2    0.0000
     27 C14        3.6502    7.7200    1.3317 C.ar      2 RES2    0.0000
     28 C15        4.5043    7.7064    0.2244 C.ar      2 RES2    0.0000
     29 H11        4.2982    8.2138   -0.5511 H         2 RES2    0.0000
     30 C16        2.4416    8.5490    1.3629 C.2       2 RES2    0.0000
     31 H12        1.9107    8.4932    2.1486 H         2 RES2    0.0000
     32 C17        2.0047    9.3734    0.4086 C.2       2 RES2    0.0000
     33 H13        2.5288    9.4544   -0.3800 H         2 RES2    0.0000
     34 C18        0.7981   10.1459    0.4896 C.2       2 RES2    0.0000
     35 H14        0.3007   10.1020    1.2974 H         2 RES2    0.0000
     36 N2         6.5156    6.9354   -0.9176 N.pl3     2 RES2    0.0000
     37 O3         7.5436    6.2919   -0.8770 O.2       2 RES2    0.0000
     38 O4         6.1601    7.5688   -1.8942 O.2       2 RES2    0.0000
     39 C1A       -7.2590   13.1548    4.0910 C.ar      1 RES1    0.0000
     40 C2A       -8.5133   12.9982    3.5412 C.ar      1 RES1    0.0000
     41 H1A       -9.0586   13.7488    3.3398 H         1 RES1    0.0000
     42 C3A       -8.9491   11.7092    3.2929 C.ar      1 RES1    0.0000
     43 H2A       -9.8049   11.5650    2.9062 H         1 RES1    0.0000
     44 C4A       -8.1426   10.6280    3.6064 C.ar      1 RES1    0.0000
     45 H3A       -8.4570    9.7496    3.4254 H         1 RES1    0.0000
     46 C5A       -6.8785   10.7919    4.1817 C.ar      1 RES1    0.0000
     47 C6A       -6.4378   12.0970    4.4205 C.ar      1 RES1    0.0000
     48 H4A       -5.5837   12.2530    4.8049 H         1 RES1    0.0000
     49 C7A       -6.0766    9.6036    4.5050 C.2       1 RES1    0.0000
     50 H5A       -6.4366    8.7649    4.2424 H         1 RES1    0.0000
     51 C8A       -4.8941    9.5767    5.1301 C.2       1 RES1    0.0000
     52 H6A       -4.5159   10.4027    5.4097 H         1 RES1    0.0000
     53 C9A       -4.1587    8.3609    5.4034 C.2       1 RES1    0.0000
     54 H7A       -4.5482    7.5352    5.1404 H         1 RES1    0.0000
     55 N1A       -6.7562   14.5228    4.3205 N.pl3     1 RES1    0.0000
     56 O1A       -7.5109   15.4558    4.1281 O.2       1 RES1    0.0000
     57 O2A       -5.6021   14.6564    4.6881 O.2       1 RES1    0.0000
     58 C10A      -4.5296   14.1263   -0.2788 C.ar      2 RES2    0.0000
     59 C11A      -4.8941   14.8698   -1.3794 C.ar      2 RES2    0.0000
     60 H8A       -5.7016   15.3702   -1.3909 H         2 RES2    0.0000
     61 C12A      -4.0412   14.8619   -2.4684 C.ar      2 RES2    0.0000
     62 H9A       -4.2582   15.3652   -3.2440 H         2 RES2    0.0000
     63 C13A      -2.8756   14.1256   -2.4325 C.ar      2 RES2    0.0000
     64 H10A      -2.2922   14.1486   -3.1812 H         2 RES2    0.0000
     65 C14A      -2.5296   13.3496   -1.3317 C.ar      2 RES2    0.0000
     66 C15A      -3.3837   13.3632   -0.2244 C.ar      2 RES2    0.0000
     67 H11A      -3.1776   12.8558    0.5511 H         2 RES2    0.0000
     68 C16A      -1.3210   12.5206   -1.3629 C.2       2 RES2    0.0000
     69 H12A      -0.7902   12.5765   -2.1486 H         2 RES2    0.0000
     70 C17A      -0.8841   11.6962   -0.4086 C.2       2 RES2    0.0000
     71 H13A      -1.4082   11.6152    0.3800 H         2 RES2    0.0000
     72 C18A       0.3225   10.9237   -0.4896 C.2       2 RES2    0.0000
     73 H14A       0.8198   10.9676   -1.2974 H         2 RES2    0.0000
     74 N2A       -5.3951   14.1342    0.9176 N.pl3     2 RES2    0.0000
     75 O3A       -6.4231   14.7777    0.8770 O.2       2 RES2    0.0000
     76 O4A       -5.0395   13.5009    1.8942 O.2       2 RES2    0.0000
@<TRIPOS>BOND
     1    1    2 ar
     2    2    3 1
     3    4    2 ar
     4    5    4 1
     5    6    4 ar
     6    7    6 1
     7    8    6 ar
     8    9    1 ar
     9   10    9 1
    10   11    8 1
    11   12   11 1
    12   13   11 2
    13   14   13 1
    14   15   13 1
    15   16   15 1
    16   17    1 1
    17   18   17 2
    18   19   17 2
    19   20   21 ar
    20   21   22 1
    21   23   21 ar
    22   24   23 1
    23   25   23 ar
    24   26   25 1
    25   27   25 ar
    26   28   20 ar
    27   29   28 1
    28   30   27 1
    29   31   30 1
    30   32   30 2
    31   33   32 1
    32   34   32 1
    33   35   34 1
    34   36   20 1
    35   37   36 2
    36   38   36 2
    37   39   40 ar
    38   40   41 1
    39   42   40 ar
    40   43   42 1
    41   44   42 ar
    42   45   44 1
    43   46   44 ar
    44   47   39 ar
    45   48   47 1
    46   49   46 1
    47   50   49 1
    48   51   49 2
    49   52   51 1
    50   53   15 2
    51   54   53 1
    52   55   39 1
    53   56   55 2
    54   57   55 2
    55   58   59 ar
    56   59   60 1
    57   61   59 ar
    58   62   61 1
    59   63   61 ar
    60   64   63 1
    61   65   63 ar
    62   66   58 ar
    63   67   66 1
    64   68   65 1
    65   69   68 1
    66   70   68 2
    67   71   70 1
    68   72   34 2
    69   73   72 1
    70   74   58 1
    71   75   74 2
    72   76   74 2
    73    8    9 ar
    74   27   28 ar
    75   46   47 ar
    76   51   53 1
    77   65   66 ar
    78   70   72 1
@<TRIPOS>SUBSTRUCTURE
     1 RES1 1
     2 RES2 20

@<TRIPOS>CRYSIN
   6.3063   10.8492   12.3740 107.8470  98.9760 103.8270   2 1

