# MOL2 file generated by ConQuest
# Please check atom types

@<TRIPOS>MOLECULE
TUQDOA
   261   266     3
SMALL
USER_CHARGES
****
Generated from CSD

@<TRIPOS>ATOM
      1 N1        -0.5485    2.3291    3.1019 N.2       1 RES1    0.0000
      2 N2        -0.4019    1.2753    2.3822 N.pl3     1 RES1    1.0000
      3 O1         0.2570    1.1541    1.3217 O.2       1 RES1   -1.0000
      4 C1        -1.1346    0.0886    2.8425 C.ar      1 RES1    0.0000
      5 C2        -1.7176    0.0789    4.0854 C.ar      1 RES1    0.0000
      6 H1        -1.6413    0.8160    4.6800 H         1 RES1    0.0000
      7 C3        -2.4261   -1.0656    4.4251 C.ar      1 RES1    0.0000
      8 H2        -2.8296   -1.0972    5.2847 H         1 RES1    0.0000
      9 N3        -2.5787   -2.1256    3.6239 N.ar      1 RES1    0.0000
     10 C4        -1.9957   -2.0606    2.4450 C.ar      1 RES1    0.0000
     11 H3        -2.0874   -2.8078    1.8653 H         1 RES1    0.0000
     12 C5        -1.2537   -0.9728    1.9853 C.ar      1 RES1    0.0000
     13 H4        -0.8525   -0.9680    1.1247 H         1 RES1    0.0000
     14 C6         0.0440    3.5127    2.5738 C.ar      1 RES1    0.0000
     15 C7         1.4018    3.6209    2.2453 C.ar      1 RES1    0.0000
     16 C8         1.8293    4.7987    1.6559 C.ar      1 RES1    0.0000
     17 H5         2.7390    4.8673    1.3926 H         1 RES1    0.0000
     18 C9         0.9905    5.8871    1.4316 C.ar      1 RES1    0.0000
     19 C10       -0.3167    5.7840    1.9084 C.ar      1 RES1    0.0000
     20 H6        -0.8930    6.5359    1.8318 H         1 RES1    0.0000
     21 C11       -0.8046    4.6242    2.4891 C.ar      1 RES1    0.0000
     22 C12        1.5444    7.1228    0.7245 C.3       1 RES1    0.0000
     23 C13        0.4577    8.1512    0.4249 C.3       1 RES1    0.0000
     24 H7        -0.2413    7.7373   -0.1241 H         1 RES1    0.0000
     25 H8         0.8480    8.9082   -0.0591 H         1 RES1    0.0000
     26 H9         0.0668    8.4690    1.2665 H         1 RES1    0.0000
     27 C14        2.1539    6.6996   -0.6244 C.3       1 RES1    0.0000
     28 H10        2.5065    7.4897   -1.0853 H         1 RES1    0.0000
     29 H11        1.4630    6.2799   -1.1779 H         1 RES1    0.0000
     30 H12        2.8805    6.0610   -0.4688 H         1 RES1    0.0000
     31 C15        2.6072    7.7838    1.5860 C.3       1 RES1    0.0000
     32 H13        2.2081    8.0732    2.4326 H         1 RES1    0.0000
     33 H14        2.9725    8.5606    1.1149 H         1 RES1    0.0000
     34 H15        3.3263    7.1434    1.7668 H         1 RES1    0.0000
     35 C16        2.4174    2.5475    2.5691 C.3       1 RES1    0.0000
     36 H16        2.7828    2.1922    1.7215 H         1 RES1    0.0000
     37 H17        1.9550    1.8039    3.0314 H         1 RES1    0.0000
     38 C17        3.5717    3.0173    3.4373 C.ar      1 RES1    0.0000
     39 C18        3.3440    3.4376    4.7604 C.ar      1 RES1    0.0000
     40 C19        4.4175    3.7818    5.5747 C.ar      1 RES1    0.0000
     41 H18        4.2521    4.0761    6.4626 H         1 RES1    0.0000
     42 C20        5.7191    3.7057    5.1193 C.ar      1 RES1    0.0000
     43 H19        6.4438    3.9140    5.6983 H         1 RES1    0.0000
     44 C21        5.9541    3.3271    3.8220 C.ar      1 RES1    0.0000
     45 H20        6.8481    3.2864    3.5021 H         1 RES1    0.0000
     46 C22        4.8997    2.9984    2.9599 C.ar      1 RES1    0.0000
     47 C23        1.9768    3.5558    5.3603 C.ar      1 RES1    0.0000
     48 C24        1.4102    4.8328    5.4943 C.ar      1 RES1    0.0000
     49 C25        0.1903    4.9632    6.1329 C.ar      1 RES1    0.0000
     50 H21       -0.2147    5.8190    6.2006 H         1 RES1    0.0000
     51 C26       -0.4432    3.8646    6.6714 C.ar      1 RES1    0.0000
     52 H22       -1.2694    3.9710    7.1284 H         1 RES1    0.0000
     53 C27        0.1141    2.6192    6.5491 C.ar      1 RES1    0.0000
     54 H23       -0.3306    1.8693    6.9255 H         1 RES1    0.0000
     55 C28        1.3234    2.4375    5.8819 C.ar      1 RES1    0.0000
     56 C29        2.0949    6.0561    4.9530 C.3       1 RES1    0.0000
     57 H24        1.4462    6.7874    4.8790 H         1 RES1    0.0000
     58 H25        2.4659    5.8574    4.0674 H         1 RES1    0.0000
     59 H26        2.8171    6.3212    5.5585 H         1 RES1    0.0000
     60 C30        1.8877    1.0507    5.7527 C.3       1 RES1    0.0000
     61 H27        1.7800    0.5745    6.6024 H         1 RES1    0.0000
     62 H28        2.8401    1.1052    5.5270 H         1 RES1    0.0000
     63 H29        1.4116    0.5694    5.0444 H         1 RES1    0.0000
     64 C31        5.2308    2.6913    1.5437 C.ar      1 RES1    0.0000
     65 C32        5.3266    1.3814    1.0802 C.ar      1 RES1    0.0000
     66 C33        5.6313    1.1518   -0.2592 C.ar      1 RES1    0.0000
     67 H30        5.7109    0.2612   -0.5771 H         1 RES1    0.0000
     68 C34        5.8172    2.2092   -1.1284 C.ar      1 RES1    0.0000
     69 H31        5.9875    2.0472   -2.0485 H         1 RES1    0.0000
     70 C35        5.7551    3.5003   -0.6500 C.ar      1 RES1    0.0000
     71 H32        5.8955    4.2239   -1.2488 H         1 RES1    0.0000
     72 C36        5.4927    3.7658    0.6797 C.ar      1 RES1    0.0000
     73 C37        5.1397    0.2303    2.0278 C.3       1 RES1    0.0000
     74 H33        5.3090   -0.6121    1.5561 H         1 RES1    0.0000
     75 H34        4.2219    0.2353    2.3696 H         1 RES1    0.0000
     76 H35        5.7679    0.3170    2.7753 H         1 RES1    0.0000
     77 C38        5.5500    5.1774    1.1852 C.3       1 RES1    0.0000
     78 H36        6.4346    5.3517    1.5679 H         1 RES1    0.0000
     79 H37        4.8649    5.3048    1.8752 H         1 RES1    0.0000
     80 H38        5.3863    5.7969    0.4432 H         1 RES1    0.0000
     81 C39       -2.1862    4.5686    3.1068 C.3       1 RES1    0.0000
     82 H39       -2.4887    3.6260    3.0924 H         1 RES1    0.0000
     83 H40       -2.1075    4.8380    4.0556 H         1 RES1    0.0000
     84 C40       -3.2647    5.4152    2.4700 C.ar      1 RES1    0.0000
     85 C41       -3.7589    5.0798    1.1958 C.ar      1 RES1    0.0000
     86 C42       -4.7571    5.8473    0.6165 C.ar      1 RES1    0.0000
     87 H41       -5.0791    5.6227   -0.2482 H         1 RES1    0.0000
     88 C43       -5.2905    6.9340    1.2797 C.ar      1 RES1    0.0000
     89 H42       -5.9704    7.4565    0.8706 H         1 RES1    0.0000
     90 C44       -4.8342    7.2579    2.5364 C.ar      1 RES1    0.0000
     91 H43       -5.2082    8.0015    2.9939 H         1 RES1    0.0000
     92 C45       -3.8267    6.5062    3.1482 C.ar      1 RES1    0.0000
     93 C46       -3.2168    3.8922    0.4729 C.ar      1 RES1    0.0000
     94 C47       -3.6198    2.6044    0.8554 C.ar      1 RES1    0.0000
     95 C48       -3.0500    1.5084    0.2210 C.ar      1 RES1    0.0000
     96 H44       -3.3046    0.6307    0.4806 H         1 RES1    0.0000
     97 C49       -2.1147    1.6785   -0.7857 C.ar      1 RES1    0.0000
     98 H45       -1.7157    0.9225   -1.1995 H         1 RES1    0.0000
     99 C50       -1.7669    2.9406   -1.1840 C.ar      1 RES1    0.0000
    100 H46       -1.1395    3.0491   -1.8889 H         1 RES1    0.0000
    101 C51       -2.3123    4.0695   -0.5807 C.ar      1 RES1    0.0000
    102 C52       -4.6814    2.3861    1.8937 C.3       1 RES1    0.0000
    103 H47       -5.5639    2.4064    1.4674 H         1 RES1    0.0000
    104 H48       -4.6271    3.0952    2.5685 H         1 RES1    0.0000
    105 H49       -4.5440    1.5160    2.3223 H         1 RES1    0.0000
    106 C53       -1.9423    5.4298   -1.0759 C.3       1 RES1    0.0000
    107 H50       -2.5434    5.6860   -1.8062 H         1 RES1    0.0000
    108 H51       -1.0178    5.4188   -1.4005 H         1 RES1    0.0000
    109 H52       -2.0234    6.0779   -0.3447 H         1 RES1    0.0000
    110 C54       -3.3690    6.8945    4.5213 C.ar      1 RES1    0.0000
    111 C55       -2.5573    8.0228    4.6930 C.ar      1 RES1    0.0000
    112 C56       -2.1176    8.3529    5.9692 C.ar      1 RES1    0.0000
    113 H53       -1.5507    9.1049    6.0903 H         1 RES1    0.0000
    114 C57       -2.4959    7.6003    7.0626 C.ar      1 RES1    0.0000
    115 H54       -2.1816    7.8295    7.9300 H         1 RES1    0.0000
    116 C58       -3.3276    6.5199    6.8951 C.ar      1 RES1    0.0000
    117 H55       -3.6017    6.0221    7.6562 H         1 RES1    0.0000
    118 C59       -3.7788    6.1395    5.6294 C.ar      1 RES1    0.0000
    119 C60       -2.1587    8.8849    3.5327 C.3       1 RES1    0.0000
    120 H56       -2.8834    9.5108    3.3268 H         1 RES1    0.0000
    121 H57       -1.9822    8.3196    2.7517 H         1 RES1    0.0000
    122 H58       -1.3492    9.3874    3.7621 H         1 RES1    0.0000
    123 C61       -4.6800    4.9516    5.4793 C.3       1 RES1    0.0000
    124 H59       -4.1688    4.1987    5.1153 H         1 RES1    0.0000
    125 H60       -5.4136    5.1732    4.8691 H         1 RES1    0.0000
    126 H61       -5.0451    4.7063    6.3543 H         1 RES1    0.0000
    127 N4         5.8704   -3.4224    6.7297 N.2       2 RES2    0.0000
    128 N5         5.7054   -2.3949    7.4709 N.pl3     2 RES2    1.0000
    129 O2         5.1052   -2.3321    8.5777 O.2       2 RES2   -1.0000
    130 C62        6.3563   -1.1738    7.0007 C.ar      2 RES2    0.0000
    131 C63        6.9257   -1.1338    5.7480 C.ar      2 RES2    0.0000
    132 H62        6.8667   -1.8686    5.1488 H         2 RES2    0.0000
    133 C64        7.5940    0.0375    5.4043 C.ar      2 RES2    0.0000
    134 H63        7.9796    0.0891    4.5382 H         2 RES2    0.0000
    135 N6         7.7321    1.0944    6.2111 N.ar      2 RES2    0.0000
    136 C65        7.1558    1.0014    7.4102 C.ar      2 RES2    0.0000
    137 H64        7.2341    1.7422    7.9990 H         2 RES2    0.0000
    138 C66        6.4492   -0.1085    7.8538 C.ar      2 RES2    0.0000
    139 H65        6.0463   -0.1279    8.7140 H         2 RES2    0.0000
    140 C67        5.3896   -4.6626    7.2379 C.ar      2 RES2    0.0000
    141 C68        6.2987   -5.7212    7.1352 C.ar      2 RES2    0.0000
    142 C69        5.9268   -6.9693    7.6125 C.ar      2 RES2    0.0000
    143 H66        6.5490   -7.6841    7.5597 H         2 RES2    0.0000
    144 C70        4.6800   -7.2078    8.1624 C.ar      2 RES2    0.0000
    145 C71        3.7708   -6.1559    8.1644 C.ar      2 RES2    0.0000
    146 H67        2.8997   -6.3061    8.5131 H         2 RES2    0.0000
    147 C72        4.0828   -4.8987    7.6797 C.ar      2 RES2    0.0000
    148 C73        4.2777   -8.5747    8.7362 C.3       2 RES2    0.0000
    149 C74        5.3090   -9.6471    8.4033 C.3       2 RES2    0.0000
    150 H68        6.1753   -9.3976    8.7888 H         2 RES2    0.0000
    151 H69        5.3940   -9.7278    7.4297 H         2 RES2    0.0000
    152 H70        5.0202  -10.5047    8.7770 H         2 RES2    0.0000
    153 C75        4.1307   -8.4601   10.2430 C.3       2 RES2    0.0000
    154 H71        4.9753   -8.1512   10.6325 H         2 RES2    0.0000
    155 H72        3.9000   -9.3368   10.6167 H         2 RES2    0.0000
    156 H73        3.4201   -7.8178   10.4532 H         2 RES2    0.0000
    157 C76        2.9355   -9.0361    8.1396 C.3       2 RES2    0.0000
    158 H74        2.6947   -9.9087    8.5131 H         2 RES2    0.0000
    159 H75        3.0183   -9.1090    7.1658 H         2 RES2    0.0000
    160 H76        2.2389   -8.3838    8.3594 H         2 RES2    0.0000
    161 C77        7.6251   -5.5295    6.4120 C.3       2 RES2    0.0000
    162 H77        7.5002   -5.7984    5.4679 H         2 RES2    0.0000
    163 H78        7.8396   -4.5635    6.4153 H         2 RES2    0.0000
    164 C78        8.8228   -6.2770    6.9588 C.ar      2 RES2    0.0000
    165 C79        9.4391   -7.3048    6.2280 C.ar      2 RES2    0.0000
    166 C80       10.5499   -7.9570    6.7596 C.ar      2 RES2    0.0000
    167 H79       10.9659   -8.6535    6.2656 H         2 RES2    0.0000
    168 C81       11.0531   -7.6058    7.9944 C.ar      2 RES2    0.0000
    169 H80       11.8037   -8.0654    8.3515 H         2 RES2    0.0000
    170 C82       10.4615   -6.5849    8.7069 C.ar      2 RES2    0.0000
    171 H81       10.8108   -6.3419    9.5570 H         2 RES2    0.0000
    172 C83        9.3576   -5.9035    8.1967 C.ar      2 RES2    0.0000
    173 C84        8.9266   -7.7800    4.9459 C.ar      2 RES2    0.0000
    174 C85        9.0830   -6.9796    3.7700 C.ar      2 RES2    0.0000
    175 C86        8.5823   -7.4031    2.5764 C.ar      2 RES2    0.0000
    176 H82        8.6712   -6.8478    1.8121 H         2 RES2    0.0000
    177 C87        7.9356   -8.6409    2.4542 C.ar      2 RES2    0.0000
    178 H83        7.5980   -8.9255    1.6132 H         2 RES2    0.0000
    179 C88        7.7989   -9.4253    3.5396 C.ar      2 RES2    0.0000
    180 H84        7.3572  -10.2632    3.4608 H         2 RES2    0.0000
    181 C89        8.2865   -9.0327    4.7568 C.ar      2 RES2    0.0000
    182 C90        9.7479   -5.5765    3.8449 C.3       2 RES2    0.0000
    183 H85       10.2248   -5.3950    3.0077 H         2 RES2    0.0000
    184 H86       10.3814   -5.5546    4.5933 H         2 RES2    0.0000
    185 H87        9.0565   -4.8947    3.9827 H         2 RES2    0.0000
    186 C91        8.1969   -9.9813    5.9702 C.3       2 RES2    0.0000
    187 H88        7.5604  -10.7002    5.7752 H         2 RES2    0.0000
    188 H89        7.8932   -9.4795    6.7541 H         2 RES2    0.0000
    189 H90        9.0807  -10.3656    6.1494 H         2 RES2    0.0000
    190 C92        8.7720   -4.7906    8.9917 C.ar      2 RES2    0.0000
    191 C93        7.9686   -5.0741   10.1008 C.ar      2 RES2    0.0000
    192 C94        7.4095   -4.0244   10.8255 C.ar      2 RES2    0.0000
    193 H91        6.8529   -4.2110   11.5740 H         2 RES2    0.0000
    194 C95        7.6555   -2.7178   10.4674 C.ar      2 RES2    0.0000
    195 H92        7.2651   -2.0077   10.9634 H         2 RES2    0.0000
    196 C96        8.4708   -2.4396    9.3866 C.ar      2 RES2    0.0000
    197 H93        8.6456   -1.5342    9.1552 H         2 RES2    0.0000
    198 C97        9.0375   -3.4541    8.6354 C.ar      2 RES2    0.0000
    199 C98        7.7166   -6.4890   10.5452 C.3       2 RES2    0.0000
    200 H94        7.7922   -7.0922    9.7756 H         2 RES2    0.0000
    201 H95        6.8151   -6.5565   10.9259 H         2 RES2    0.0000
    202 H96        8.3766   -6.7408   11.2234 H         2 RES2    0.0000
    203 C99        9.9648   -3.1099    7.4951 C.3       2 RES2    0.0000
    204 H97        9.7918   -2.1919    7.1993 H         2 RES2    0.0000
    205 H98        9.8106   -3.7279    6.7502 H         2 RES2    0.0000
    206 H99       10.8947   -3.1869    7.7961 H         2 RES2    0.0000
    207 C100       2.9686   -3.8735    7.5392 C.3       2 RES2    0.0000
    208 H100       3.3177   -3.0804    7.0594 H         2 RES2    0.0000
    209 H101       2.6833   -3.5806    8.4402 H         2 RES2    0.0000
    210 C101       1.7594   -4.4150    6.7878 C.ar      2 RES2    0.0000
    211 C102       1.8860   -4.7948    5.4429 C.ar      2 RES2    0.0000
    212 C103       0.7817   -5.2745    4.7523 C.ar      2 RES2    0.0000
    213 H102       0.8671   -5.5124    3.8370 H         2 RES2    0.0000
    214 C104      -0.4448   -5.4095    5.3860 C.ar      2 RES2    0.0000
    215 H103      -1.1899   -5.7625    4.9124 H         2 RES2    0.0000
    216 C105      -0.5775   -5.0319    6.6964 C.ar      2 RES2    0.0000
    217 H104      -1.4216   -5.1174    7.1244 H         2 RES2    0.0000
    218 C106       0.5061   -4.5256    7.4112 C.ar      2 RES2    0.0000
    219 C107       3.1729   -4.6745    4.6859 C.ar      2 RES2    0.0000
    220 C108       3.9126   -5.8319    4.3816 C.ar      2 RES2    0.0000
    221 C109       5.0864   -5.7111    3.6441 C.ar      2 RES2    0.0000
    222 H105       5.6041   -6.4843    3.4529 H         2 RES2    0.0000
    223 C110       5.5036   -4.4833    3.1915 C.ar      2 RES2    0.0000
    224 H106       6.3049   -4.4116    2.6867 H         2 RES2    0.0000
    225 C111       4.7619   -3.3538    3.4661 C.ar      2 RES2    0.0000
    226 H107       5.0531   -2.5109    3.1358 H         2 RES2    0.0000
    227 C112       3.5982   -3.4297    4.2167 C.ar      2 RES2    0.0000
    228 C113       3.4679   -7.1972    4.8118 C.3       2 RES2    0.0000
    229 H108       2.9191   -7.6000    4.1068 H         2 RES2    0.0000
    230 H109       2.9412   -7.1249    5.6353 H         2 RES2    0.0000
    231 H110       4.2527   -7.7606    4.9755 H         2 RES2    0.0000
    232 C114       2.8293   -2.1664    4.4905 C.3       2 RES2    0.0000
    233 H111       1.8947   -2.3894    4.6879 H         2 RES2    0.0000
    234 H112       2.8673   -1.5835    3.7030 H         2 RES2    0.0000
    235 H113       3.2244   -1.7045    5.2591 H         2 RES2    0.0000
    236 C115       0.2633   -4.0626    8.8038 C.ar      2 RES2    0.0000
    237 C116       0.0435   -2.6847    9.0260 C.ar      2 RES2    0.0000
    238 C117      -0.2176   -2.2482   10.3157 C.ar      2 RES2    0.0000
    239 H114      -0.3945   -1.3266   10.4690 H         2 RES2    0.0000
    240 C118      -0.2259   -3.1214   11.3778 C.ar      2 RES2    0.0000
    241 H115      -0.3759   -2.8013   12.2594 H         2 RES2    0.0000
    242 C119      -0.0158   -4.4581   11.1601 C.ar      2 RES2    0.0000
    243 H116      -0.0180   -5.0561   11.8970 H         2 RES2    0.0000
    244 C120       0.2001   -4.9536    9.8798 C.ar      2 RES2    0.0000
    245 C121       0.0917   -1.7042    7.8942 C.3       2 RES2    0.0000
    246 H117      -0.1786   -0.8199    8.2176 H         2 RES2    0.0000
    247 H118      -0.5183   -1.9936    7.1835 H         2 RES2    0.0000
    248 H119       1.0045   -1.6572    7.5420 H         2 RES2    0.0000
    249 C122       0.3331   -6.4428    9.6860 C.3       2 RES2    0.0000
    250 H120       1.1390   -6.7604   10.1440 H         2 RES2    0.0000
    251 H121       0.3996   -6.6422    8.7297 H         2 RES2    0.0000
    252 H122      -0.4535   -6.8924   10.0593 H         2 RES2    0.0000
    253 H123       8.8216   -6.6404    1.6447 Du        3 SUP3    0.0000
    254 H124       7.6270   -8.5507    1.4989 Du        3 SUP3    0.0000
    255 H125       7.4282  -10.0169    3.3209 Du        3 SUP3    0.0000
    256 H126       9.4827   -4.7536    3.6499 Du        3 SUP3    0.0000
    257 H127      10.7280   -5.6723    3.2461 Du        3 SUP3    0.0000
    258 H128      10.3204   -5.5123    4.7844 Du        3 SUP3    0.0000
    259 H129       8.8916  -10.4772    5.6255 Du        3 SUP3    0.0000
    260 H130       7.3153  -10.2342    5.4837 Du        3 SUP3    0.0000
    261 H131       8.1585   -9.4060    6.5630 Du        3 SUP3    0.0000
@<TRIPOS>BOND
     1    1    2 2
     2    2    3 1
     3    4    2 1
     4    5    4 ar
     5    6    5 1
     6    7    5 ar
     7    8    7 1
     8    9    7 ar
     9   10    9 ar
    10   11   10 1
    11   12    4 ar
    12   13   12 1
    13   14    1 1
    14   15   14 ar
    15   16   15 ar
    16   17   16 1
    17   18   16 ar
    18   19   18 ar
    19   20   19 1
    20   21   14 ar
    21   22   18 1
    22   23   22 1
    23   24   23 1
    24   25   23 1
    25   26   23 1
    26   27   22 1
    27   28   27 1
    28   29   27 1
    29   30   27 1
    30   31   22 1
    31   32   31 1
    32   33   31 1
    33   34   31 1
    34   35   15 1
    35   36   35 1
    36   37   35 1
    37   38   35 1
    38   39   38 ar
    39   40   39 ar
    40   41   40 1
    41   42   40 ar
    42   43   42 1
    43   44   42 ar
    44   45   44 1
    45   46   38 ar
    46   47   39 1
    47   48   47 ar
    48   49   48 ar
    49   50   49 1
    50   51   49 ar
    51   52   51 1
    52   53   51 ar
    53   54   53 1
    54   55   47 ar
    55   56   48 1
    56   57   56 1
    57   58   56 1
    58   59   56 1
    59   60   55 1
    60   61   60 1
    61   62   60 1
    62   63   60 1
    63   64   46 1
    64   65   64 ar
    65   66   65 ar
    66   67   66 1
    67   68   66 ar
    68   69   68 1
    69   70   68 ar
    70   71   70 1
    71   72   64 ar
    72   73   65 1
    73   74   73 1
    74   75   73 1
    75   76   73 1
    76   77   72 1
    77   78   77 1
    78   79   77 1
    79   80   77 1
    80   81   21 1
    81   82   81 1
    82   83   81 1
    83   84   81 1
    84   85   84 ar
    85   86   85 ar
    86   87   86 1
    87   88   86 ar
    88   89   88 1
    89   90   88 ar
    90   91   90 1
    91   92   84 ar
    92   93   85 1
    93   94   93 ar
    94   95   94 ar
    95   96   95 1
    96   97   95 ar
    97   98   97 1
    98   99   97 ar
    99  100   99 1
   100  101   93 ar
   101  102   94 1
   102  103  102 1
   103  104  102 1
   104  105  102 1
   105  106  101 1
   106  107  106 1
   107  108  106 1
   108  109  106 1
   109  110   92 1
   110  111  110 ar
   111  112  111 ar
   112  113  112 1
   113  114  112 ar
   114  115  114 1
   115  116  114 ar
   116  117  116 1
   117  118  110 ar
   118  119  111 1
   119  120  119 1
   120  121  119 1
   121  122  119 1
   122  123  118 1
   123  124  123 1
   124  125  123 1
   125  126  123 1
   126  127  128 2
   127  128  129 1
   128  130  128 1
   129  131  130 ar
   130  132  131 1
   131  133  131 ar
   132  134  133 1
   133  135  133 ar
   134  136  135 ar
   135  137  136 1
   136  138  130 ar
   137  139  138 1
   138  140  127 1
   139  141  140 ar
   140  142  141 ar
   141  143  142 1
   142  144  142 ar
   143  145  144 ar
   144  146  145 1
   145  147  140 ar
   146  148  144 1
   147  149  148 1
   148  150  149 1
   149  151  149 1
   150  152  149 1
   151  153  148 1
   152  154  153 1
   153  155  153 1
   154  156  153 1
   155  157  148 1
   156  158  157 1
   157  159  157 1
   158  160  157 1
   159  161  141 1
   160  162  161 1
   161  163  161 1
   162  164  161 1
   163  165  164 ar
   164  166  165 ar
   165  167  166 1
   166  168  166 ar
   167  169  168 1
   168  170  168 ar
   169  171  170 1
   170  172  164 ar
   171  173  165 1
   172  174  173 ar
   173  175  174 ar
   174  176  175 1
   175  177  175 ar
   176  178  177 1
   177  179  177 ar
   178  180  179 1
   179  181  173 ar
   180  182  174 1
   181  183  182 1
   182  184  182 1
   183  185  182 1
   184  186  181 1
   185  187  186 1
   186  188  186 1
   187  189  186 1
   188  190  172 1
   189  191  190 ar
   190  192  191 ar
   191  193  192 1
   192  194  192 ar
   193  195  194 1
   194  196  194 ar
   195  197  196 1
   196  198  190 ar
   197  199  191 1
   198  200  199 1
   199  201  199 1
   200  202  199 1
   201  203  198 1
   202  204  203 1
   203  205  203 1
   204  206  203 1
   205  207  147 1
   206  208  207 1
   207  209  207 1
   208  210  207 1
   209  211  210 ar
   210  212  211 ar
   211  213  212 1
   212  214  212 ar
   213  215  214 1
   214  216  214 ar
   215  217  216 1
   216  218  210 ar
   217  219  211 1
   218  220  219 ar
   219  221  220 ar
   220  222  221 1
   221  223  221 ar
   222  224  223 1
   223  225  223 ar
   224  226  225 1
   225  227  219 ar
   226  228  220 1
   227  229  228 1
   228  230  228 1
   229  231  228 1
   230  232  227 1
   231  233  232 1
   232  234  232 1
   233  235  232 1
   234  236  218 1
   235  237  236 ar
   236  238  237 ar
   237  239  238 1
   238  240  238 ar
   239  241  240 1
   240  242  240 ar
   241  243  242 1
   242  244  236 ar
   243  245  237 1
   244  246  245 1
   245  247  245 1
   246  248  245 1
   247  249  244 1
   248  250  249 1
   249  251  249 1
   250  252  249 1
   251   10   12 ar
   252   19   21 ar
   253   44   46 ar
   254   53   55 ar
   255   70   72 ar
   256   90   92 ar
   257   99  101 ar
   258  116  118 ar
   259  136  138 ar
   260  145  147 ar
   261  170  172 ar
   262  179  181 ar
   263  196  198 ar
   264  216  218 ar
   265  225  227 ar
   266  242  244 ar
@<TRIPOS>SUBSTRUCTURE
     1 RES1 1
     2 RES2 127
     3 SUP3 253

@<TRIPOS>CRYSIN
  13.9670   17.6610   20.0910  95.5410  99.1660  96.7270   2 1

