# MOL2 file generated by ConQuest
# Please check atom types

@<TRIPOS>MOLECULE
TUQGET
    44    46     2
SMALL
NO_CHARGES
****
Generated from CSD

@<TRIPOS>ATOM
      1 O1         4.4553    6.3844    0.8631 O.3       1 RES1    0.0000
      2 O2         5.1654    5.1602   -2.0621 O.3       1 RES1    0.0000
      3 O3         7.3129    6.6362    0.4797 O.3       1 RES1    0.0000
      4 H1         7.9789    6.8163   -0.0781 H         1 RES1    0.0000
      5 O4         2.6799    4.9587   -0.4901 O.3       1 RES1    0.0000
      6 O5         1.7175    4.3607    1.3604 O.2       1 RES1    0.0000
      7 O6         1.5907    6.4475    0.7694 O.2       1 RES1    0.0000
      8 N1         1.9331    5.3080    0.6502 N.pl3     1 RES1    0.0000
      9 C1         5.4152    5.3075    0.9438 C.3       1 RES1    0.0000
     10 H2         4.9896    4.4481    0.7401 H         1 RES1    0.0000
     11 H3         5.8098    5.2604    1.8394 H         1 RES1    0.0000
     12 C2         6.4583    5.6376   -0.0775 C.3       1 RES1    0.0000
     13 H4         6.9628    4.8351   -0.3645 H         1 RES1    0.0000
     14 C3         5.6146    6.2146   -1.2081 C.3       1 RES1    0.0000
     15 H5         6.0965    6.9198   -1.7086 H         1 RES1    0.0000
     16 C4         4.3526    6.7611   -0.5025 C.3       1 RES1    0.0000
     17 H6         4.3032    7.7464   -0.5904 H         1 RES1    0.0000
     18 C5         3.1760    6.0880   -1.2484 C.3       1 RES1    0.0000
     19 H7         2.4606    6.7303   -1.4834 H         1 RES1    0.0000
     20 C6         3.8396    5.4905   -2.4682 C.3       1 RES1    0.0000
     21 H8         3.3604    4.6886   -2.7637 H         1 RES1    0.0000
     22 H9         3.8557    6.1379   -3.2037 H         1 RES1    0.0000
     23 O7         0.5114   11.7394    2.0998 O.3       2 RES2    0.0000
     24 O8         2.1317   12.1251   -0.7238 O.3       2 RES2    0.0000
     25 O9         0.6990   14.6541    1.4131 O.3       2 RES2    0.0000
     26 H10        0.9285   15.3447    0.9178 H         2 RES2    0.0000
     27 O10        1.9791    9.7663    1.0232 O.3       2 RES2    0.0000
     28 O11        2.3019    8.7042    2.8815 O.2       2 RES2    0.0000
     29 O12        0.2835    8.7322    2.0627 O.2       2 RES2    0.0000
     30 N2         1.4531    9.0057    2.0751 N.pl3     2 RES2    0.0000
     31 C7         1.6381   12.6242    2.2710 C.3       2 RES2    0.0000
     32 H11        2.4781   12.1181    2.2599 H         2 RES2    0.0000
     33 H12        1.5719   13.1055    3.1224 H         2 RES2    0.0000
     34 C8         1.5853   13.5900    1.1104 C.3       2 RES2    0.0000
     35 H13        2.4876   13.9321    0.8917 H         2 RES2    0.0000
     36 C9         1.0444   12.7188   -0.0130 C.3       2 RES2    0.0000
     37 H14        0.4396   13.2218   -0.6144 H         2 RES2    0.0000
     38 C10        0.3131   11.5615    0.7043 C.3       2 RES2    0.0000
     39 H15       -0.6530   11.5782    0.4882 H         2 RES2    0.0000
     40 C11        0.9753   10.2877    0.1165 C.3       2 RES2    0.0000
     41 H16        0.3074    9.6018   -0.1360 H         2 RES2    0.0000
     42 C12        1.7359   10.8012   -1.0714 C.3       2 RES2    0.0000
     43 H17        2.5211   10.2404   -1.2478 H         2 RES2    0.0000
     44 H18        1.1674   10.8090   -1.8694 H         2 RES2    0.0000
@<TRIPOS>BOND
     1    1    9 1
     2    2   14 1
     3    3    4 1
     4    5    8 1
     5    6    8 2
     6    7    8 2
     7    9   10 1
     8   11    9 1
     9   12    3 1
    10   13   12 1
    11   14   12 1
    12   15   14 1
    13   16    1 1
    14   17   16 1
    15   18    5 1
    16   19   18 1
    17   20    2 1
    18   21   20 1
    19   22   20 1
    20   23   31 1
    21   24   36 1
    22   25   26 1
    23   27   30 1
    24   28   30 2
    25   29   30 2
    26   31   32 1
    27   33   31 1
    28   34   25 1
    29   35   34 1
    30   36   34 1
    31   37   36 1
    32   38   23 1
    33   39   38 1
    34   40   27 1
    35   41   40 1
    36   42   24 1
    37   43   42 1
    38   44   42 1
    39    9   12 1
    40   14   16 1
    41   16   18 1
    42   18   20 1
    43   31   34 1
    44   36   38 1
    45   38   40 1
    46   40   42 1
@<TRIPOS>SUBSTRUCTURE
     1 RES1 1
     2 RES2 23

@<TRIPOS>CRYSIN
  15.9260   15.9260    6.5090  90.0000  90.0000  90.0000  78 1

