# MOL2 file generated by ConQuest
# Please check atom types

@<TRIPOS>MOLECULE
TUQGOD
    66    69     3
SMALL
NO_CHARGES
****
Generated from CSD

@<TRIPOS>ATOM
      1 N1         8.1394   10.1538    2.4672 N.pl3     1 RES1    0.0000
      2 O1         9.1164    9.3291    0.0507 O.3       1 RES1    0.0000
      3 O2         7.4641    6.6389    0.1640 O.3       1 RES1    0.0000
      4 O3         9.7302    6.0319   -1.2316 O.3       1 RES1    0.0000
      5 H1         9.3302    5.6728   -2.0154 H         1 RES1    0.0000
      6 O4         7.7137    8.8381    2.2156 O.3       1 RES1    0.0000
      7 O5         7.6540   11.0453    1.8158 O.2       1 RES1    0.0000
      8 O6         8.9586   10.2158    3.3465 O.2       1 RES1    0.0000
      9 C1         9.9522    8.1612   -0.1087 C.3       1 RES1    0.0000
     10 H2         9.9742    7.6241    0.7225 H         1 RES1    0.0000
     11 H3        10.8778    8.4170   -0.3497 H         1 RES1    0.0000
     12 C2         9.2898    7.3889   -1.2402 C.3       1 RES1    0.0000
     13 H4         9.4962    7.8164   -2.1201 H         1 RES1    0.0000
     14 C3         7.8063    7.5717   -0.8964 C.3       1 RES1    0.0000
     15 H5         7.2073    7.4970   -1.6927 H         1 RES1    0.0000
     16 C4         7.7724    8.9430   -0.2490 C.3       1 RES1    0.0000
     17 H6         7.3476    9.6088   -0.8635 H         1 RES1    0.0000
     18 C5         6.8981    8.7475    1.0268 C.3       1 RES1    0.0000
     19 H7         6.1219    9.3768    1.0525 H         1 RES1    0.0000
     20 C6         6.4586    7.2999    0.9550 C.3       1 RES1    0.0000
     21 H8         6.4091    6.9027    1.8613 H         1 RES1    0.0000
     22 H9         5.5697    7.2253    0.5256 H         1 RES1    0.0000
     23 N2         4.8155   10.4319    4.6051 N.pl3     2 RES2    0.0000
     24 O7         4.0862   10.0712    2.0068 O.3       2 RES2    0.0000
     25 O8         1.5963   12.0829    2.4027 O.3       2 RES2    0.0000
     26 O9         0.6734   10.0140    0.9432 O.3       2 RES2    0.0000
     27 H10        0.4404   10.6464    0.2569 H         2 RES2    0.0000
     28 O10        3.5990   11.1184    4.3608 O.3       2 RES2    0.0000
     29 O11        5.8403   10.9038    4.1691 O.2       2 RES2    0.0000
     30 O12        4.6568    9.4324    5.2710 O.2       2 RES2    0.0000
     31 C7         2.8156    9.3959    1.8475 C.3       2 RES2    0.0000
     32 H11        2.3330    9.3355    2.7103 H         2 RES2    0.0000
     33 H12        2.9385    8.4838    1.4819 H         2 RES2    0.0000
     34 C8         2.0780   10.2762    0.8733 C.3       2 RES2    0.0000
     35 H13        2.4119   10.1141   -0.0553 H         2 RES2    0.0000
     36 C9         2.4523   11.6745    1.3271 C.3       2 RES2    0.0000
     37 H14        2.4532   12.3308    0.5723 H         2 RES2    0.0000
     38 C10        3.8449   11.4807    1.9337 C.3       2 RES2    0.0000
     39 H15        4.5421   11.9319    1.3765 H         2 RES2    0.0000
     40 C11        3.7477   12.1385    3.3346 C.3       2 RES2    0.0000
     41 H16        4.5091   12.7582    3.5197 H         2 RES2    0.0000
     42 C12        2.4220   12.8520    3.2885 C.3       2 RES2    0.0000
     43 H17        2.0192   12.8949    4.1915 H         2 RES2    0.0000
     44 H18        2.5357   13.7736    2.9474 H         2 RES2    0.0000
     45 N3        -5.9256   11.9701    4.2027 N.pl3     3 RES3    0.0000
     46 O13       -6.1210   13.1348    6.6653 O.3       3 RES3    0.0000
     47 O14       -9.2155   13.7148    6.2952 O.3       3 RES3    0.0000
     48 O15       -8.2696   15.7917    7.7712 O.3       3 RES3    0.0000
     49 H19       -8.7705   15.8266    8.5819 H         3 RES3    0.0000
     50 O16       -7.1880   12.5389    4.3634 O.3       3 RES3    0.0000
     51 O17       -5.6531   10.9674    4.7902 O.2       3 RES3    0.0000
     52 O18       -5.2623   12.5914    3.4216 O.2       3 RES3    0.0000
     53 C13       -6.4513   14.5268    6.7905 C.3       3 RES3    0.0000
     54 H20       -6.7687   14.8923    5.9270 H         3 RES3    0.0000
     55 H21       -5.6669   15.0496    7.0928 H         3 RES3    0.0000
     56 C14       -7.5485   14.5554    7.8232 C.3       3 RES3    0.0000
     57 H22       -7.1651   14.4187    8.7367 H         3 RES3    0.0000
     58 C15       -8.3669   13.3414    7.4129 C.3       3 RES3    0.0000
     59 H23       -8.8788   12.9410    8.1729 H         3 RES3    0.0000
     60 C16       -7.3357   12.3848    6.8221 C.3       3 RES3    0.0000
     61 H24       -7.1953   11.5982    7.4221 H         3 RES3    0.0000
     62 C17       -7.9458   11.9383    5.4508 C.3       3 RES3    0.0000
     63 H25       -7.9916   10.9436    5.3692 H         3 RES3    0.0000
     64 C18       -9.2990   12.5564    5.4383 C.3       3 RES3    0.0000
     65 H26       -9.5503   12.8234    4.5182 H         3 RES3    0.0000
     66 H27       -9.9751   11.9192    5.7801 H         3 RES3    0.0000
@<TRIPOS>BOND
     1    1    6 1
     2    2    9 1
     3    3   14 1
     4    4    5 1
     5    6   18 1
     6    7    1 2
     7    8    1 2
     8    9   10 1
     9   11    9 1
    10   12    4 1
    11   13   12 1
    12   14   12 1
    13   15   14 1
    14   16    2 1
    15   17   16 1
    16   18   16 1
    17   19   18 1
    18   20    3 1
    19   21   20 1
    20   22   20 1
    21   23   28 1
    22   24   31 1
    23   25   36 1
    24   26   27 1
    25   28   40 1
    26   29   23 2
    27   30   23 2
    28   31   32 1
    29   33   31 1
    30   34   26 1
    31   35   34 1
    32   36   34 1
    33   37   36 1
    34   38   24 1
    35   39   38 1
    36   40   38 1
    37   41   40 1
    38   42   25 1
    39   43   42 1
    40   44   42 1
    41   45   50 1
    42   46   53 1
    43   47   58 1
    44   48   49 1
    45   50   62 1
    46   51   45 2
    47   52   45 2
    48   53   54 1
    49   55   53 1
    50   56   48 1
    51   57   56 1
    52   58   56 1
    53   59   58 1
    54   60   46 1
    55   61   60 1
    56   62   60 1
    57   63   62 1
    58   64   47 1
    59   65   64 1
    60   66   64 1
    61    9   12 1
    62   14   16 1
    63   18   20 1
    64   31   34 1
    65   36   38 1
    66   40   42 1
    67   53   56 1
    68   58   60 1
    69   62   64 1
@<TRIPOS>SUBSTRUCTURE
     1 RES1 1
     2 RES2 23
     3 RES3 45

@<TRIPOS>CRYSIN
  18.3484   18.3484    6.5863  90.0000  90.0000 120.0000 145 1

