# MOL2 file generated by ConQuest
# Please check atom types

@<TRIPOS>MOLECULE
TUQJOG
    50    53     1
SMALL
NO_CHARGES
****
Generated from CSD

@<TRIPOS>ATOM
      1 O1         1.0816    8.1382    1.6192 O.3       1 RES1    0.0000
      2 N1        -0.8048    7.4455    2.6921 N.2       1 RES1    0.0000
      3 N2         1.3449    8.3779    3.0437 N.3       1 RES1    0.0000
      4 C1         1.6962   12.0309    2.2312 C.ar      1 RES1    0.0000
      5 H1         0.8568   12.3384    2.4889 H         1 RES1    0.0000
      6 C2        -1.4270    8.5736    5.2180 C.ar      1 RES1    0.0000
      7 H2        -2.0565    8.5320    4.5356 H         1 RES1    0.0000
      8 C3         3.2951   10.2467    2.0406 C.ar      1 RES1    0.0000
      9 H3         3.5421    9.3620    2.1841 H         1 RES1    0.0000
     10 C4         2.0445   10.6961    2.4641 C.ar      1 RES1    0.0000
     11 N3        -0.7636    7.6630    0.3417 N.3       1 RES1    0.0000
     12 C5         2.1302    5.7059    3.5098 C.ar      1 RES1    0.0000
     13 H4         2.7243    6.3356    3.1699 H         1 RES1    0.0000
     14 C6         0.2890    7.5007    3.6787 C.3       1 RES1    0.0000
     15 C7         3.8282   12.4434    1.2044 C.ar      1 RES1    0.0000
     16 H5         4.4262   13.0239    0.7922 H         1 RES1    0.0000
     17 C8         1.0882    9.8190    3.2318 C.3       1 RES1    0.0000
     18 H6         1.1554   10.0305    4.1757 H         1 RES1    0.0000
     19 H7         0.1819   10.0178    2.9475 H         1 RES1    0.0000
     20 C9        -1.7616    9.1397    6.4424 C.ar      1 RES1    0.0000
     21 H8        -2.6195    9.4736    6.5772 H         1 RES1    0.0000
     22 C10       -0.8286    9.2112    7.4612 C.ar      1 RES1    0.0000
     23 H9        -1.0522    9.6095    8.2715 H         1 RES1    0.0000
     24 C11        0.8399    6.0817    3.8677 C.ar      1 RES1    0.0000
     25 C12        2.5893   12.9034    1.6189 C.ar      1 RES1    0.0000
     26 H10        2.3554   13.7940    1.4881 H         1 RES1    0.0000
     27 C13        4.1740   11.1171    1.4047 C.ar      1 RES1    0.0000
     28 H11        5.0007   10.8059    1.1120 H         1 RES1    0.0000
     29 C14       -0.1469    8.0690    5.0180 C.ar      1 RES1    0.0000
     30 C15        0.3817    3.8164    4.5751 C.ar      1 RES1    0.0000
     31 H12       -0.2016    3.1915    4.9417 H         1 RES1    0.0000
     32 C16       -0.2419    7.7351    1.5756 C.2       1 RES1    0.0000
     33 C17        2.5288    4.3750    3.6647 C.ar      1 RES1    0.0000
     34 H13        3.3867    4.1194    3.4123 H         1 RES1    0.0000
     35 C18        0.7781    8.1061    6.0612 C.ar      1 RES1    0.0000
     36 H14        1.6242    7.7384    5.9425 H         1 RES1    0.0000
     37 C19        0.4437    8.6861    7.2716 C.ar      1 RES1    0.0000
     38 H15        1.0700    8.7242    7.9579 H         1 RES1    0.0000
     39 C20       -2.1095    7.1359    0.1709 C.3       1 RES1    0.0000
     40 H16       -2.3815    6.6851    0.9746 H         1 RES1    0.0000
     41 H17       -2.1198    6.5162   -0.5623 H         1 RES1    0.0000
     42 H18       -2.7156    7.8575   -0.0112 H         1 RES1    0.0000
     43 C21       -0.0204    5.1311    4.4116 C.ar      1 RES1    0.0000
     44 H19       -0.8779    5.3826    4.6693 H         1 RES1    0.0000
     45 C22        1.6608    3.4354    4.1882 C.ar      1 RES1    0.0000
     46 H20        1.9322    2.5502    4.2819 H         1 RES1    0.0000
     47 C23       -0.0933    8.1416   -0.8524 C.3       1 RES1    0.0000
     48 H21       -0.6155    8.8401   -1.2545 H         1 RES1    0.0000
     49 H22        0.0065    7.4175   -1.4756 H         1 RES1    0.0000
     50 H23        0.7720    8.4846   -0.6185 H         1 RES1    0.0000
@<TRIPOS>BOND
     1    1    3 1
     2    2   14 1
     3    3   14 1
     4    4    5 1
     5    6    7 1
     6    8    9 1
     7   10    4 ar
     8   11   32 1
     9   12   13 1
    10   14   24 1
    11   15   16 1
    12   17    3 1
    13   18   17 1
    14   19   17 1
    15   20    6 ar
    16   21   20 1
    17   22   20 ar
    18   23   22 1
    19   24   12 ar
    20   25    4 ar
    21   26   25 1
    22   27    8 ar
    23   28   27 1
    24   29    6 ar
    25   30   31 1
    26   32    1 1
    27   33   12 ar
    28   34   33 1
    29   35   29 ar
    30   36   35 1
    31   37   22 ar
    32   38   37 1
    33   39   11 1
    34   40   39 1
    35   41   39 1
    36   42   39 1
    37   43   24 ar
    38   44   43 1
    39   45   30 ar
    40   46   45 1
    41   47   11 1
    42   48   47 1
    43   49   47 1
    44   50   47 1
    45    2   32 2
    46    8   10 ar
    47   10   17 1
    48   14   29 1
    49   15   25 ar
    50   15   27 ar
    51   30   43 ar
    52   33   45 ar
    53   35   37 ar
@<TRIPOS>SUBSTRUCTURE
     1 RES1 1

@<TRIPOS>CRYSIN
   6.1591   12.0853   12.7889 101.6370  93.3800  92.8870   2 1

