# MOL2 file generated by ConQuest
# Please check atom types

@<TRIPOS>MOLECULE
TUQJUM
   108   116     2
SMALL
NO_CHARGES
****
Generated from CSD

@<TRIPOS>ATOM
      1 O1         9.1482    1.4577   19.3782 O.3       1 RES1    0.0000
      2 N1        10.8746    2.4215   18.2332 N.pl3     1 RES1    0.0000
      3 N2        11.1992    0.5319   19.6809 N.2       1 RES1    0.0000
      4 N3         8.8904    0.1784   20.0469 N.3       1 RES1    0.0000
      5 C1        10.3828    0.5983   21.9830 C.ar      1 RES1    0.0000
      6 C2        10.5057    1.4327   19.1035 C.2       1 RES1    0.0000
      7 C3        10.2494   -0.1009   20.6207 C.3       1 RES1    0.0000
      8 C4        13.3032    2.2198   18.6249 C.ar      1 RES1    0.0000
      9 H1        13.1536    1.5939   19.2971 H         1 RES1    0.0000
     10 C5        11.6311   -2.1948   20.3137 C.ar      1 RES1    0.0000
     11 H2        12.2374   -1.7000   19.8123 H         1 RES1    0.0000
     12 C6         9.8090    3.0560   17.4840 C.ar      1 RES1    0.0000
     13 C7        12.2273    2.7698   17.9477 C.ar      1 RES1    0.0000
     14 C8         8.4980   -0.7267   18.9558 C.3       1 RES1    0.0000
     15 H3         7.7252   -0.3724   18.5093 H         1 RES1    0.0000
     16 H4         8.2890   -1.5913   19.3162 H         1 RES1    0.0000
     17 H5         9.2212   -0.8069   18.3305 H         1 RES1    0.0000
     18 C9        11.7786    1.2345   23.8422 C.ar      1 RES1    0.0000
     19 H6        12.6210    1.2681   24.2384 H         1 RES1    0.0000
     20 C10       11.6266    0.6405   22.5929 C.ar      1 RES1    0.0000
     21 H7        12.3642    0.2707   22.1648 H         1 RES1    0.0000
     22 C11        7.7850    4.2258   16.0001 C.ar      1 RES1    0.0000
     23 H8         7.1101    4.6223   15.4990 H         1 RES1    0.0000
     24 C12       10.4860   -1.5922   20.8089 C.ar      1 RES1    0.0000
     25 C13       10.6870    1.7741   24.4971 C.ar      1 RES1    0.0000
     26 H9        10.7868    2.1586   25.3391 H         1 RES1    0.0000
     27 C14       11.8742   -3.5499   20.5696 C.ar      1 RES1    0.0000
     28 H10       12.6507   -3.9491   20.2530 H         1 RES1    0.0000
     29 C15        8.1619    4.7783   17.2149 C.ar      1 RES1    0.0000
     30 H11        7.7265    5.5352   17.5343 H         1 RES1    0.0000
     31 C16       14.8550    3.5473   17.3256 C.ar      1 RES1    0.0000
     32 H12       15.7249    3.8025   17.1234 H         1 RES1    0.0000
     33 C17       10.9616   -4.2965   21.2915 C.ar      1 RES1    0.0000
     34 H13       11.1218   -5.1982   21.4516 H         1 RES1    0.0000
     35 C18        9.2947    1.1560   22.6342 C.ar      1 RES1    0.0000
     36 H14        8.4585    1.1414   22.2287 H         1 RES1    0.0000
     37 C19        9.4415    1.7370   23.8878 C.ar      1 RES1    0.0000
     38 H15        8.7030    2.1025   24.3193 H         1 RES1    0.0000
     39 C20        9.5801   -2.3431   21.5583 C.ar      1 RES1    0.0000
     40 H16        8.8193   -1.9405   21.9115 H         1 RES1    0.0000
     41 C21        9.4290    2.4999   16.2752 C.ar      1 RES1    0.0000
     42 H17        9.8522    1.7353   15.9588 H         1 RES1    0.0000
     43 C22        9.1895    4.2085   17.9590 C.ar      1 RES1    0.0000
     44 H18        9.4592    4.5921   18.7627 H         1 RES1    0.0000
     45 C23       13.7813    4.1008   16.6614 C.ar      1 RES1    0.0000
     46 H19       13.9339    4.7352   15.9993 H         1 RES1    0.0000
     47 C24        8.4083    3.0922   15.5356 C.ar      1 RES1    0.0000
     48 H20        8.1477    2.7189   14.7240 H         1 RES1    0.0000
     49 C25        9.8192   -3.7016   21.7731 C.ar      1 RES1    0.0000
     50 H21        9.1991   -4.2085   22.2478 H         1 RES1    0.0000
     51 C26       12.4775    3.7310   16.9599 C.ar      1 RES1    0.0000
     52 H22       11.7676    4.1215   16.5038 H         1 RES1    0.0000
     53 C27       14.6007    2.5948   18.3114 C.ar      1 RES1    0.0000
     54 H23       15.3126    2.2043   18.7627 H         1 RES1    0.0000
     55 O2        18.4418    1.2957    5.8496 O.3       2 RES2    0.0000
     56 N4        17.8235    0.4267    7.8555 N.2       2 RES2    0.0000
     57 N5        16.6635    2.2844    6.8928 N.pl3     2 RES2    0.0000
     58 N6        19.1730    0.0181    5.9537 N.3       2 RES2    0.0000
     59 C28       17.6068    1.2922    6.9426 C.2       2 RES2    0.0000
     60 C29       19.0862   -0.2103    7.4357 C.3       2 RES2    0.0000
     61 C30       19.1312   -1.6913    7.7870 C.ar      2 RES2    0.0000
     62 C31       16.4570    2.9379    5.6058 C.ar      2 RES2    0.0000
     63 C32       20.2443    0.5129    8.1244 C.ar      2 RES2    0.0000
     64 C33       21.3208    1.0439    7.4259 C.ar      2 RES2    0.0000
     65 H24       21.3434    0.9845    6.4976 H         2 RES2    0.0000
     66 C34       15.8555    2.6939    7.9994 C.ar      2 RES2    0.0000
     67 C35       15.9479    2.1094    9.2525 C.ar      2 RES2    0.0000
     68 H25       16.5404    1.4069    9.3931 H         2 RES2    0.0000
     69 C36       20.2071   -2.4706    7.3512 C.ar      2 RES2    0.0000
     70 H26       20.8774   -2.0887    6.8340 H         2 RES2    0.0000
     71 C37       22.3395    1.7698    9.4782 C.ar      2 RES2    0.0000
     72 H27       23.0364    2.1896    9.9274 H         2 RES2    0.0000
     73 C38       18.1463   -2.2698    8.5832 C.ar      2 RES2    0.0000
     74 H28       17.4305   -1.7577    8.8800 H         2 RES2    0.0000
     75 C39       18.2327   -3.6180    8.9360 C.ar      2 RES2    0.0000
     76 H29       17.5769   -4.0008    9.4697 H         2 RES2    0.0000
     77 C40       19.2955   -4.3878    8.4936 C.ar      2 RES2    0.0000
     78 H30       19.3534   -5.2844    8.7331 H         2 RES2    0.0000
     79 C41       21.2600    1.2414   10.1880 C.ar      2 RES2    0.0000
     80 H31       21.2388    1.3060   11.1154 H         2 RES2    0.0000
     81 C42       20.2731   -3.8215    7.6935 C.ar      2 RES2    0.0000
     82 H32       20.9754   -4.3439    7.3833 H         2 RES2    0.0000
     83 C43       17.2678    3.9861    5.2205 C.ar      2 RES2    0.0000
     84 H33       17.9588    4.2775    5.7695 H         2 RES2    0.0000
     85 C44       20.2216    0.6241    9.5210 C.ar      2 RES2    0.0000
     86 H34       19.5028    0.2802   10.0019 H         2 RES2    0.0000
     87 C45       18.3756   -0.9164    5.1436 C.3       2 RES2    0.0000
     88 H35       17.5109   -1.0284    5.5439 H         2 RES2    0.0000
     89 H36       18.8212   -1.7655    5.1032 H         2 RES2    0.0000
     90 H37       18.2756   -0.5646    4.2558 H         2 RES2    0.0000
     91 C46       22.3602    1.6629    8.1018 C.ar      2 RES2    0.0000
     92 H38       23.0805    2.0094    7.6239 H         2 RES2    0.0000
     93 C47       15.4056    2.5241    4.8179 C.ar      2 RES2    0.0000
     94 H39       14.8561    1.8284    5.0946 H         2 RES2    0.0000
     95 C48       15.9836    4.1913    3.1830 C.ar      2 RES2    0.0000
     96 H40       15.8306    4.6111    2.3674 H         2 RES2    0.0000
     97 C49       15.1773    3.1646    3.5916 C.ar      2 RES2    0.0000
     98 H41       14.4701    2.8896    3.0530 H         2 RES2    0.0000
     99 C50       15.1603    2.5672   10.2962 C.ar      2 RES2    0.0000
    100 H42       15.2375    2.1681   11.1324 H         2 RES2    0.0000
    101 C51       17.0258    4.5999    3.9889 C.ar      2 RES2    0.0000
    102 H43       17.5768    5.2938    3.7087 H         2 RES2    0.0000
    103 C52       14.9673    3.7404    7.8197 C.ar      2 RES2    0.0000
    104 H44       14.8881    4.1396    6.9831 H         2 RES2    0.0000
    105 C53       14.2793    3.5939   10.1190 C.ar      2 RES2    0.0000
    106 H45       13.7408    3.8809   10.8216 H         2 RES2    0.0000
    107 C54       14.1933    4.1999    8.8778 C.ar      2 RES2    0.0000
    108 H46       13.6187    4.9189    8.7501 H         2 RES2    0.0000
@<TRIPOS>BOND
     1    1    4 1
     2    2    6 1
     3    3    6 2
     4    4    7 1
     5    5    7 1
     6    6    1 1
     7    7    3 1
     8    8    9 1
     9   10   11 1
    10   12    2 1
    11   13    2 1
    12   14    4 1
    13   15   14 1
    14   16   14 1
    15   17   14 1
    16   18   19 1
    17   20    5 ar
    18   21   20 1
    19   22   23 1
    20   24    7 1
    21   25   18 ar
    22   26   25 1
    23   27   10 ar
    24   28   27 1
    25   29   22 ar
    26   30   29 1
    27   31   32 1
    28   33   27 ar
    29   34   33 1
    30   35    5 ar
    31   36   35 1
    32   37   25 ar
    33   38   37 1
    34   39   24 ar
    35   40   39 1
    36   41   12 ar
    37   42   41 1
    38   43   12 ar
    39   44   43 1
    40   45   31 ar
    41   46   45 1
    42   47   22 ar
    43   48   47 1
    44   49   33 ar
    45   50   49 1
    46   51   13 ar
    47   52   51 1
    48   53    8 ar
    49   54   53 1
    50   55   58 1
    51   56   59 2
    52   57   59 1
    53   58   60 1
    54   59   55 1
    55   60   56 1
    56   61   60 1
    57   62   57 1
    58   63   60 1
    59   64   63 ar
    60   65   64 1
    61   66   57 1
    62   67   66 ar
    63   68   67 1
    64   69   61 ar
    65   70   69 1
    66   71   72 1
    67   73   61 ar
    68   74   73 1
    69   75   73 ar
    70   76   75 1
    71   77   75 ar
    72   78   77 1
    73   79   71 ar
    74   80   79 1
    75   81   69 ar
    76   82   81 1
    77   83   62 ar
    78   84   83 1
    79   85   63 ar
    80   86   85 1
    81   87   58 1
    82   88   87 1
    83   89   87 1
    84   90   87 1
    85   91   64 ar
    86   92   91 1
    87   93   62 ar
    88   94   93 1
    89   95   96 1
    90   97   93 ar
    91   98   97 1
    92   99   67 ar
    93  100   99 1
    94  101   83 ar
    95  102  101 1
    96  103   66 ar
    97  104  103 1
    98  105   99 ar
    99  106  105 1
   100  107  103 ar
   101  108  107 1
   102    8   13 ar
   103   10   24 ar
   104   18   20 ar
   105   29   43 ar
   106   31   53 ar
   107   35   37 ar
   108   39   49 ar
   109   41   47 ar
   110   45   51 ar
   111   71   91 ar
   112   77   81 ar
   113   79   85 ar
   114   95   97 ar
   115   95  101 ar
   116  105  107 ar
@<TRIPOS>SUBSTRUCTURE
     1 RES1 1
     2 RES2 55

@<TRIPOS>CRYSIN
  22.9818    8.6205   23.3388  90.0000 114.1880  90.0000 231 1

