# MOL2 file generated by ConQuest
# Please check atom types

@<TRIPOS>MOLECULE
TUQJAS
    46    48     1
SMALL
NO_CHARGES
****
Generated from CSD

@<TRIPOS>ATOM
      1 O1         2.9338    9.1372    8.9373 O.3       1 RES1    0.0000
      2 N1         4.9871    8.3514    8.3364 N.2       1 RES1    0.0000
      3 N2         3.5297    8.6264   10.1862 N.3       1 RES1    0.0000
      4 N3         3.3872    8.9095    6.6948 N.3       1 RES1    0.0000
      5 C1         4.9796    8.5909    9.7913 C.3       1 RES1    0.0000
      6 C2         3.8410    8.7574    7.9519 C.2       1 RES1    0.0000
      7 C3         1.9899    9.2226    6.4112 C.3       1 RES1    0.0000
      8 H1         1.9270    9.6409    5.5381 H         1 RES1    0.0000
      9 H2         1.6636    9.8552    7.0695 H         1 RES1    0.0000
     10 C4         4.3201    8.6864    5.5930 C.3       1 RES1    0.0000
     11 H3         3.8263    8.3920    4.8120 H         1 RES1    0.0000
     12 H4         4.9386    7.9800    5.8377 H         1 RES1    0.0000
     13 C5         5.7250    7.5230   10.5755 C.ar      1 RES1    0.0000
     14 C6         5.6027    9.9693   10.0578 C.ar      1 RES1    0.0000
     15 C7         5.0999    9.9292    5.2470 C.3       1 RES1    0.0000
     16 H5         5.7368    9.7262    4.5585 H         1 RES1    0.0000
     17 H6         5.5621   10.2447    6.0272 H         1 RES1    0.0000
     18 H7         4.4972   10.6086    4.9362 H         1 RES1    0.0000
     19 C8         1.1155    7.9798    6.4348 C.3       1 RES1    0.0000
     20 H8         1.4288    7.3554    5.7762 H         1 RES1    0.0000
     21 H9         0.2081    8.2229    6.2385 H         1 RES1    0.0000
     22 H10        1.1570    7.5755    7.3051 H         1 RES1    0.0000
     23 C9         2.9109    7.3110   10.3596 C.3       1 RES1    0.0000
     24 H11        1.9593    7.4131   10.4385 H         1 RES1    0.0000
     25 H12        3.2548    6.8973   11.1542 H         1 RES1    0.0000
     26 H13        3.1119    6.7596    9.5997 H         1 RES1    0.0000
     27 C10        6.1720    6.3585    9.9643 C.ar      1 RES1    0.0000
     28 H14        6.0376    6.2295    9.0530 H         1 RES1    0.0000
     29 C11        6.8175    5.3920   10.7112 C.ar      1 RES1    0.0000
     30 H15        7.1207    4.6173   10.2963 H         1 RES1    0.0000
     31 C12        7.0179    5.5648   12.0709 C.ar      1 RES1    0.0000
     32 H16        7.4376    4.9010   12.5692 H         1 RES1    0.0000
     33 C13        6.5906    6.7280   12.6831 C.ar      1 RES1    0.0000
     34 H17        6.7307    6.8530   13.5935 H         1 RES1    0.0000
     35 C14        5.9535    7.7038   11.9397 C.ar      1 RES1    0.0000
     36 H18        5.6733    8.4882   12.3528 H         1 RES1    0.0000
     37 C15        6.8849   10.2099    9.5726 C.ar      1 RES1    0.0000
     38 H19        7.3334    9.5436    9.1042 H         1 RES1    0.0000
     39 C16        7.5005   11.4353    9.7812 C.ar      1 RES1    0.0000
     40 H20        8.3559   11.5866    9.4499 H         1 RES1    0.0000
     41 C17        6.8453   12.4320   10.4792 C.ar      1 RES1    0.0000
     42 H21        7.2529   13.2579   10.6100 H         1 RES1    0.0000
     43 C18        5.5865   12.1925   10.9792 C.ar      1 RES1    0.0000
     44 H22        5.1472   12.8607   11.4539 H         1 RES1    0.0000
     45 C19        4.9600   10.9598   10.7833 C.ar      1 RES1    0.0000
     46 H23        4.1142   10.8036   11.1389 H         1 RES1    0.0000
@<TRIPOS>BOND
     1    1    3 1
     2    2    5 1
     3    3    5 1
     4    4    6 1
     5    5   13 1
     6    6    1 1
     7    7    4 1
     8    8    7 1
     9    9    7 1
    10   10    4 1
    11   11   10 1
    12   12   10 1
    13   13   27 ar
    14   14    5 1
    15   15   10 1
    16   16   15 1
    17   17   15 1
    18   18   15 1
    19   19    7 1
    20   20   19 1
    21   21   19 1
    22   22   19 1
    23   23    3 1
    24   24   23 1
    25   25   23 1
    26   26   23 1
    27   27   28 1
    28   29   27 ar
    29   30   29 1
    30   31   29 ar
    31   32   31 1
    32   33   31 ar
    33   34   33 1
    34   35   13 ar
    35   36   35 1
    36   37   14 ar
    37   38   37 1
    38   39   37 ar
    39   40   39 1
    40   41   39 ar
    41   42   41 1
    42   43   41 ar
    43   44   43 1
    44   45   14 ar
    45   46   45 1
    46    2    6 2
    47   33   35 ar
    48   43   45 ar
@<TRIPOS>SUBSTRUCTURE
     1 RES1 1

@<TRIPOS>CRYSIN
   7.1360    9.7606   13.6208  70.9760  78.6530  71.7910   2 1

