# MOL2 file generated by ConQuest
# Please check atom types

@<TRIPOS>MOLECULE
TUQKAT
    40    42     1
SMALL
NO_CHARGES
****
Generated from CSD

@<TRIPOS>ATOM
      1 O1         2.6324    4.5997    0.6972 O.3       1 RES1    0.0000
      2 N1         2.4430    2.6511    1.8406 N.2       1 RES1    0.0000
      3 N2         3.3840    4.8182    1.9402 N.3       1 RES1    0.0000
      4 N3         1.7629    2.7897   -0.4083 N.3       1 RES1    0.0000
      5 C1         2.8409    3.7005    2.7861 C.3       1 RES1    0.0000
      6 C2         2.2785    3.2695    0.7333 C.2       1 RES1    0.0000
      7 C3         4.4625    1.9760    3.6846 C.ar      1 RES1    0.0000
      8 H1         4.2165    1.4016    2.9960 H         1 RES1    0.0000
      9 C4         1.6864    3.5699   -1.6240 C.3       1 RES1    0.0000
     10 H2         2.1363    3.1041   -2.3319 H         1 RES1    0.0000
     11 H3         2.1064    4.4220   -1.4837 H         1 RES1    0.0000
     12 H4         0.7658    3.7023   -1.8624 H         1 RES1    0.0000
     13 C5         1.2775    1.4290   -0.4355 C.3       1 RES1    0.0000
     14 H5         1.4663    1.0048    0.4046 H         1 RES1    0.0000
     15 H6         1.7138    0.9474   -1.1413 H         1 RES1    0.0000
     16 H7         0.3296    1.4303   -0.5862 H         1 RES1    0.0000
     17 C6         3.8800    3.2213    3.7897 C.ar      1 RES1    0.0000
     18 C7         1.5800    4.1913    3.5054 C.ar      1 RES1    0.0000
     19 C8         5.4195    1.5823    4.6130 C.ar      1 RES1    0.0000
     20 H8         5.8142    0.7435    4.5393 H         1 RES1    0.0000
     21 C9         5.7872    2.4143    5.6360 C.ar      1 RES1    0.0000
     22 H9         6.4329    2.1451    6.2487 H         1 RES1    0.0000
     23 C10        4.7872    4.6375    1.5416 C.3       1 RES1    0.0000
     24 H10        5.3569    4.7889    2.2982 H         1 RES1    0.0000
     25 H11        5.0057    5.2632    0.8482 H         1 RES1    0.0000
     26 H12        4.9152    3.7432    1.2191 H         1 RES1    0.0000
     27 C11        5.1998    3.6455    5.7525 C.ar      1 RES1    0.0000
     28 H13        5.4435    4.2102    6.4510 H         1 RES1    0.0000
     29 C12        4.2446    4.0545    4.8366 C.ar      1 RES1    0.0000
     30 H14        3.8468    4.8908    4.9232 H         1 RES1    0.0000
     31 C13        0.8824    3.2726    4.2807 C.ar      1 RES1    0.0000
     32 H15        1.2238    2.4149    4.3941 H         1 RES1    0.0000
     33 C14       -0.3129    3.6169    4.8848 C.ar      1 RES1    0.0000
     34 H16       -0.7727    2.9912    5.3979 H         1 RES1    0.0000
     35 C15       -0.8224    4.8878    4.7276 C.ar      1 RES1    0.0000
     36 H17       -1.6324    5.1198    5.1230 H         1 RES1    0.0000
     37 C16       -0.1281    5.8083    3.9850 C.ar      1 RES1    0.0000
     38 H18       -0.4677    6.6684    3.8883 H         1 RES1    0.0000
     39 C17        1.0749    5.4744    3.3770 C.ar      1 RES1    0.0000
     40 H19        1.5403    6.1111    2.8844 H         1 RES1    0.0000
@<TRIPOS>BOND
     1    1    3 1
     2    2    5 1
     3    3    5 1
     4    4    6 1
     5    5   17 1
     6    6    1 1
     7    7    8 1
     8    9    4 1
     9   10    9 1
    10   11    9 1
    11   12    9 1
    12   13    4 1
    13   14   13 1
    14   15   13 1
    15   16   13 1
    16   17    7 ar
    17   18    5 1
    18   19    7 ar
    19   20   19 1
    20   21   19 ar
    21   22   21 1
    22   23    3 1
    23   24   23 1
    24   25   23 1
    25   26   23 1
    26   27   21 ar
    27   28   27 1
    28   29   17 ar
    29   30   29 1
    30   31   18 ar
    31   32   31 1
    32   33   31 ar
    33   34   33 1
    34   35   33 ar
    35   36   35 1
    36   37   35 ar
    37   38   37 1
    38   39   18 ar
    39   40   39 1
    40    2    6 2
    41   27   29 ar
    42   37   39 ar
@<TRIPOS>SUBSTRUCTURE
     1 RES1 1

@<TRIPOS>CRYSIN
   9.5535    6.1044   26.1423  90.0000  97.1500  90.0000  14 1

