# MOL2 file generated by ConQuest
# Please check atom types

@<TRIPOS>MOLECULE
TUQXOU
    43    45     1
SMALL
NO_CHARGES
****
Generated from CSD

@<TRIPOS>ATOM
      1 O1        -0.9405   -0.9667    9.5622 O.2       1 RES1    0.0000
      2 O2        -1.3558   -0.3916    7.5141 O.2       1 RES1    0.0000
      3 O3         5.4282    5.2773    8.3055 O.3       1 RES1    0.0000
      4 O4         5.6100    1.0932   12.1632 O.2       1 RES1    0.0000
      5 O5         6.4977    3.0396   11.5122 O.3       1 RES1    0.0000
      6 N1        -0.7273   -0.2810    8.5620 N.pl3     1 RES1    0.0000
      7 C1         4.4896    2.3483   10.4636 C.ar      1 RES1    0.0000
      8 C2         3.4546    1.4432   10.4719 C.ar      1 RES1    0.0000
      9 H1         3.4581    0.7421   11.1127 H         1 RES1    0.0000
     10 C3         2.3844    1.5297    9.5510 C.ar      1 RES1    0.0000
     11 C4         1.3334    0.5803    9.5398 C.ar      1 RES1    0.0000
     12 H2         1.3155   -0.1351   10.1659 H         1 RES1    0.0000
     13 C5         0.3473    0.7197    8.6074 C.ar      1 RES1    0.0000
     14 C6         0.3159    1.7637    7.6584 C.ar      1 RES1    0.0000
     15 H3        -0.3905    1.8228    7.0254 H         1 RES1    0.0000
     16 C7         1.3204    2.6869    7.6667 C.ar      1 RES1    0.0000
     17 H4         1.3096    3.3995    7.0376 H         1 RES1    0.0000
     18 C8         2.3805    2.5917    8.6049 C.ar      1 RES1    0.0000
     19 C9         3.4528    3.5198    8.6232 C.ar      1 RES1    0.0000
     20 H5         3.4451    4.2389    8.0039 H         1 RES1    0.0000
     21 C10        4.4993    3.4186    9.5024 C.ar      1 RES1    0.0000
     22 C11        5.6479    4.3937    9.4090 C.3       1 RES1    0.0000
     23 H6         5.7154    4.9149   10.2489 H         1 RES1    0.0000
     24 H7         6.4971    3.9010    9.2801 H         1 RES1    0.0000
     25 C12        6.3999    6.2247    8.0925 C.ar      1 RES1    0.0000
     26 C13        7.5737    6.3335    8.8289 C.ar      1 RES1    0.0000
     27 H8         7.7540    5.7281    9.5388 H         1 RES1    0.0000
     28 C14        8.4837    7.3447    8.5127 C.ar      1 RES1    0.0000
     29 H9         9.2850    7.4257    9.0166 H         1 RES1    0.0000
     30 C15        8.2399    8.2301    7.4780 C.ar      1 RES1    0.0000
     31 H10        8.8691    8.9105    7.2669 H         1 RES1    0.0000
     32 C16        7.0638    8.1098    6.7523 C.ar      1 RES1    0.0000
     33 H11        6.8868    8.7152    6.0420 H         1 RES1    0.0000
     34 C17        6.1437    7.1167    7.0500 C.ar      1 RES1    0.0000
     35 H12        5.3420    7.0434    6.5471 H         1 RES1    0.0000
     36 C18        5.5670    2.0826   11.4673 C.2       1 RES1    0.0000
     37 C19        7.6237    2.7952   12.3941 C.3       1 RES1    0.0000
     38 H13        8.0843    1.9562   12.1425 H         1 RES1    0.0000
     39 H14        7.3169    2.7175   13.3333 H         1 RES1    0.0000
     40 C20        8.5557    3.9742   12.2411 C.3       1 RES1    0.0000
     41 H15        8.9151    3.9901   11.3299 H         1 RES1    0.0000
     42 H16        9.2930    3.8928   12.8819 H         1 RES1    0.0000
     43 H17        8.0632    4.8039   12.4133 H         1 RES1    0.0000
@<TRIPOS>BOND
     1    1    6 2
     2    2    6 2
     3    3   22 1
     4    4   36 2
     5    5   36 1
     6    6   13 1
     7    7    8 ar
     8    8    9 1
     9   10    8 ar
    10   11   10 ar
    11   12   11 1
    12   13   11 ar
    13   14   13 ar
    14   15   14 1
    15   16   14 ar
    16   17   16 1
    17   18   10 ar
    18   19   18 ar
    19   20   19 1
    20   21    7 ar
    21   22   21 1
    22   23   22 1
    23   24   22 1
    24   25    3 1
    25   26   25 ar
    26   27   26 1
    27   28   26 ar
    28   29   28 1
    29   30   28 ar
    30   31   30 1
    31   32   30 ar
    32   33   32 1
    33   34   25 ar
    34   35   34 1
    35   36    7 1
    36   37    5 1
    37   38   37 1
    38   39   37 1
    39   40   37 1
    40   41   40 1
    41   42   40 1
    42   43   40 1
    43   16   18 ar
    44   19   21 ar
    45   32   34 ar
@<TRIPOS>SUBSTRUCTURE
     1 RES1 1

@<TRIPOS>CRYSIN
  12.0823    5.4689   24.7977  90.0000 100.2480  90.0000  14 1

