# MOL2 file generated by ConQuest
# Please check atom types

@<TRIPOS>MOLECULE
TURDAN
    99   103     1
SMALL
NO_CHARGES
****
Generated from CSD

@<TRIPOS>ATOM
      1 C1        10.6759    0.2455   16.4949 C.3       1 RES1    0.0000
      2 H1        10.7994    0.4769   17.4180 H         1 RES1    0.0000
      3 H2        11.4223    0.5627   15.9837 H         1 RES1    0.0000
      4 H3        10.6118   -0.7083   16.4097 H         1 RES1    0.0000
      5 C2         8.2212    0.4814   16.8459 C.3       1 RES1    0.0000
      6 H4         7.4339    0.9486   16.5558 H         1 RES1    0.0000
      7 H5         8.4050    0.7053   17.7628 H         1 RES1    0.0000
      8 H6         8.0773   -0.4650   16.7708 H         1 RES1    0.0000
      9 C3         9.4005    0.8859   15.9790 C.3       1 RES1    0.0000
     10 H7         9.5044    1.8584   16.0466 H         1 RES1    0.0000
     11 C4         9.1950    0.5374   14.4979 C.3       1 RES1    0.0000
     12 H8        10.0193    0.7195   14.0220 H         1 RES1    0.0000
     13 H9         9.0218   -0.4142   14.4277 H         1 RES1    0.0000
     14 C5         8.0691    1.2830   13.8112 C.3       1 RES1    0.0000
     15 H10        8.1943    2.2360   13.9388 H         1 RES1    0.0000
     16 H11        7.2266    1.0359   14.2228 H         1 RES1    0.0000
     17 C6         8.0027    0.9799   12.3080 C.3       1 RES1    0.0000
     18 H12        7.9837    0.0172   12.1901 H         1 RES1    0.0000
     19 H13        8.8162    1.3076   11.8940 H         1 RES1    0.0000
     20 C7         6.8100    1.5793   11.5696 C.3       1 RES1    0.0000
     21 H14        5.9945    1.3083   12.0400 H         1 RES1    0.0000
     22 C8         6.8780    3.1115   11.5838 C.3       1 RES1    0.0000
     23 H15        7.0209    3.4175   12.4823 H         1 RES1    0.0000
     24 H16        6.0539    3.4720   11.2509 H         1 RES1    0.0000
     25 H17        7.6032    3.4048   11.0277 H         1 RES1    0.0000
     26 C9         6.7463    1.0068   10.1365 C.3       1 RES1    0.0000
     27 H18        7.5786    1.2598    9.6848 H         1 RES1    0.0000
     28 C10        6.6593   -0.5418   10.1087 C.3       1 RES1    0.0000
     29 H19        7.5459   -0.9255   10.0235 H         1 RES1    0.0000
     30 H20        6.2587   -0.8695   10.9303 H         1 RES1    0.0000
     31 C11        5.7904   -0.9374    8.8991 C.3       1 RES1    0.0000
     32 H21        6.2224   -1.6308    8.3763 H         1 RES1    0.0000
     33 H22        4.9213   -1.2568    9.1877 H         1 RES1    0.0000
     34 C12        5.6536    0.3523    8.0864 C.3       1 RES1    0.0000
     35 C13        5.5728    1.4330    9.2129 C.3       1 RES1    0.0000
     36 C14        4.2433    1.3203    9.9826 C.3       1 RES1    0.0000
     37 H23        4.2055    2.0017   10.6585 H         1 RES1    0.0000
     38 H24        4.1849    0.4560   10.3968 H         1 RES1    0.0000
     39 H25        3.5100    1.4330    9.3723 H         1 RES1    0.0000
     40 C15        6.9157    0.4829    7.2003 C.3       1 RES1    0.0000
     41 H26        6.9086   -0.2052    6.5302 H         1 RES1    0.0000
     42 H27        7.6998    0.3911    7.7454 H         1 RES1    0.0000
     43 H28        6.9205    1.3434    6.7757 H         1 RES1    0.0000
     44 C16        4.4623    0.4821    7.1380 C.2       1 RES1    0.0000
     45 C17        4.0557    1.7054    6.7631 C.2       1 RES1    0.0000
     46 C18        4.6303    2.9585    7.3900 C.3       1 RES1    0.0000
     47 H29        3.8890    3.4936    7.7149 H         1 RES1    0.0000
     48 H30        5.0647    3.4675    6.6884 H         1 RES1    0.0000
     49 C19        5.6467    2.7995    8.5578 C.3       1 RES1    0.0000
     50 H31        6.5440    2.9406    8.2180 H         1 RES1    0.0000
     51 H32        5.4716    3.4809    9.2263 H         1 RES1    0.0000
     52 C20        3.8878   -0.7919    6.5890 C.3       1 RES1    0.0000
     53 H33        3.6810   -1.3874    7.3254 H         1 RES1    0.0000
     54 H34        4.5564   -1.2262    6.0373 H         1 RES1    0.0000
     55 C21        2.6344   -0.5732    5.7646 C.3       1 RES1    0.0000
     56 H35        1.8732   -0.4381    6.3517 H         1 RES1    0.0000
     57 H36        2.4599   -1.3539    5.2157 H         1 RES1    0.0000
     58 C22        2.8252    0.6456    4.8801 C.3       1 RES1    0.0000
     59 H37        3.7140    0.5195    4.4874 H         1 RES1    0.0000
     60 C23        2.9601    1.9241    5.7017 C.3       1 RES1    0.0000
     61 C24        1.6574    2.3763    6.3801 C.3       1 RES1    0.0000
     62 H38        1.8195    3.1802    6.8791 H         1 RES1    0.0000
     63 H39        1.3508    1.6867    6.9725 H         1 RES1    0.0000
     64 H40        0.9901    2.5435    5.7106 H         1 RES1    0.0000
     65 C25        1.8576    0.6866    3.6361 C.3       1 RES1    0.0000
     66 C26        1.7641    2.0823    3.0391 C.2       1 RES1    0.0000
     67 C27        2.4536    3.2802    3.5868 C.3       1 RES1    0.0000
     68 H41        1.7815    3.9019    3.9051 H         1 RES1    0.0000
     69 H42        2.9328    3.7153    2.8644 H         1 RES1    0.0000
     70 C28        3.4376    3.0130    4.7217 C.3       1 RES1    0.0000
     71 H43        3.5815    3.8369    5.2136 H         1 RES1    0.0000
     72 H44        4.2884    2.7428    4.3433 H         1 RES1    0.0000
     73 C29        0.4455    0.1873    3.9863 C.3       1 RES1    0.0000
     74 H45        0.0660    0.7486    4.6659 H         1 RES1    0.0000
     75 H46        0.4960   -0.7157    4.3088 H         1 RES1    0.0000
     76 H47       -0.1080    0.2164    3.2012 H         1 RES1    0.0000
     77 C30        2.4365   -0.2694    2.5421 C.3       1 RES1    0.0000
     78 H48        2.4702   -1.1688    2.9030 H         1 RES1    0.0000
     79 H49        1.8301   -0.2791    1.7852 H         1 RES1    0.0000
     80 C31        3.8124    0.1045    2.0514 C.ar      1 RES1    0.0000
     81 C32        4.0055    1.0822    1.0882 C.ar      1 RES1    0.0000
     82 H50        3.2665    1.4688    0.6776 H         1 RES1    0.0000
     83 C33        5.2747    1.4957    0.7263 C.ar      1 RES1    0.0000
     84 H51        5.3688    2.1666    0.0893 H         1 RES1    0.0000
     85 C34        6.4047    0.9374    1.2841 C.ar      1 RES1    0.0000
     86 C35        6.2250   -0.0746    2.1991 C.ar      1 RES1    0.0000
     87 H52        6.9690   -0.4918    2.5703 H         1 RES1    0.0000
     88 C36        4.9476   -0.4874    2.5794 C.ar      1 RES1    0.0000
     89 H53        4.8566   -1.1740    3.2012 H         1 RES1    0.0000
     90 C37        7.7724    1.3964    0.8845 C.3       1 RES1    0.0000
     91 H54        8.4074    1.1240    1.5519 H         1 RES1    0.0000
     92 H55        7.7783    2.3532    0.8094 H         1 RES1    0.0000
     93 H56        8.0061    1.0061    0.0406 H         1 RES1    0.0000
     94 C38        0.1868    3.4279    0.2820 C.3       1 RES1    0.0000
     95 H57        0.5793    2.8152   -0.3449 H         1 RES1    0.0000
     96 H58        0.1482    4.3041   -0.1075 H         1 RES1    0.0000
     97 H59       -0.7017    3.1361    0.5011 H         1 RES1    0.0000
     98 N1         1.0082    2.1532    1.9946 N.2       1 RES1    0.0000
     99 O1         0.9812    3.4697    1.4714 O.3       1 RES1    0.0000
@<TRIPOS>BOND
     1    1    2 1
     2    3    1 1
     3    4    1 1
     4    5    6 1
     5    7    5 1
     6    8    5 1
     7    9    1 1
     8   10    9 1
     9   11    9 1
    10   12   11 1
    11   13   11 1
    12   14   11 1
    13   15   14 1
    14   16   14 1
    15   17   14 1
    16   18   17 1
    17   19   17 1
    18   20   17 1
    19   21   20 1
    20   22   20 1
    21   23   22 1
    22   24   22 1
    23   25   22 1
    24   26   20 1
    25   27   26 1
    26   28   26 1
    27   29   28 1
    28   30   28 1
    29   31   28 1
    30   32   31 1
    31   33   31 1
    32   34   31 1
    33   35   26 1
    34   36   35 1
    35   37   36 1
    36   38   36 1
    37   39   36 1
    38   40   34 1
    39   41   40 1
    40   42   40 1
    41   43   40 1
    42   44   34 1
    43   45   44 2
    44   46   45 1
    45   47   46 1
    46   48   46 1
    47   49   35 1
    48   50   49 1
    49   51   49 1
    50   52   44 1
    51   53   52 1
    52   54   52 1
    53   55   52 1
    54   56   55 1
    55   57   55 1
    56   58   55 1
    57   59   58 1
    58   60   45 1
    59   61   60 1
    60   62   61 1
    61   63   61 1
    62   64   61 1
    63   65   58 1
    64   66   65 1
    65   67   66 1
    66   68   67 1
    67   69   67 1
    68   70   60 1
    69   71   70 1
    70   72   70 1
    71   73   65 1
    72   74   73 1
    73   75   73 1
    74   76   73 1
    75   77   65 1
    76   78   77 1
    77   79   77 1
    78   80   77 1
    79   81   80 ar
    80   82   81 1
    81   83   81 ar
    82   84   83 1
    83   85   83 ar
    84   86   85 ar
    85   87   86 1
    86   88   80 ar
    87   89   88 1
    88   90   85 1
    89   91   90 1
    90   92   90 1
    91   93   90 1
    92   94   95 1
    93   96   94 1
    94   97   94 1
    95   98   66 2
    96   99   94 1
    97    5    9 1
    98   34   35 1
    99   46   49 1
   100   58   60 1
   101   67   70 1
   102   86   88 ar
   103   98   99 1
@<TRIPOS>SUBSTRUCTURE
     1 RES1 1

@<TRIPOS>CRYSIN
  10.9280    7.4634   20.7270  90.0000 101.8340  90.0000   4 1

