# MOL2 file generated by ConQuest
# Please check atom types

@<TRIPOS>MOLECULE
TURWEI
    85    78     3
SMALL
NO_CHARGES
****
Generated from CSD

@<TRIPOS>ATOM
      1 O1        -3.2873    0.6575    2.1076 O.3       1 RES1    0.0000
      2 O2         1.7803    0.1655    5.5044 O.2       1 RES1    0.0000
      3 O3         1.7772   -0.7902    8.4472 O.3       1 RES1    0.0000
      4 O4         3.4448   -1.9547    7.5528 O.2       1 RES1    0.0000
      5 N1        -2.2506   -1.9558    4.2059 N.pl3     1 RES1    0.0000
      6 H1        -2.6977   -2.6741    4.3047 H         1 RES1    0.0000
      7 N2        -2.3553    0.1042    3.0431 N.2       1 RES1    0.0000
      8 C1        -1.0964   -1.8342    4.9159 C.2       1 RES1    0.0000
      9 C2        -0.2533   -0.7864    4.8544 C.2       1 RES1    0.0000
     10 H2        -0.4755   -0.0579    4.3177 H         1 RES1    0.0000
     11 C3         0.9656   -0.7596    5.5812 C.2       1 RES1    0.0000
     12 C4         1.3203   -1.9673    6.4570 C.3       1 RES1    0.0000
     13 H3         1.7929   -2.5977    5.8737 H         1 RES1    0.0000
     14 C5         2.2940   -1.5797    7.5248 C.2       1 RES1    0.0000
     15 C6         2.3245   -0.5235    9.8393 C.3       1 RES1    0.0000
     16 H4         1.6049   -0.4547   10.4859 H         1 RES1    0.0000
     17 H5         2.9306   -1.2288   10.1151 H         1 RES1    0.0000
     18 C7         3.0211    0.7431    9.7051 C.3       1 RES1    0.0000
     19 H6         3.3567    1.0103   10.5642 H         1 RES1    0.0000
     20 H7         2.4181    1.4043    9.3715 H         1 RES1    0.0000
     21 H8         3.7556    0.6347    9.0939 H         1 RES1    0.0000
     22 C8         2.9274   -0.3657    9.3361 Du        3 SUP3    0.0000
     23 H9         3.2315   -1.0994    9.8933 Du        3 SUP3    0.0000
     24 H10        3.6771   -0.0396    8.8087 Du        3 SUP3    0.0000
     25 C9         2.3523    0.6939   10.1356 Du        3 SUP3    0.0000
     26 H11        2.7422    0.6809   11.0133 Du        3 SUP3    0.0000
     27 H12        1.4050    0.5641   10.2026 Du        3 SUP3    0.0000
     28 H13        2.5312    1.5411    9.7200 Du        3 SUP3    0.0000
     29 C10        0.1172   -2.6866    6.9490 C.3       1 RES1    0.0000
     30 H14       -0.3675   -2.0752    7.5416 H         1 RES1    0.0000
     31 C11        0.4548   -3.9361    7.7596 C.3       1 RES1    0.0000
     32 H15        1.0448   -3.7004    8.4789 H         1 RES1    0.0000
     33 H16        0.8845   -4.5786    7.1894 H         1 RES1    0.0000
     34 H17       -0.3517   -4.3126    8.1155 H         1 RES1    0.0000
     35 C12       -0.8088   -3.0253    5.7862 C.3       1 RES1    0.0000
     36 H18       -0.4006   -3.7211    5.2476 H         1 RES1    0.0000
     37 H19       -1.6447   -3.3724    6.1365 H         1 RES1    0.0000
     38 C13       -2.8406   -1.0730    3.3077 C.2       1 RES1    0.0000
     39 C14       -4.0370   -1.3324    2.6052 C.2       1 RES1    0.0000
     40 H20       -4.5533   -2.1442    2.6648 H         1 RES1    0.0000
     41 C15       -4.2662   -0.2420    1.8970 C.2       1 RES1    0.0000
     42 C16       -5.3502    0.1856    0.9411 C.3       1 RES1    0.0000
     43 H21       -6.2056    0.1059    1.3697 H         1 RES1    0.0000
     44 H22       -5.3293   -0.3745    0.1603 H         1 RES1    0.0000
     45 H23       -5.2067    1.0981    0.6820 H         1 RES1    0.0000
     46 O5         5.3893    3.8012    6.8921 O.3       2 RES2    0.0000
     47 O6         1.0879    7.2640    4.1739 O.2       2 RES2    0.0000
     48 O7        -1.8308    7.1032    2.5139 O.3       2 RES2    0.0000
     49 O8        -0.0565    6.6389    1.2635 O.2       2 RES2    0.0000
     50 O9        -1.1131    7.2968    1.2821 Du        3 SUP3    0.0000
     51 O10       -1.5886    6.6387    3.0766 Du        3 SUP3    0.0000
     52 N3         2.5371    2.8331    5.0873 N.pl3     2 RES2    0.0000
     53 H24        2.1976    2.0501    5.0314 H         2 RES2    0.0000
     54 N4         4.2622    4.1359    6.0955 N.2       2 RES2    0.0000
     55 C17        1.7230    3.7781    4.5376 C.2       2 RES2    0.0000
     56 C18        1.9136    5.1088    4.6010 C.2       2 RES2    0.0000
     57 H25        2.6793    5.4368    5.0147 H         2 RES2    0.0000
     58 C19        0.9757    6.0326    4.0494 C.2       2 RES2    0.0000
     59 C20       -0.2421    5.4919    3.3208 C.3       2 RES2    0.0000
     60 H26       -1.0487    5.3695    4.0252 H         2 RES2    0.0000
     61 C21       -0.6806    6.4558    2.2828 C.2       2 RES2    0.0000
     62 C22       -2.3027    7.9723    1.4889 C.3       2 RES2    0.0000
     63 H27       -1.8806    8.4157    0.7454 H         2 RES2    0.0000
     64 H28       -2.5602    8.9141    1.8076 H         2 RES2    0.0000
     65 C23       -3.5002    7.3678    0.8889 C.3       2 RES2    0.0000
     66 H29       -3.8607    7.9615    0.2273 H         2 RES2    0.0000
     67 H30       -4.1571    7.2132    1.5709 H         2 RES2    0.0000
     68 H31       -3.2649    6.5335    0.4752 H         2 RES2    0.0000
     69 C24       -0.0984    4.0933    2.8418 C.3       2 RES2    0.0000
     70 H32        0.5430    4.1429    2.1020 H         2 RES2    0.0000
     71 C25       -1.3712    3.5112    2.2250 C.3       2 RES2    0.0000
     72 H33       -1.2075    2.6085    1.9436 H         2 RES2    0.0000
     73 H34       -1.6294    4.0408    1.4666 H         2 RES2    0.0000
     74 H35       -2.0765    3.5215    2.8754 H         2 RES2    0.0000
     75 C26        0.5304    3.1886    3.8369 C.3       2 RES2    0.0000
     76 H36        0.8043    2.3744    3.3878 H         2 RES2    0.0000
     77 H37       -0.1332    2.9485    4.5022 H         2 RES2    0.0000
     78 C27        3.6916    2.9810    5.8383 C.2       2 RES2    0.0000
     79 C28        4.3888    1.9091    6.4197 C.2       2 RES2    0.0000
     80 H38        4.1938    1.0555    6.3173 H         2 RES2    0.0000
     81 C29        5.4224    2.4596    7.0533 C.2       2 RES2    0.0000
     82 C30        6.5565    1.9197    7.8528 C.3       2 RES2    0.0000
     83 H39        6.3894    0.9980    8.0633 H         2 RES2    0.0000
     84 H40        6.6437    2.4229    8.6653 H         2 RES2    0.0000
     85 H41        7.3683    1.9897    7.3440 H         2 RES2    0.0000
@<TRIPOS>BOND
     1    1    7 1
     2    2   11 2
     3    3   14 1
     4    4   14 2
     5    5    6 1
     6    7   38 2
     7    8    5 1
     8    9    8 2
     9   10    9 1
    10   11    9 1
    11   12   11 1
    12   13   12 1
    13   14   12 1
    14   15    3 1
    15   16   15 1
    16   17   15 1
    17   18   15 1
    18   19   18 1
    19   20   18 1
    20   21   18 1
    21   29   12 1
    22   30   29 1
    23   31   29 1
    24   32   31 1
    25   33   31 1
    26   34   31 1
    27   35    8 1
    28   36   35 1
    29   37   35 1
    30   38    5 1
    31   39   38 1
    32   40   39 1
    33   41    1 1
    34   42   41 1
    35   43   42 1
    36   44   42 1
    37   45   42 1
    38   46   54 1
    39   47   58 2
    40   48   61 1
    41   49   61 2
    42   52   53 1
    43   54   78 2
    44   55   52 1
    45   56   55 2
    46   57   56 1
    47   58   56 1
    48   59   58 1
    49   60   59 1
    50   61   59 1
    51   62   48 1
    52   63   62 1
    53   64   62 1
    54   65   62 1
    55   66   65 1
    56   67   65 1
    57   68   65 1
    58   69   59 1
    59   70   69 1
    60   71   69 1
    61   72   71 1
    62   73   71 1
    63   74   71 1
    64   75   55 1
    65   76   75 1
    66   77   75 1
    67   78   52 1
    68   79   78 1
    69   80   79 1
    70   81   46 1
    71   82   81 1
    72   83   82 1
    73   84   82 1
    74   85   82 1
    75   29   35 1
    76   39   41 2
    77   69   75 1
    78   79   81 2
@<TRIPOS>SUBSTRUCTURE
     1 RES1 1
     2 RES2 46
     3 SUP3 22

@<TRIPOS>CRYSIN
   6.8390   11.6190   19.5130 106.7000  91.6400  98.8000   2 1

