# MOL2 file generated by ConQuest
# Please check atom types

@<TRIPOS>MOLECULE
TUSNAX
    98   104     2
SMALL
NO_CHARGES
****
Generated from CSD

@<TRIPOS>ATOM
      1 O1         4.4887    4.1513    6.5254 O.2       1 RES1    0.0000
      2 O2         6.0722    0.1207    8.0144 O.2       1 RES1    0.0000
      3 O3        -0.8510    2.9444    6.5925 O.2       1 RES1    0.0000
      4 N1         5.5995    2.2905    7.3425 N.am      1 RES1    0.0000
      5 H1         6.4205    2.6065    7.3548 H         1 RES1    0.0000
      6 N2         3.9218    0.8867    7.6496 N.am      1 RES1    0.0000
      7 H2         3.4823    0.1590    7.8775 H         1 RES1    0.0000
      8 N3         0.3733    2.5868    6.7583 N.3       1 RES1    0.0000
      9 C1         3.2705    2.1091    7.1731 C.3       1 RES1    0.0000
     10 C2         4.4961    3.0254    6.9628 C.2       1 RES1    0.0000
     11 C3         5.2626    0.9929    7.7036 C.2       1 RES1    0.0000
     12 C4         2.3180    2.7229    8.2114 C.3       1 RES1    0.0000
     13 H3         2.3219    3.7067    8.1017 H         1 RES1    0.0000
     14 H4         2.6650    2.5219    9.1169 H         1 RES1    0.0000
     15 C5         0.8648    2.2246    8.1214 C.3       1 RES1    0.0000
     16 C6         1.2667    2.6624    5.5602 C.3       1 RES1    0.0000
     17 C7         2.5403    1.8410    5.8348 C.3       1 RES1    0.0000
     18 H5         3.1787    2.0092    5.0969 H         1 RES1    0.0000
     19 H6         2.2996    0.8817    5.8027 H         1 RES1    0.0000
     20 C8         0.6652    0.7048    8.2992 C.3       1 RES1    0.0000
     21 H7        -0.2766    0.4752    8.0969 H         1 RES1    0.0000
     22 H8         1.2400    0.2246    7.6517 H         1 RES1    0.0000
     23 C9         1.0033    0.2329    9.7155 C.3       1 RES1    0.0000
     24 H9         0.8239   -0.7382    9.7927 H         1 RES1    0.0000
     25 H10        1.9658    0.3826    9.8922 H         1 RES1    0.0000
     26 C10        0.1700    0.9889   10.7512 C.3       1 RES1    0.0000
     27 H11       -0.7863    0.7591   10.6359 H         1 RES1    0.0000
     28 H12        0.4446    0.7113   11.6607 H         1 RES1    0.0000
     29 C11        0.3500    2.4993   10.6054 C.3       1 RES1    0.0000
     30 H13        1.2848    2.7404   10.8254 H         1 RES1    0.0000
     31 H14       -0.2440    2.9641   11.2470 H         1 RES1    0.0000
     32 C12        0.0243    2.9674    9.1784 C.3       1 RES1    0.0000
     33 H15        0.1961    3.9392    9.1075 H         1 RES1    0.0000
     34 H16       -0.9372    2.8139    8.9969 H         1 RES1    0.0000
     35 C13        0.5231    2.0245    4.3676 C.3       1 RES1    0.0000
     36 H17        0.4350    1.0513    4.5237 H         1 RES1    0.0000
     37 H18       -0.3886    2.4061    4.3137 H         1 RES1    0.0000
     38 C14        1.2434    2.2544    3.0319 C.3       1 RES1    0.0000
     39 H19        2.1239    1.8025    3.0506 H         1 RES1    0.0000
     40 H20        0.7106    1.8579    2.2974 H         1 RES1    0.0000
     41 C15        1.4438    3.7399    2.7652 C.3       1 RES1    0.0000
     42 H21        0.5633    4.1770    2.6527 H         1 RES1    0.0000
     43 H22        1.9565    3.8597    1.9263 H         1 RES1    0.0000
     44 C16        2.1965    4.3980    3.9220 C.3       1 RES1    0.0000
     45 H23        2.2590    5.3728    3.7595 H         1 RES1    0.0000
     46 H24        3.1174    4.0361    3.9600 H         1 RES1    0.0000
     47 C17        1.5020    4.1544    5.2632 C.3       1 RES1    0.0000
     48 H25        0.6305    4.6240    5.2643 H         1 RES1    0.0000
     49 H26        2.0544    4.5434    5.9874 H         1 RES1    0.0000
     50 O4         9.1479    3.2869   14.1494 O.2       2 RES2    0.0000
     51 O5        10.4125   -0.9460   15.2920 O.2       2 RES2    0.0000
     52 O6         3.6333    1.7363   15.4063 O.2       2 RES2    0.0000
     53 N4        10.1132    1.2567   14.6774 N.am      2 RES2    0.0000
     54 H27       10.9617    1.4698   14.5802 H         2 RES2    0.0000
     55 N5         8.3129    0.0113   15.0286 N.am      2 RES2    0.0000
     56 H28        7.8114   -0.7041   15.1360 H         2 RES2    0.0000
     57 N6         4.9019    1.6718   15.2075 N.3       2 RES2    0.0000
     58 C18        7.7791    1.3608   14.8235 C.3       2 RES2    0.0000
     59 C19        9.0769    2.1322   14.4944 C.2       2 RES2    0.0000
     60 C20        9.6660   -0.0067   15.0340 C.2       2 RES2    0.0000
     61 C21        7.1787    2.0186   16.0713 C.3       2 RES2    0.0000
     62 H29        7.1991    2.9998   15.9412 H         2 RES2    0.0000
     63 H30        7.7659    1.8112   16.8413 H         2 RES2    0.0000
     64 C22        5.7455    1.6172   16.4448 C.3       2 RES2    0.0000
     65 C23        5.3471    1.1563   13.8703 C.3       2 RES2    0.0000
     66 C24        6.8185    1.5413   13.6445 C.3       2 RES2    0.0000
     67 H31        7.1616    1.0055   12.8859 H         2 RES2    0.0000
     68 H32        6.8474    2.4920   13.3691 H         2 RES2    0.0000
     69 C25        5.1939    2.6625   17.4413 C.3       2 RES2    0.0000
     70 H33        5.3266    3.5701   17.0686 H         2 RES2    0.0000
     71 H34        4.2208    2.5208   17.5581 H         2 RES2    0.0000
     72 C26        5.8878    2.5693   18.8094 C.3       2 RES2    0.0000
     73 H35        6.8437    2.8059   18.7092 H         2 RES2    0.0000
     74 H36        5.4755    3.2209   19.4308 H         2 RES2    0.0000
     75 C27        5.7741    1.1640   19.4008 C.3       2 RES2    0.0000
     76 H37        4.8272    0.9760   19.6187 H         2 RES2    0.0000
     77 H38        6.2958    1.1187   20.2408 H         2 RES2    0.0000
     78 C28        6.2893    0.1040   18.4265 C.3       2 RES2    0.0000
     79 H39        6.1284   -0.7960   18.8055 H         2 RES2    0.0000
     80 H40        7.2661    0.2147   18.3065 H         2 RES2    0.0000
     81 C29        5.5955    0.2135   17.0674 C.3       2 RES2    0.0000
     82 H41        4.6331    0.0078   17.1760 H         2 RES2    0.0000
     83 H42        5.9817   -0.4578   16.4512 H         2 RES2    0.0000
     84 C30        5.0928   -0.3656   13.7845 C.3       2 RES2    0.0000
     85 H43        5.7061   -0.8321   14.4065 H         2 RES2    0.0000
     86 H44        4.1658   -0.5561   14.0733 H         2 RES2    0.0000
     87 C31        5.2999   -0.9146   12.3680 C.3       2 RES2    0.0000
     88 H45        6.2591   -0.8496   12.1312 H         2 RES2    0.0000
     89 H46        5.0467   -1.8716   12.3507 H         2 RES2    0.0000
     90 C32        4.4755   -0.1591   11.3270 C.3       2 RES2    0.0000
     91 H47        3.5120   -0.3237   11.4870 H         2 RES2    0.0000
     92 H48        4.6984   -0.4957   10.4228 H         2 RES2    0.0000
     93 C33        4.7538    1.3421   11.3948 C.3       2 RES2    0.0000
     94 H49        4.1770    1.8167   10.7449 H         2 RES2    0.0000
     95 H50        5.6982    1.5169   11.1538 H         2 RES2    0.0000
     96 C34        4.4782    1.8660   12.8073 C.3       2 RES2    0.0000
     97 H51        3.5220    1.7296   13.0249 H         2 RES2    0.0000
     98 H52        4.6602    2.8389   12.8354 H         2 RES2    0.0000
@<TRIPOS>BOND
     1    1   10 2
     2    2   11 2
     3    3    8 1
     4    4    5 1
     5    6    7 1
     6    8   15 1
     7    9    6 1
     8   10    4 1
     9   11    4 1
    10   12    9 1
    11   13   12 1
    12   14   12 1
    13   15   12 1
    14   16    8 1
    15   17    9 1
    16   18   17 1
    17   19   17 1
    18   20   15 1
    19   21   20 1
    20   22   20 1
    21   23   20 1
    22   24   23 1
    23   25   23 1
    24   26   23 1
    25   27   26 1
    26   28   26 1
    27   29   26 1
    28   30   29 1
    29   31   29 1
    30   32   15 1
    31   33   32 1
    32   34   32 1
    33   35   16 1
    34   36   35 1
    35   37   35 1
    36   38   35 1
    37   39   38 1
    38   40   38 1
    39   41   38 1
    40   42   41 1
    41   43   41 1
    42   44   41 1
    43   45   44 1
    44   46   44 1
    45   47   16 1
    46   48   47 1
    47   49   47 1
    48   50   59 2
    49   51   60 2
    50   52   57 1
    51   53   54 1
    52   55   56 1
    53   57   64 1
    54   58   55 1
    55   59   53 1
    56   60   53 1
    57   61   58 1
    58   62   61 1
    59   63   61 1
    60   64   61 1
    61   65   57 1
    62   66   58 1
    63   67   66 1
    64   68   66 1
    65   69   64 1
    66   70   69 1
    67   71   69 1
    68   72   69 1
    69   73   72 1
    70   74   72 1
    71   75   72 1
    72   76   75 1
    73   77   75 1
    74   78   75 1
    75   79   78 1
    76   80   78 1
    77   81   64 1
    78   82   81 1
    79   83   81 1
    80   84   65 1
    81   85   84 1
    82   86   84 1
    83   87   84 1
    84   88   87 1
    85   89   87 1
    86   90   87 1
    87   91   90 1
    88   92   90 1
    89   93   90 1
    90   94   93 1
    91   95   93 1
    92   96   65 1
    93   97   96 1
    94   98   96 1
    95    6   11 1
    96    9   10 1
    97   16   17 1
    98   29   32 1
    99   44   47 1
   100   55   60 1
   101   58   59 1
   102   65   66 1
   103   78   81 1
   104   93   96 1
@<TRIPOS>SUBSTRUCTURE
     1 RES1 1
     2 RES2 50

@<TRIPOS>CRYSIN
   9.0949   11.3226   15.8775  95.9760  90.5480  92.4150   2 1

