# MOL2 file generated by ConQuest
# Please check atom types

@<TRIPOS>MOLECULE
TUSYEN
    37    31     2
SMALL
NO_CHARGES
****
Generated from CSD

@<TRIPOS>ATOM
      1 N1        11.1775    1.1653    2.7722 N.2       1 RES1    0.0000
      2 N2        11.0429    1.1628    1.5514 N.2       1 RES1    0.0000
      3 C1        12.4492    0.5803    3.1996 C.3       1 RES1    0.0000
      4 H1        12.3155   -0.3200    3.5364 H         1 RES1    0.0000
      5 H2        12.8552    1.1176    3.8970 H         1 RES1    0.0000
      6 C2        13.3278    0.5644    1.9458 C.3       1 RES1    0.0000
      7 H3        13.8047    1.4190    1.8875 H         1 RES1    0.0000
      8 C3        12.2343    0.5434    0.8847 C.3       1 RES1    0.0000
      9 C4        11.8283   -0.6947    0.1481 C.3       1 RES1    0.0000
     10 H4        11.6373   -1.3927    0.7780 H         1 RES1    0.0000
     11 H5        12.5424   -0.9719   -0.4297 H         1 RES1    0.0000
     12 H6        11.0449   -0.5117   -0.3752 H         1 RES1    0.0000
     13 N3        12.5258    1.7181   -0.0575 N.pl3     1 RES1    0.0000
     14 O1        12.3764    1.5165   -1.2238 O.2       1 RES1    0.0000
     15 O2        12.7722    2.8215    0.4044 O.2       1 RES1    0.0000
     16 C5        11.7867   -0.8569    0.4711 Du        2 SUP2    0.0000
     17 H7        11.6428   -1.3916    1.2553 Du        2 SUP2    0.0000
     18 H8        12.4677   -1.2623   -0.0714 Du        2 SUP2    0.0000
     19 H9        10.9701   -0.7977   -0.0299 Du        2 SUP2    0.0000
     20 N4        12.5729    1.3488   -0.3790 Du        2 SUP2    0.0000
     21 O3        12.6836    0.8262   -1.4348 Du        2 SUP2    0.0000
     22 O4        12.8525    2.5092   -0.1412 Du        2 SUP2    0.0000
     23 N1A       16.5039   -1.1653    2.7722 N.2       1 RES1    0.0000
     24 N2A       16.6385   -1.1628    1.5514 N.2       1 RES1    0.0000
     25 C1A       15.2322   -0.5803    3.1996 C.3       1 RES1    0.0000
     26 H1A       15.3659    0.3200    3.5364 H         1 RES1    0.0000
     27 H2A       14.8262   -1.1176    3.8970 H         1 RES1    0.0000
     28 C2A       14.3536   -0.5644    1.9458 C.3       1 RES1    0.0000
     29 H3A       13.8767   -1.4190    1.8875 H         1 RES1    0.0000
     30 C3A       15.4471   -0.5434    0.8847 C.3       1 RES1    0.0000
     31 C4A       15.8531    0.6947    0.1481 C.3       1 RES1    0.0000
     32 H4A       16.0441    1.3927    0.7780 H         1 RES1    0.0000
     33 H5A       15.1390    0.9719   -0.4297 H         1 RES1    0.0000
     34 H6A       16.6365    0.5117   -0.3752 H         1 RES1    0.0000
     35 N3A       15.1556   -1.7181   -0.0575 N.pl3     1 RES1    0.0000
     36 O1A       15.3050   -1.5165   -1.2238 O.2       1 RES1    0.0000
     37 O2A       14.9092   -2.8215    0.4044 O.2       1 RES1    0.0000
@<TRIPOS>BOND
     1    1    2 2
     2    2    8 1
     3    3    1 1
     4    4    3 1
     5    5    3 1
     6    6    3 1
     7    7    6 1
     8    8    6 1
     9    9    8 1
    10   10    9 1
    11   11    9 1
    12   12    9 1
    13   13    8 1
    14   14   13 2
    15   15   13 2
    16   23   24 2
    17   24   30 1
    18   25   23 1
    19   26   25 1
    20   27   25 1
    21   28    6 1
    22   29   28 1
    23   30   28 1
    24   31   30 1
    25   32   31 1
    26   33   31 1
    27   34   31 1
    28   35   30 1
    29   36   35 2
    30   37   35 2
    31   25   28 1
@<TRIPOS>SUBSTRUCTURE
     1 RES1 1
     2 SUP2 16

@<TRIPOS>CRYSIN
  27.6814   10.9572    7.6728  90.0000  90.0000  90.0000  43 1

