# MOL2 file generated by ConQuest
# Please check atom types

@<TRIPOS>MOLECULE
TUTFAQ
    43    44     1
SMALL
NO_CHARGES
****
Generated from CSD

@<TRIPOS>ATOM
      1 O1         3.9544    8.2751    4.2518 O.3       1 RES1    0.0000
      2 C1         2.5759   11.6429    3.7231 C.ar      1 RES1    0.0000
      3 C2         3.5842   12.5616    4.0165 C.ar      1 RES1    0.0000
      4 C3         3.3364   13.8975    4.2762 C.ar      1 RES1    0.0000
      5 H1         4.0383   14.4737    4.4790 H         1 RES1    0.0000
      6 N1         4.9955   12.1431    4.0426 N.pl3     1 RES1    0.0000
      7 C4         1.2777   12.1614    3.6903 C.ar      1 RES1    0.0000
      8 H2         0.5665   11.5923    3.5023 H         1 RES1    0.0000
      9 C5         3.5517    9.4922    4.5975 C.2       1 RES1    0.0000
     10 C6         2.2209    9.4877    2.5301 C.2       1 RES1    0.0000
     11 H3         2.3751    8.5712    2.5174 H         1 RES1    0.0000
     12 O2         3.7766    9.9775    5.6723 O.2       1 RES1    0.0000
     13 C7         0.0124    9.7051    1.4189 C.ar      1 RES1    0.0000
     14 C8         2.7793   10.1863    3.5223 C.2       1 RES1    0.0000
     15 C9         1.3725   10.0498    1.4407 C.ar      1 RES1    0.0000
     16 O3         5.3415   11.2001    3.3611 O.2       1 RES1    0.0000
     17 O4         5.7696   12.7941    4.7310 O.2       1 RES1    0.0000
     18 C10        1.0260   13.4909    3.9300 C.ar      1 RES1    0.0000
     19 H4         0.1516   13.8046    3.8878 H         1 RES1    0.0000
     20 C11       -0.7982   10.2761    0.4377 C.ar      1 RES1    0.0000
     21 H5        -1.7046   10.0695    0.4280 H         1 RES1    0.0000
     22 C12        1.0541   11.4148   -0.5028 C.ar      1 RES1    0.0000
     23 H6         1.4051   11.9711   -1.1599 H         1 RES1    0.0000
     24 C13       -0.3031   11.1349   -0.5148 C.ar      1 RES1    0.0000
     25 C14        1.9045   10.8902    0.4597 C.ar      1 RES1    0.0000
     26 C15        2.0428   14.3669    4.2314 C.ar      1 RES1    0.0000
     27 H7         1.8592   15.2627    4.4021 H         1 RES1    0.0000
     28 C16       -0.5693    8.7835    2.4440 C.3       1 RES1    0.0000
     29 H8        -1.5115    8.6875    2.2903 H         1 RES1    0.0000
     30 H9        -0.4231    9.1478    3.3202 H         1 RES1    0.0000
     31 H10       -0.1452    7.9247    2.3790 H         1 RES1    0.0000
     32 C17        3.3731   11.2137    0.4041 C.3       1 RES1    0.0000
     33 H11        3.5574   11.7307   -0.3843 H         1 RES1    0.0000
     34 H12        3.8796   10.3986    0.3784 H         1 RES1    0.0000
     35 H13        3.6200   11.7185    1.1824 H         1 RES1    0.0000
     36 C18        4.7334    7.5541    5.2375 C.3       1 RES1    0.0000
     37 H14        5.5650    8.0100    5.3847 H         1 RES1    0.0000
     38 H15        4.9075    6.6648    4.9200 H         1 RES1    0.0000
     39 H16        4.2431    7.5086    6.0622 H         1 RES1    0.0000
     40 C19       -1.2186   11.7733   -1.5484 C.3       1 RES1    0.0000
     41 H17       -2.0102   11.2392   -1.6483 H         1 RES1    0.0000
     42 H18       -0.7610   11.8293   -2.3908 H         1 RES1    0.0000
     43 H19       -1.4628   12.6558   -1.2581 H         1 RES1    0.0000
@<TRIPOS>BOND
     1    1    9 1
     2    2    3 ar
     3    3    4 ar
     4    4    5 1
     5    6    3 1
     6    7    2 ar
     7    8    7 1
     8    9   12 2
     9   10   11 1
    10   13   15 ar
    11   14    2 1
    12   15   10 1
    13   16    6 2
    14   17    6 2
    15   18    7 ar
    16   19   18 1
    17   20   13 ar
    18   21   20 1
    19   22   23 1
    20   24   20 ar
    21   25   15 ar
    22   26    4 ar
    23   27   26 1
    24   28   13 1
    25   29   28 1
    26   30   28 1
    27   31   28 1
    28   32   25 1
    29   33   32 1
    30   34   32 1
    31   35   32 1
    32   36    1 1
    33   37   36 1
    34   38   36 1
    35   39   36 1
    36   40   24 1
    37   41   40 1
    38   42   40 1
    39   43   40 1
    40    9   14 1
    41   10   14 2
    42   18   26 ar
    43   22   24 ar
    44   22   25 ar
@<TRIPOS>SUBSTRUCTURE
     1 RES1 1

@<TRIPOS>CRYSIN
   8.0310    8.9580   11.8670  86.0900  86.4300  79.4200   2 1

