# MOL2 file generated by ConQuest
# Please check atom types

@<TRIPOS>MOLECULE
TUVMEE02
    40    40     1
SMALL
NO_CHARGES
****
Generated from CSD

@<TRIPOS>ATOM
      1 N1         0.0320   11.2945    7.5998 N.3       1 RES1    0.0000
      2 C1         1.0321   11.0188   11.1264 C.ar      1 RES1    0.0000
      3 O1         1.0485    7.7183   12.5878 O.2       1 RES1    0.0000
      4 N2         1.4376   11.8312   12.1083 N.3       1 RES1    0.0000
      5 O2         0.9575   15.9845   13.2095 O.3       1 RES1    0.0000
      6 C2         0.9296    9.5973   11.2854 C.ar      1 RES1    0.0000
      7 C3         0.7026   11.5263    9.8678 C.ar      1 RES1    0.0000
      8 H1         0.7440   12.4465    9.7442 H         1 RES1    0.0000
      9 N3        -0.1897    8.3968    8.0063 N.pl3     1 RES1    0.0000
     10 C4         0.5481    8.8035   10.2366 C.ar      1 RES1    0.0000
     11 H2         0.4986    7.8839   10.3611 H         1 RES1    0.0000
     12 N4         1.1785    8.9335   12.5241 N.pl3     1 RES1    0.0000
     13 C5         0.3146   10.7387    8.7849 C.ar      1 RES1    0.0000
     14 C6         0.0463   12.7126    7.3284 C.3       1 RES1    0.0000
     15 H3         0.9119   13.0819    7.5627 H         1 RES1    0.0000
     16 H4        -0.6269   13.1551    7.8692 H         1 RES1    0.0000
     17 C7         1.5099   13.2772   12.0033 C.3       1 RES1    0.0000
     18 H5         0.6206   13.6421   11.8732 H         1 RES1    0.0000
     19 H6         2.0541   13.5250   11.2398 H         1 RES1    0.0000
     20 C8         0.2384    9.3275    9.0086 C.ar      1 RES1    0.0000
     21 O3        -0.5155    8.8146    6.8966 O.2       1 RES1    0.0000
     22 O4         0.8258   15.1543    5.7036 O.3       1 RES1    0.0000
     23 O5        -0.2293    7.2048    8.2661 O.2       1 RES1    0.0000
     24 O6         1.5143    9.5881   13.5062 O.2       1 RES1    0.0000
     25 C9         2.1143   13.8411   13.2663 C.3       1 RES1    0.0000
     26 H7         1.5732   13.5668   14.0226 H         1 RES1    0.0000
     27 H8         3.0000   13.4644   13.3854 H         1 RES1    0.0000
     28 C10       -0.2346   12.9628    5.8621 C.3       1 RES1    0.0000
     29 H9         0.4882   12.5887    5.3348 H         1 RES1    0.0000
     30 H10       -1.0514   12.5030    5.6141 H         1 RES1    0.0000
     31 C11        2.2203   15.3432   13.2639 C.3       1 RES1    0.0000
     32 H11        2.6854   15.6277   14.0663 H         1 RES1    0.0000
     33 H12        2.7494   15.6214   12.4998 H         1 RES1    0.0000
     34 C12       -0.3769   14.4246    5.5307 C.3       1 RES1    0.0000
     35 H13       -0.6686   14.5116    4.6102 H         1 RES1    0.0000
     36 H14       -1.0635   14.8104    6.0971 H         1 RES1    0.0000
     37 H15        1.5794   11.4976   12.8616 H         1 RES1    0.0000
     38 H16       -0.2163   10.7515    7.0079 H         1 RES1    0.0000
     39 H17        1.0185   15.2222    6.5375 H         1 RES1    0.0000
     40 H18        0.4799   15.7552   13.8510 H         1 RES1    0.0000
@<TRIPOS>BOND
     1    1   13 1
     2    2    4 1
     3    3   12 2
     4    4   17 1
     5    5   31 1
     6    6    2 ar
     7    7    2 ar
     8    8    7 1
     9    9   20 1
    10   10    6 ar
    11   11   10 1
    12   12    6 1
    13   13    7 ar
    14   14    1 1
    15   15   14 1
    16   16   14 1
    17   17   18 1
    18   19   17 1
    19   20   10 ar
    20   21    9 2
    21   22   34 1
    22   23    9 2
    23   24   12 2
    24   25   17 1
    25   26   25 1
    26   27   25 1
    27   28   14 1
    28   29   28 1
    29   30   28 1
    30   31   25 1
    31   32   31 1
    32   33   31 1
    33   34   28 1
    34   35   34 1
    35   36   34 1
    36   37    4 1
    37   38    1 1
    38   39   22 1
    39   40    5 1
    40   13   20 ar
@<TRIPOS>SUBSTRUCTURE
     1 RES1 1

@<TRIPOS>CRYSIN
   7.2445   20.9010    9.7813  90.0000  97.4130  90.0000  14 1

