# MOL2 file generated by ConQuest
# Please check atom types

@<TRIPOS>MOLECULE
TUVMUU01
    92    92     2
SMALL
NO_CHARGES
****
Generated from CSD

@<TRIPOS>ATOM
      1 O1        10.5632    6.7619   12.2839 O.3       1 RES1    0.0000
      2 H1        10.2349    7.4879   12.0908 H         1 RES1    0.0000
      3 H2         9.6802    9.6828    8.1875 H         1 RES1    0.0000
      4 H3         8.9811    7.6650    2.2293 H         1 RES1    0.0000
      5 H4        11.3639    2.0033    0.2146 H         1 RES1    0.0000
      6 O2         7.0103   10.8616    2.3940 O.2       1 RES1    0.0000
      7 C1         9.5637    8.2631    5.3506 C.ar      1 RES1    0.0000
      8 H5        10.0395    7.4893    5.5531 H         1 RES1    0.0000
      9 N1         8.2946   11.3726    6.9851 N.pl3     1 RES1    0.0000
     10 C2        10.5748    7.7884    8.0104 C.3       1 RES1    0.0000
     11 H6        11.3955    7.6838    7.5034 H         1 RES1    0.0000
     12 H7        10.0112    7.0190    7.8334 H         1 RES1    0.0000
     13 C3        11.4226    6.5297   10.0165 C.3       1 RES1    0.0000
     14 H8        10.7685    5.8373    9.8347 H         1 RES1    0.0000
     15 H9        12.2342    6.3018    9.5369 H         1 RES1    0.0000
     16 C4        10.6167    4.0764    2.1526 C.3       1 RES1    0.0000
     17 H10       11.5254    4.0996    2.4895 H         1 RES1    0.0000
     18 H11       10.0712    3.5959    2.7953 H         1 RES1    0.0000
     19 C5         9.0935    8.4141    4.0524 C.ar      1 RES1    0.0000
     20 C6        10.0991    5.4860    2.0158 C.3       1 RES1    0.0000
     21 H12       10.6789    5.9737    1.4084 H         1 RES1    0.0000
     22 H13        9.2145    5.4569    1.6176 H         1 RES1    0.0000
     23 N2         9.8922    9.0020    7.5925 N.pl3     1 RES1    0.0000
     24 C7         9.3705    9.1936    6.3711 C.ar      1 RES1    0.0000
     25 N3         9.3496    7.5140    3.1025 N.3       1 RES1    0.0000
     26 C8         8.0829   10.5089    4.7733 C.ar      1 RES1    0.0000
     27 H14        7.5632   11.2565    4.5847 H         1 RES1    0.0000
     28 N4         7.7103    9.8570    2.5174 N.pl3     1 RES1    0.0000
     29 O3         7.9050    9.0891    1.5726 O.2       1 RES1    0.0000
     30 O4        11.1661    2.0527    0.9794 O.3       1 RES1    0.0000
     31 C9        10.8955    7.8522    9.4843 C.3       1 RES1    0.0000
     32 H15       10.0946    8.0961    9.9742 H         1 RES1    0.0000
     33 H16       11.5597    8.5433    9.6361 H         1 RES1    0.0000
     34 C10        8.5995   10.3535    6.0285 C.ar      1 RES1    0.0000
     35 C11        8.3130    9.5870    3.7890 C.ar      1 RES1    0.0000
     36 O5         7.6204   12.3278    6.6340 O.2       1 RES1    0.0000
     37 O6         8.6844   11.2754    8.1462 O.2       1 RES1    0.0000
     38 C12       10.0212    6.2365    3.3214 C.3       1 RES1    0.0000
     39 H17        9.5284    5.7124    3.9730 H         1 RES1    0.0000
     40 H18       10.9146    6.3889    3.6672 H         1 RES1    0.0000
     41 C13       11.7173    6.5399   11.4928 C.3       1 RES1    0.0000
     42 H19       12.1130    5.6907   11.7420 H         1 RES1    0.0000
     43 H20       12.3671    7.2353   11.6803 H         1 RES1    0.0000
     44 C14       10.5938    3.3534    0.8501 C.3       1 RES1    0.0000
     45 H21        9.6776    3.2736    0.5419 H         1 RES1    0.0000
     46 H22       11.0910    3.8601    0.1905 H         1 RES1    0.0000
     47 H23        6.7803    2.3808    5.3627 H         2 RES2    0.0000
     48 H24        7.3905    0.4936   11.1814 H         2 RES2    0.0000
     49 H25        5.1620   -5.8213   13.0646 H         2 RES2    0.0000
     50 N5         6.6063    1.7899    5.9134 N.3       2 RES2    0.0000
     51 C15        7.4136    1.2209    9.4454 C.ar      2 RES2    0.0000
     52 C16        5.6264    0.6504    4.0213 C.3       2 RES2    0.0000
     53 H26        6.4446    0.8580    3.5438 H         2 RES2    0.0000
     54 H27        5.0026    1.3762    3.8684 H         2 RES2    0.0000
     55 C17        7.1256    1.9932    7.1287 C.ar      2 RES2    0.0000
     56 C18        8.2100    2.3779    9.7078 C.ar      2 RES2    0.0000
     57 C19        7.9044    3.1531    7.4575 C.ar      2 RES2    0.0000
     58 N6         7.1366    0.3194   10.3916 N.3       2 RES2    0.0000
     59 C20        4.9554   -0.5502    1.9575 C.3       2 RES2    0.0000
     60 H28        4.5026    0.2715    1.7089 H         2 RES2    0.0000
     61 H29        5.8523   -0.5168    1.5908 H         2 RES2    0.0000
     62 C21        6.4518   -0.9436   10.1595 C.3       2 RES2    0.0000
     63 H30        6.9439   -1.4648    9.5047 H         2 RES2    0.0000
     64 H31        5.5654   -0.7723    9.8052 H         2 RES2    0.0000
     65 N7         8.2085    4.1635    6.5031 N.pl3     2 RES2    0.0000
     66 O7         7.7764    4.0894    5.3565 O.2       2 RES2    0.0000
     67 N8         8.8618    2.6043   10.9619 N.pl3     2 RES2    0.0000
     68 C22        6.9248    1.0655    8.1516 C.ar      2 RES2    0.0000
     69 H32        6.4346    0.2991    7.9568 H         2 RES2    0.0000
     70 O8         8.5546    1.9250   11.9419 O.2       2 RES2    0.0000
     71 C23        5.0389   -0.6286    3.4539 C.3       2 RES2    0.0000
     72 H33        5.5939   -1.3820    3.7101 H         2 RES2    0.0000
     73 H34        4.1521   -0.7694    3.8228 H         2 RES2    0.0000
     74 C24        5.6963   -3.8906   12.4996 C.3       2 RES2    0.0000
     75 H35        6.5741   -3.9965   12.8983 H         2 RES2    0.0000
     76 H36        5.1336   -3.4086   13.1263 H         2 RES2    0.0000
     77 O9         5.1349   -5.1637   12.2330 O.3       2 RES2    0.0000
     78 C25        8.4353    3.2910    8.7133 C.ar      2 RES2    0.0000
     79 H37        8.9686    4.0299    8.8957 H         2 RES2    0.0000
     80 C26        5.9288    0.5720    5.4917 C.3       2 RES2    0.0000
     81 H38        5.1033    0.4645    5.9904 H         2 RES2    0.0000
     82 H39        6.4932   -0.1974    5.6712 H         2 RES2    0.0000
     83 C27        6.3402   -1.7188   11.4418 C.3       2 RES2    0.0000
     84 H40        5.7487   -1.2470   12.0479 H         2 RES2    0.0000
     85 H41        7.2141   -1.7711   11.8601 H         2 RES2    0.0000
     86 O10        9.7489    3.4623   11.0207 O.2       2 RES2    0.0000
     87 O11        8.9233    5.0955    6.8416 O.2       2 RES2    0.0000
     88 C28        5.8121   -3.1153   11.2205 C.3       2 RES2    0.0000
     89 H42        4.9390   -3.0631   10.8004 H         2 RES2    0.0000
     90 H43        6.4052   -3.5872   10.6153 H         2 RES2    0.0000
     91 O12        4.2671   -1.6452    1.3961 O.3       2 RES2    0.0000
     92 H44        4.2472   -1.5664    0.5795 H         2 RES2    0.0000
@<TRIPOS>BOND
     1    1    2 1
     2    3   23 1
     3    4   25 1
     4    5   30 1
     5    6   28 2
     6    7    8 1
     7    9   34 1
     8   10   11 1
     9   12   10 1
    10   13   14 1
    11   15   13 1
    12   16   17 1
    13   18   16 1
    14   19    7 ar
    15   20   16 1
    16   21   20 1
    17   22   20 1
    18   23   10 1
    19   24    7 ar
    20   25   19 1
    21   26   27 1
    22   28   29 2
    23   30   44 1
    24   31   10 1
    25   32   31 1
    26   33   31 1
    27   34   24 ar
    28   35   19 ar
    29   36    9 2
    30   37    9 2
    31   38   20 1
    32   39   38 1
    33   40   38 1
    34   41    1 1
    35   42   41 1
    36   43   41 1
    37   44   16 1
    38   45   44 1
    39   46   44 1
    40   47   50 1
    41   48   58 1
    42   49   77 1
    43   50   55 1
    44   51   56 ar
    45   52   53 1
    46   54   52 1
    47   55   57 ar
    48   56   67 1
    49   57   65 1
    50   58   51 1
    51   59   60 1
    52   61   59 1
    53   62   58 1
    54   63   62 1
    55   64   62 1
    56   65   66 2
    57   67   70 2
    58   68   51 ar
    59   69   68 1
    60   71   52 1
    61   72   71 1
    62   73   71 1
    63   74   75 1
    64   76   74 1
    65   77   74 1
    66   78   56 ar
    67   79   78 1
    68   80   50 1
    69   81   80 1
    70   82   80 1
    71   83   62 1
    72   84   83 1
    73   85   83 1
    74   86   67 2
    75   87   65 2
    76   88   74 1
    77   89   88 1
    78   90   88 1
    79   91   59 1
    80   92   91 1
    81   13   31 1
    82   13   41 1
    83   23   24 1
    84   25   38 1
    85   26   34 ar
    86   26   35 ar
    87   28   35 1
    88   52   80 1
    89   55   68 ar
    90   57   78 ar
    91   59   71 1
    92   83   88 1
@<TRIPOS>SUBSTRUCTURE
     1 RES1 1
     2 RES2 47

@<TRIPOS>CRYSIN
   8.3906   14.5170   26.8350  90.0000  91.4270  90.0000 231 1

