# MOL2 file generated by ConQuest
# Please check atom types

@<TRIPOS>MOLECULE
TUVMUU
    46    46     1
SMALL
NO_CHARGES
****
Generated from CSD

@<TRIPOS>ATOM
      1 N1         2.1030    1.4202    1.9705 N.3       1 RES1    0.0000
      2 N2         0.2519    1.8715    6.3328 N.3       1 RES1    0.0000
      3 C1         0.4175   -0.1737    2.7108 C.ar      1 RES1    0.0000
      4 C2         0.2807    1.2089    5.1638 C.ar      1 RES1    0.0000
      5 N3        -1.5388   -0.4025    5.8109 N.pl3     1 RES1    0.0000
      6 C3         1.2585    0.9632    2.9080 C.ar      1 RES1    0.0000
      7 C4         1.1479    1.6035    4.1446 C.ar      1 RES1    0.0000
      8 H1         1.6898    2.3429    4.2995 H         1 RES1    0.0000
      9 N4         0.4440   -0.9578    1.5055 N.pl3     1 RES1    0.0000
     10 C5        -0.5598    0.0885    4.8837 C.ar      1 RES1    0.0000
     11 O1        -2.3035   -1.2900    5.4724 O.2       1 RES1    0.0000
     12 C6        -0.4652   -0.5675    3.6822 C.ar      1 RES1    0.0000
     13 H2        -1.0165   -1.2992    3.5219 H         1 RES1    0.0000
     14 O2        -0.3586   -1.8602    1.3602 O.2       1 RES1    0.0000
     15 O3         1.2794   -0.7026    0.6380 O.2       1 RES1    0.0000
     16 O4        -1.5934    0.0951    6.9374 O.2       1 RES1    0.0000
     17 C7         2.2572    3.9105    1.9523 C.3       1 RES1    0.0000
     18 H3         1.7025    4.0664    2.7333 H         1 RES1    0.0000
     19 H4         1.6783    3.8845    1.1734 H         1 RES1    0.0000
     20 O5        -0.0708    6.7820    4.4710 O.3       1 RES1    0.0000
     21 H5         0.6080    6.7264    4.0144 H         1 RES1    0.0000
     22 C8         0.2656    4.3108    6.0641 C.3       1 RES1    0.0000
     23 H6         0.1021    4.1765    5.1182 H         1 RES1    0.0000
     24 H7        -0.5946    4.4080    6.5023 H         1 RES1    0.0000
     25 O6         2.3020    6.8037    3.1968 O.3       1 RES1    0.0000
     26 H8         2.9581    6.7180    3.6803 H         1 RES1    0.0000
     27 C9         2.9609    2.5792    2.0962 C.3       1 RES1    0.0000
     28 H9         3.6563    2.5242    1.4221 H         1 RES1    0.0000
     29 H10        3.3927    2.5514    2.9645 H         1 RES1    0.0000
     30 C10        3.2474    5.0499    1.8042 C.3       1 RES1    0.0000
     31 H11        3.9198    4.9702    2.4989 H         1 RES1    0.0000
     32 H12        3.6969    4.9618    0.9486 H         1 RES1    0.0000
     33 C11        0.9746    3.0779    6.6266 C.3       1 RES1    0.0000
     34 H13        1.8652    3.0185    6.2457 H         1 RES1    0.0000
     35 H14        1.0660    3.1699    7.5870 H         1 RES1    0.0000
     36 C12        2.6337    6.4191    1.8853 C.3       1 RES1    0.0000
     37 H15        3.2561    7.0647    1.5171 H         1 RES1    0.0000
     38 H16        1.8315    6.4365    1.3397 H         1 RES1    0.0000
     39 C13        1.0435    5.5601    6.2468 C.3       1 RES1    0.0000
     40 H17        1.8583    5.5035    5.7231 H         1 RES1    0.0000
     41 H18        1.2966    5.6404    7.1800 H         1 RES1    0.0000
     42 C14        0.2831    6.8024    5.8370 C.3       1 RES1    0.0000
     43 H19       -0.5218    6.8750    6.3740 H         1 RES1    0.0000
     44 H20        0.8299    7.5834    6.0129 H         1 RES1    0.0000
     45 H21       -0.3129    1.5400    6.8871 H         1 RES1    0.0000
     46 H22        2.0714    0.9765    1.2669 H         1 RES1    0.0000
@<TRIPOS>BOND
     1    1    6 1
     2    2    4 1
     3    3    6 ar
     4    4    7 ar
     5    5   10 1
     6    6    7 ar
     7    7    8 1
     8    9    3 1
     9   10    4 ar
    10   11    5 2
    11   12    3 ar
    12   13   12 1
    13   14    9 2
    14   15    9 2
    15   16    5 2
    16   17   18 1
    17   19   17 1
    18   20   21 1
    19   22   23 1
    20   24   22 1
    21   25   26 1
    22   27    1 1
    23   28   27 1
    24   29   27 1
    25   30   17 1
    26   31   30 1
    27   32   30 1
    28   33    2 1
    29   34   33 1
    30   35   33 1
    31   36   25 1
    32   37   36 1
    33   38   36 1
    34   39   22 1
    35   40   39 1
    36   41   39 1
    37   42   20 1
    38   43   42 1
    39   44   42 1
    40   45    2 1
    41   46    1 1
    42   10   12 ar
    43   17   27 1
    44   22   33 1
    45   30   36 1
    46   39   42 1
@<TRIPOS>SUBSTRUCTURE
     1 RES1 1

@<TRIPOS>CRYSIN
   4.8071   10.6331   16.1500  80.7150  83.1440  87.2240   2 1

