# MOL2 file generated by ConQuest
# Please check atom types

@<TRIPOS>MOLECULE
TUVMEE01
    40    40     1
SMALL
NO_CHARGES
****
Generated from CSD

@<TRIPOS>ATOM
      1 C1         1.0244   11.5509    4.6864 C.ar      1 RES1    0.0000
      2 H1         0.9792   12.4716    4.8109 H         1 RES1    0.0000
      3 C2         0.7987    9.6128    3.2644 C.ar      1 RES1    0.0000
      4 C3         0.6965   11.0367    3.4258 C.ar      1 RES1    0.0000
      5 N1         1.6999   11.3099    6.9592 N.3       1 RES1    0.0000
      6 N2         0.2878   11.8505    2.4394 N.3       1 RES1    0.0000
      7 C4         1.4910    9.3406    5.5459 C.ar      1 RES1    0.0000
      8 C5         0.2186   13.2982    2.5515 C.3       1 RES1    0.0000
      9 C6         1.4167   10.7545    5.7716 C.ar      1 RES1    0.0000
     10 C7         1.1807    8.8112    4.3160 C.ar      1 RES1    0.0000
     11 H2         1.2300    7.8908    4.1914 H         1 RES1    0.0000
     12 C8         1.6829   12.7325    7.2312 C.3       1 RES1    0.0000
     13 N3         1.9193    8.4088    6.5488 N.pl3     1 RES1    0.0000
     14 N4         0.5510    8.9445    2.0262 N.pl3     1 RES1    0.0000
     15 O1         0.6794    7.7275    1.9601 O.2       1 RES1    0.0000
     16 C9        -0.3878   13.8639    1.2810 C.3       1 RES1    0.0000
     17 O2         2.2474    8.8229    7.6609 O.2       1 RES1    0.0000
     18 O3         0.9051   15.1787    8.8548 O.3       1 RES1    0.0000
     19 O4         0.2094    9.5996    1.0428 O.2       1 RES1    0.0000
     20 C10        1.9630   12.9825    8.7005 C.3       1 RES1    0.0000
     21 C11       -0.4934   15.3698    1.2893 C.3       1 RES1    0.0000
     22 O5         1.9575    7.2135    6.2865 O.2       1 RES1    0.0000
     23 C12        2.1070   14.4461    9.0308 C.3       1 RES1    0.0000
     24 O6         0.7699   16.0123    1.3414 O.3       1 RES1    0.0000
     25 H3        -1.2639   13.4598    1.1391 H         1 RES1    0.0000
     26 H4        -0.3378   13.5394    3.3251 H         1 RES1    0.0000
     27 H5         0.8463   13.0851    6.9833 H         1 RES1    0.0000
     28 H6         1.0828   13.6566    2.7085 H         1 RES1    0.0000
     29 H7         0.1756   13.5833    0.5448 H         1 RES1    0.0000
     30 H8         2.3571   13.1856    6.6764 H         1 RES1    0.0000
     31 H9         1.2251   12.5763    9.2548 H         1 RES1    0.0000
     32 H10        2.7534   12.4989    8.9246 H         1 RES1    0.0000
     33 H11       -0.9701   15.6497    0.4953 H         1 RES1    0.0000
     34 H12       -0.9967   15.6979    2.0947 H         1 RES1    0.0000
     35 H13        2.8161   14.8332    8.4973 H         1 RES1    0.0000
     36 H14        2.3537   14.5611    9.9928 H         1 RES1    0.0000
     37 H15        0.7294   15.2854    8.0506 H         1 RES1    0.0000
     38 H16        1.2544   15.7984    0.7186 H         1 RES1    0.0000
     39 H17        0.1463   11.5211    1.6626 H         1 RES1    0.0000
     40 H18        1.9624   10.7298    7.5388 H         1 RES1    0.0000
@<TRIPOS>BOND
     1    1    2 1
     2    3    4 ar
     3    4    1 ar
     4    5    9 1
     5    6    4 1
     6    7    9 ar
     7    8    6 1
     8    9    1 ar
     9   10    3 ar
    10   11   10 1
    11   12    5 1
    12   13    7 1
    13   14    3 1
    14   15   14 2
    15   16    8 1
    16   17   13 2
    17   18   23 1
    18   19   14 2
    19   20   12 1
    20   21   16 1
    21   22   13 2
    22   23   20 1
    23   24   21 1
    24   25   16 1
    25   26    8 1
    26   27   12 1
    27   28    8 1
    28   29   16 1
    29   30   12 1
    30   31   20 1
    31   32   20 1
    32   33   21 1
    33   34   21 1
    34   35   23 1
    35   36   23 1
    36   37   18 1
    37   38   24 1
    38   39    6 1
    39   40    5 1
    40    7   10 ar
@<TRIPOS>SUBSTRUCTURE
     1 RES1 1

@<TRIPOS>CRYSIN
   7.2459   20.9361    9.7928  90.0000  97.4020  90.0000  14 1

