# MOL2 file generated by ConQuest
# Please check atom types

@<TRIPOS>MOLECULE
TUWBAQ
    67    70     1
SMALL
NO_CHARGES
****
Generated from CSD

@<TRIPOS>ATOM
      1 O1        -4.0504    3.8767    3.7965 O.2       1 RES1    0.0000
      2 O2         6.9286   14.4679    4.7284 O.3       1 RES1    0.0000
      3 O3         7.7290   15.2976    2.7978 O.2       1 RES1    0.0000
      4 O4        -3.7454    2.8307    1.9299 O.2       1 RES1    0.0000
      5 O5         2.5059    5.5242    1.2668 O.2       1 RES1    0.0000
      6 O6         2.9176    9.1680    4.9014 O.2       1 RES1    0.0000
      7 O7         6.5790   10.8547    4.2158 O.3       1 RES1    0.0000
      8 O8         4.4848   14.3380    3.4044 O.3       1 RES1    0.0000
      9 O9         3.0263   14.8546    5.0359 O.2       1 RES1    0.0000
     10 O10        4.7646   11.8878    2.1557 O.3       1 RES1    0.0000
     11 O11        2.7426   10.9842    1.7321 O.2       1 RES1    0.0000
     12 N1        -3.3727    3.5851    2.8190 N.pl3     1 RES1    0.0000
     13 N2         4.8316    9.4674    3.6531 N.am      1 RES1    0.0000
     14 C1        -2.0295    4.1863    2.6890 C.ar      1 RES1    0.0000
     15 C2        -1.1488    3.6556    1.7709 C.ar      1 RES1    0.0000
     16 H1        -1.3947    2.9109    1.2358 H         1 RES1    0.0000
     17 C3         0.1068    4.2368    1.6484 C.ar      1 RES1    0.0000
     18 H2         0.7331    3.8785    1.0310 H         1 RES1    0.0000
     19 C4         0.4549    5.3425    2.4251 C.ar      1 RES1    0.0000
     20 C5         1.8151    5.9485    2.1862 C.2       1 RES1    0.0000
     21 C6         2.2853    7.0296    3.0724 C.2       1 RES1    0.0000
     22 H3         1.7413    7.2235    3.8277 H         1 RES1    0.0000
     23 C7         3.3996    7.7742    2.9323 C.2       1 RES1    0.0000
     24 C8         3.6386    8.8557    3.9689 C.2       1 RES1    0.0000
     25 C9         5.1708   10.7413    4.2690 C.3       1 RES1    0.0000
     26 H4         4.8842   10.7235    5.2261 H         1 RES1    0.0000
     27 C10        4.4685   11.9024    3.5632 C.3       1 RES1    0.0000
     28 H5         3.4803   11.8346    3.7008 H         1 RES1    0.0000
     29 C11        4.9803   13.2080    4.1490 C.3       1 RES1    0.0000
     30 H6         4.6944   13.2836    5.1036 H         1 RES1    0.0000
     31 C12        6.4987   13.2589    4.0640 C.3       1 RES1    0.0000
     32 H7         6.7922   13.2656    3.1085 H         1 RES1    0.0000
     33 C13        7.4854   15.4407    3.9564 C.2       1 RES1    0.0000
     34 C14       -1.7205    5.2722    3.4774 C.ar      1 RES1    0.0000
     35 H8        -2.3453    5.6146    4.1060 H         1 RES1    0.0000
     36 C15       -0.4641    5.8509    3.3265 C.ar      1 RES1    0.0000
     37 H9        -0.2336    6.6083    3.8522 H         1 RES1    0.0000
     38 C16        7.1004   12.0632    4.7959 C.3       1 RES1    0.0000
     39 H10        6.8714   12.1039    5.7694 H         1 RES1    0.0000
     40 C17        7.7489   16.6700    4.7654 C.3       1 RES1    0.0000
     41 H11        8.4920   16.5013    5.3819 H         1 RES1    0.0000
     42 H12        6.9467   16.9027    5.2773 H         1 RES1    0.0000
     43 H13        7.9818   17.4101    4.1684 H         1 RES1    0.0000
     44 C18        3.5633   15.1254    4.0072 C.2       1 RES1    0.0000
     45 C19        3.3335   16.3582    3.1978 C.3       1 RES1    0.0000
     46 H14        2.5305   16.2435    2.6475 H         1 RES1    0.0000
     47 H15        4.1065   16.5176    2.6164 H         1 RES1    0.0000
     48 H16        3.2113   17.1246    3.7965 H         1 RES1    0.0000
     49 C20        3.7899   11.4037    1.3262 C.2       1 RES1    0.0000
     50 C21        4.2218   11.4566   -0.0993 C.3       1 RES1    0.0000
     51 H17        3.4357   11.3925   -0.6814 H         1 RES1    0.0000
     52 H18        4.8281   10.7088   -0.2850 H         1 RES1    0.0000
     53 H19        4.6852   12.3029   -0.2694 H         1 RES1    0.0000
     54 C22        8.6035   11.9888    4.6175 C.3       1 RES1    0.0000
     55 H20        8.9639   11.2717    5.1793 H         1 RES1    0.0000
     56 H21        9.0061   12.8430    4.8809 H         1 RES1    0.0000
     57 H22        8.8125   11.8036    3.6785 H         1 RES1    0.0000
     58 C23        5.3814    8.8932    2.4712 C.ar      1 RES1    0.0000
     59 C24        6.5832    9.1970    1.8446 C.ar      1 RES1    0.0000
     60 H23        7.1503    9.8880    2.1666 H         1 RES1    0.0000
     61 C25        6.9206    8.4415    0.7210 C.ar      1 RES1    0.0000
     62 H24        7.7359    8.6267    0.2694 H         1 RES1    0.0000
     63 C26        6.1099    7.4385    0.2452 C.ar      1 RES1    0.0000
     64 H25        6.3704    6.9445   -0.5233 H         1 RES1    0.0000
     65 C27        4.9103    7.1427    0.8822 C.ar      1 RES1    0.0000
     66 H26        4.3494    6.4517    0.5500 H         1 RES1    0.0000
     67 C28        4.5369    7.8674    2.0149 C.ar      1 RES1    0.0000
@<TRIPOS>BOND
     1    1   12 2
     2    2   31 1
     3    3   33 2
     4    4   12 2
     5    5   20 2
     6    6   24 2
     7    7   25 1
     8    8   29 1
     9    9   44 2
    10   10   27 1
    11   11   49 2
    12   12   14 1
    13   13   24 1
    14   14   15 ar
    15   15   16 1
    16   17   15 ar
    17   18   17 1
    18   19   17 ar
    19   20   19 1
    20   21   20 1
    21   22   21 1
    22   23   21 2
    23   24   23 1
    24   25   13 1
    25   26   25 1
    26   27   25 1
    27   28   27 1
    28   29   27 1
    29   30   29 1
    30   31   29 1
    31   32   31 1
    32   33    2 1
    33   34   14 ar
    34   35   34 1
    35   36   19 ar
    36   37   36 1
    37   38    7 1
    38   39   38 1
    39   40   33 1
    40   41   40 1
    41   42   40 1
    42   43   40 1
    43   44    8 1
    44   45   44 1
    45   46   45 1
    46   47   45 1
    47   48   45 1
    48   49   10 1
    49   50   49 1
    50   51   50 1
    51   52   50 1
    52   53   50 1
    53   54   38 1
    54   55   54 1
    55   56   54 1
    56   57   54 1
    57   58   13 1
    58   59   58 ar
    59   60   59 1
    60   61   59 ar
    61   62   61 1
    62   63   61 ar
    63   64   63 1
    64   65   63 ar
    65   66   65 1
    66   67   23 1
    67   31   38 1
    68   34   36 ar
    69   58   67 ar
    70   65   67 ar
@<TRIPOS>SUBSTRUCTURE
     1 RES1 1

@<TRIPOS>CRYSIN
   7.6844   16.3169   22.2670  90.0000  90.0000  90.0000  19 1

