# MOL2 file generated by ConQuest
# Please check atom types

@<TRIPOS>MOLECULE
TUWCUJ
    74    76     2
SMALL
NO_CHARGES
****
Generated from CSD

@<TRIPOS>ATOM
      1 N1         3.3974   10.8385    2.4075 N.am      1 RES1    0.0000
      2 O1         4.3902   11.8095    2.2316 O.3       1 RES1    0.0000
      3 C1         2.9521   10.1961    1.3075 C.2       1 RES1    0.0000
      4 O2         3.5597   10.1035    0.2572 O.2       1 RES1    0.0000
      5 C2         1.6130    9.6456    1.6441 C.3       1 RES1    0.0000
      6 H1         1.5936    8.6851    1.5069 H         1 RES1    0.0000
      7 H2         0.9269   10.0534    1.0951 H         1 RES1    0.0000
      8 C3         1.3964    9.9817    3.1120 C.3       1 RES1    0.0000
      9 H3         1.7644    9.2402    3.6364 H         1 RES1    0.0000
     10 C4         2.3256   11.2139    3.3400 C.3       1 RES1    0.0000
     11 C5         5.6810   11.2168    2.2740 C.3       1 RES1    0.0000
     12 H4         5.7647   10.6895    3.0715 H         1 RES1    0.0000
     13 H5         6.3495   11.9046    2.2726 H         1 RES1    0.0000
     14 H6         5.7999   10.6543    1.5054 H         1 RES1    0.0000
     15 C6        -0.0380   10.2125    3.5989 C.3       1 RES1    0.0000
     16 H7        -0.3616   11.0490    3.2565 H         1 RES1    0.0000
     17 H8        -0.0510   10.2329    4.5582 H         1 RES1    0.0000
     18 H9        -0.5998    9.5002    3.2868 H         1 RES1    0.0000
     19 C7         2.8136   11.3015    4.7576 C.2       1 RES1    0.0000
     20 C8         2.4902   12.3619    5.4915 C.2       1 RES1    0.0000
     21 H10        2.7723   12.3761    6.3786 H         1 RES1    0.0000
     22 C9         1.7297   13.4970    5.0090 C.2       1 RES1    0.0000
     23 O3         1.3943   14.4234    5.7442 O.2       1 RES1    0.0000
     24 C10        1.3917   13.5025    3.6076 C.2       1 RES1    0.0000
     25 H11        0.9729   14.2454    3.2377 H         1 RES1    0.0000
     26 C11        1.6723   12.4634    2.8447 C.2       1 RES1    0.0000
     27 H12        1.4494   12.5114    1.9432 H         1 RES1    0.0000
     28 C12        4.8872   10.6286    5.9914 C.3       1 RES1    0.0000
     29 H13        5.3721   11.1998    5.3904 H         1 RES1    0.0000
     30 H14        5.4305    9.8714    6.2211 H         1 RES1    0.0000
     31 H15        4.6653   11.1165    6.7875 H         1 RES1    0.0000
     32 C13        3.6139   10.1516    5.3167 C.3       1 RES1    0.0000
     33 H16        3.8660    9.5675    4.5726 H         1 RES1    0.0000
     34 C14        2.7833    9.3301    6.3049 C.3       1 RES1    0.0000
     35 H17        2.6321    9.8450    7.1010 H         1 RES1    0.0000
     36 H18        3.2559    8.5256    6.5274 H         1 RES1    0.0000
     37 H19        1.9395    9.1061    5.9047 H         1 RES1    0.0000
     38 N2         1.6972    5.2372    2.7015 N.am      2 RES2    0.0000
     39 O4         1.1216    6.4414    3.1669 O.3       2 RES2    0.0000
     40 C15        1.1395    4.6501    1.5835 C.2       2 RES2    0.0000
     41 O5         0.0057    4.8266    1.2194 O.2       2 RES2    0.0000
     42 C16        2.1960    3.8070    0.9709 C.3       2 RES2    0.0000
     43 H20        2.4186    4.1303    0.0838 H         2 RES2    0.0000
     44 H21        1.8983    2.8865    0.9001 H         2 RES2    0.0000
     45 C17        3.3961    3.9058    1.8883 C.3       2 RES2    0.0000
     46 H22        3.3169    3.1784    2.5399 H         2 RES2    0.0000
     47 C18        3.1519    5.2507    2.6728 C.3       2 RES2    0.0000
     48 C19        0.1088    6.1747    4.1291 C.3       2 RES2    0.0000
     49 H23       -0.5975    5.6709    3.7174 H         2 RES2    0.0000
     50 H24       -0.2412    7.0039    4.4614 H         2 RES2    0.0000
     51 H25        0.4824    5.6704    4.8544 H         2 RES2    0.0000
     52 C20        4.8408    3.8064    1.2642 C.3       2 RES2    0.0000
     53 H26        5.0108    2.9003    0.9940 H         2 RES2    0.0000
     54 H27        5.4907    4.0722    1.9186 H         2 RES2    0.0000
     55 H28        4.9006    4.3845    0.4999 H         2 RES2    0.0000
     56 C21        3.7415    5.1874    4.0628 C.2       2 RES2    0.0000
     57 C22        4.6824    6.0595    4.4152 C.2       2 RES2    0.0000
     58 H29        5.0570    5.9721    5.2618 H         2 RES2    0.0000
     59 C23        5.1616    7.1274    3.5801 C.2       2 RES2    0.0000
     60 O6         6.0209    7.9153    3.9514 O.2       2 RES2    0.0000
     61 C24        4.5383    7.2626    2.2610 C.2       2 RES2    0.0000
     62 H30        4.7914    7.9618    1.7019 H         2 RES2    0.0000
     63 C25        3.6276    6.4087    1.8580 C.2       2 RES2    0.0000
     64 H31        3.2568    6.5318    1.0142 H         2 RES2    0.0000
     65 C26        2.8506    4.6702    6.3511 C.3       2 RES2    0.0000
     66 H32        3.6120    5.0304    6.8106 H         2 RES2    0.0000
     67 H33        2.4559    3.9749    6.8828 H         2 RES2    0.0000
     68 H34        2.2061    5.3669    6.2052 H         2 RES2    0.0000
     69 C27        3.2933    4.0951    5.0046 C.3       2 RES2    0.0000
     70 H35        2.5260    3.6387    4.6001 H         2 RES2    0.0000
     71 C28        4.3956    3.0723    5.2185 C.3       2 RES2    0.0000
     72 H36        4.6122    2.6554    4.3819 H         2 RES2    0.0000
     73 H37        4.0964    2.4055    5.8411 H         2 RES2    0.0000
     74 H38        5.1751    3.5101    5.5695 H         2 RES2    0.0000
@<TRIPOS>BOND
     1    1    2 1
     2    2   11 1
     3    3    1 1
     4    4    3 2
     5    5    3 1
     6    6    5 1
     7    7    5 1
     8    8    5 1
     9    9    8 1
    10   10    1 1
    11   11   12 1
    12   13   11 1
    13   14   11 1
    14   15    8 1
    15   16   15 1
    16   17   15 1
    17   18   15 1
    18   19   10 1
    19   20   19 2
    20   21   20 1
    21   22   20 1
    22   23   22 2
    23   24   22 1
    24   25   24 1
    25   26   10 1
    26   27   26 1
    27   28   29 1
    28   30   28 1
    29   31   28 1
    30   32   19 1
    31   33   32 1
    32   34   32 1
    33   35   34 1
    34   36   34 1
    35   37   34 1
    36   38   39 1
    37   39   48 1
    38   40   38 1
    39   41   40 2
    40   42   40 1
    41   43   42 1
    42   44   42 1
    43   45   42 1
    44   46   45 1
    45   47   38 1
    46   48   49 1
    47   50   48 1
    48   51   48 1
    49   52   45 1
    50   53   52 1
    51   54   52 1
    52   55   52 1
    53   56   47 1
    54   57   56 2
    55   58   57 1
    56   59   57 1
    57   60   59 2
    58   61   59 1
    59   62   61 1
    60   63   47 1
    61   64   63 1
    62   65   66 1
    63   67   65 1
    64   68   65 1
    65   69   56 1
    66   70   69 1
    67   71   69 1
    68   72   71 1
    69   73   71 1
    70   74   71 1
    71    8   10 1
    72   24   26 2
    73   28   32 1
    74   45   47 1
    75   61   63 2
    76   65   69 1
@<TRIPOS>SUBSTRUCTURE
     1 RES1 1
     2 RES2 38

@<TRIPOS>CRYSIN
   8.7808   11.3943   15.3131  70.7120  88.1550  79.7070   2 1

