# MOL2 file generated by ConQuest
# Please check atom types

@<TRIPOS>MOLECULE
TUWLIG
    34    37     1
SMALL
NO_CHARGES
****
Generated from CSD

@<TRIPOS>ATOM
      1 O1         3.3499    2.0910    5.0739 O.3       1 RES1    0.0000
      2 C1         4.1757    2.1356    3.9088 C.3       1 RES1    0.0000
      3 H1         4.9793    1.6082    4.0378 H         1 RES1    0.0000
      4 H2         4.4312    3.0484    3.7036 H         1 RES1    0.0000
      5 C2         3.3102    1.5441    2.7792 C.3       1 RES1    0.0000
      6 H3         3.6510    0.6645    2.5120 H         1 RES1    0.0000
      7 C3         1.9257    1.4037    3.4577 C.3       1 RES1    0.0000
      8 H4         1.8783    0.5225    3.8844 H         1 RES1    0.0000
      9 C4         0.7253    1.5595    2.5496 C.ar      1 RES1    0.0000
     10 C5         0.6343    0.6507    1.4902 C.ar      1 RES1    0.0000
     11 H5         1.2975    0.0065    1.3906 H         1 RES1    0.0000
     12 C6        -0.3980    0.6816    0.5973 C.ar      1 RES1    0.0000
     13 H6        -0.4355    0.0617   -0.0955 H         1 RES1    0.0000
     14 C7        -1.3835    1.6333    0.7263 C.ar      1 RES1    0.0000
     15 H7        -2.0874    1.6690    0.1199 H         1 RES1    0.0000
     16 C8        -1.3137    2.5299    1.7654 C.ar      1 RES1    0.0000
     17 H8        -1.9819    3.1710    1.8447 H         1 RES1    0.0000
     18 C9        -0.2888    2.5202    2.6990 C.ar      1 RES1    0.0000
     19 C10       -0.3288    3.5247    3.8255 C.3       1 RES1    0.0000
     20 H9         0.3743    4.1779    3.6833 H         1 RES1    0.0000
     21 H10       -1.1763    3.9945    3.7919 H         1 RES1    0.0000
     22 C11       -0.1626    2.9316    5.1968 C.ar      1 RES1    0.0000
     23 C12       -1.1544    2.9738    6.1648 C.ar      1 RES1    0.0000
     24 H11       -1.9801    3.3478    5.9596 H         1 RES1    0.0000
     25 C13       -0.9284    2.4626    7.4366 C.ar      1 RES1    0.0000
     26 H12       -1.5996    2.5056    8.0786 H         1 RES1    0.0000
     27 C14        0.2703    1.9003    7.7464 C.ar      1 RES1    0.0000
     28 H13        0.4112    1.5530    8.5976 H         1 RES1    0.0000
     29 C15        1.2778    1.8403    6.8058 C.ar      1 RES1    0.0000
     30 H14        2.0976    1.4565    7.0191 H         1 RES1    0.0000
     31 C16        1.0565    2.3587    5.5421 C.ar      1 RES1    0.0000
     32 N1         2.0481    2.4237    4.5111 N.3       1 RES1    0.0000
     33 C17        3.2831    2.4488    1.6354 C.1       1 RES1    0.0000
     34 N2         3.2915    3.1896    0.7568 N.1       1 RES1    0.0000
@<TRIPOS>BOND
     1    1    2 1
     2    2    3 1
     3    4    2 1
     4    5    2 1
     5    6    5 1
     6    7    5 1
     7    8    7 1
     8    9    7 1
     9   10    9 ar
    10   11   10 1
    11   12   10 ar
    12   13   12 1
    13   14   12 ar
    14   15   14 1
    15   16   14 ar
    16   17   16 1
    17   18    9 ar
    18   19   18 1
    19   20   19 1
    20   21   19 1
    21   22   19 1
    22   23   22 ar
    23   24   23 1
    24   25   23 ar
    25   26   25 1
    26   27   25 ar
    27   28   27 1
    28   29   27 ar
    29   30   29 1
    30   31   22 ar
    31   32    1 1
    32   33    5 1
    33   34   33 3
    34    7   32 1
    35   16   18 ar
    36   29   31 ar
    37   31   32 1
@<TRIPOS>SUBSTRUCTURE
     1 RES1 1

@<TRIPOS>CRYSIN
   8.1660    8.1140   10.6710  90.0000 107.8400  90.0000   4 1

