# MOL2 file generated by ConQuest
# Please check atom types

@<TRIPOS>MOLECULE
TUXPOT
   109   108     3
SMALL
NO_CHARGES
****
Generated from CSD

@<TRIPOS>ATOM
      1 C1         3.0470   12.3452    5.0811 C.3       1 RES1    0.0000
      2 C2         1.6763   12.9948    5.3848 C.3       1 RES1    0.0000
      3 H1         1.5653   13.8052    4.8086 H         1 RES1    0.0000
      4 C3         1.5646   13.4030    6.8345 C.3       1 RES1    0.0000
      5 H2         0.6528   13.7509    7.0042 H         1 RES1    0.0000
      6 H3         2.2059   14.1370    7.0151 H         1 RES1    0.0000
      7 C4         1.8511   12.2226    7.8171 C.3       1 RES1    0.0000
      8 H4         1.1977   11.4966    7.6037 H         1 RES1    0.0000
      9 C5         3.2358   11.6796    7.5212 C.3       1 RES1    0.0000
     10 H5         3.4162   10.9034    8.1083 H         1 RES1    0.0000
     11 H6         3.9113   12.3754    7.7174 H         1 RES1    0.0000
     12 C6         3.3608   11.2493    6.0590 C.3       1 RES1    0.0000
     13 H7         4.2837   10.9315    5.8971 H         1 RES1    0.0000
     14 H8         2.7472   10.4911    5.8940 H         1 RES1    0.0000
     15 C7         3.1246   11.8907    3.6625 C.3       1 RES1    0.0000
     16 H9         2.7895   12.5986    3.0739 H         1 RES1    0.0000
     17 H10        2.5785   11.0844    3.5488 H         1 RES1    0.0000
     18 H11        4.0560   11.6897    3.4352 H         1 RES1    0.0000
     19 C8         1.6204   12.6247    9.2917 C.3       1 RES1    0.0000
     20 H12        0.6855   12.9746    9.3587 H         1 RES1    0.0000
     21 C9         1.7038   11.4021   10.1980 C.3       1 RES1    0.0000
     22 H13        2.6399   11.1165   10.2743 H         1 RES1    0.0000
     23 H14        1.1711   10.6741    9.8165 H         1 RES1    0.0000
     24 H15        1.3610   11.6293   11.0872 H         1 RES1    0.0000
     25 C10        2.5450   13.7267    9.7822 C.3       1 RES1    0.0000
     26 H16        2.2656   14.0143   10.6761 H         1 RES1    0.0000
     27 H17        2.5026   14.4869    9.1656 H         1 RES1    0.0000
     28 H18        3.4644   13.3889    9.8196 H         1 RES1    0.0000
     29 C11        4.8203   15.3154    4.7245 C.2       1 RES1    0.0000
     30 H19        5.4161   15.1244    5.4393 H         1 RES1    0.0000
     31 C12        4.9790   16.5863    4.0082 C.ar      1 RES1    0.0000
     32 C13        4.1245   17.0066    2.9649 C.ar      1 RES1    0.0000
     33 C14        4.3231   18.2896    2.3856 C.ar      1 RES1    0.0000
     34 H20        3.7382   18.5993    1.7051 H         1 RES1    0.0000
     35 C15        5.3570   19.0799    2.8107 C.ar      1 RES1    0.0000
     36 H21        5.4937   19.9225    2.3934 H         1 RES1    0.0000
     37 C16        6.2271   18.6898    3.8369 C.ar      1 RES1    0.0000
     38 H22        6.9299   19.2609    4.1265 H         1 RES1    0.0000
     39 C17        6.0284   17.4349    4.4255 C.ar      1 RES1    0.0000
     40 C18        2.3181   16.5541    1.4902 C.3       1 RES1    0.0000
     41 H23        2.0626   17.4973    1.5805 H         1 RES1    0.0000
     42 H24        1.5127   15.9971    1.4902 H         1 RES1    0.0000
     43 H25        2.8038   16.4275    0.6493 H         1 RES1    0.0000
     44 C19        7.8829   17.7366    5.9064 C.3       1 RES1    0.0000
     45 H26        7.5286   18.5530    6.3175 H         1 RES1    0.0000
     46 H27        8.4666   17.9759    5.1558 H         1 RES1    0.0000
     47 H28        8.3961   17.2318    6.5713 H         1 RES1    0.0000
     48 N1         3.9259   14.4587    4.4364 N.2       1 RES1    0.0000
     49 O1         0.6938   12.0375    5.0282 O.3       1 RES1    0.0000
     50 H29       -0.0712   12.3553    5.1699 H         1 RES1    0.0000
     51 O2         4.0763   13.3547    5.3412 O.3       1 RES1    0.0000
     52 O3         3.1641   16.1781    2.5974 O.3       1 RES1    0.0000
     53 O4         6.8110   16.9423    5.4346 O.3       1 RES1    0.0000
     54 C20       -0.1023    7.7502    2.1941 C.3       2 RES2    0.0000
     55 C21        1.2609    7.1228    2.5055 C.3       2 RES2    0.0000
     56 H30        1.3837    6.3526    1.9122 H         2 RES2    0.0000
     57 C22        1.3271    6.6261    3.9537 C.3       2 RES2    0.0000
     58 H31        0.6805    5.8861    4.0674 H         2 RES2    0.0000
     59 H32        2.2324    6.2661    4.1265 H         2 RES2    0.0000
     60 C23        1.0235    7.7100    4.9846 C.3       2 RES2    0.0000
     61 H33        1.7063    8.4319    4.8662 H         2 RES2    0.0000
     62 C24       -0.3544    8.3273    4.6607 C.3       2 RES2    0.0000
     63 H34       -1.0590    7.6456    4.8070 H         2 RES2    0.0000
     64 H35       -0.5273    9.0815    5.2773 H         2 RES2    0.0000
     65 C25       -0.4239    8.8180    3.2421 C.3       2 RES2    0.0000
     66 H36        0.1906    9.5480    3.1362 H         2 RES2    0.0000
     67 H37       -1.3341    9.1438    3.0786 H         2 RES2    0.0000
     68 C26       -0.1693    8.2409    0.7646 C.3       2 RES2    0.0000
     69 H38       -0.1098    7.4787    0.1526 H         2 RES2    0.0000
     70 H39        0.5758    8.8542    0.5948 H         2 RES2    0.0000
     71 H40       -1.0174    8.7114    0.6198 H         2 RES2    0.0000
     72 C27        1.1438    7.2012    6.4172 C.3       2 RES2    0.0000
     73 H41        2.0677    6.8332    6.5231 H         2 RES2    0.0000
     74 C28        0.1614    6.0771    6.7847 C.3       2 RES2    0.0000
     75 H42        0.3958    5.7151    7.6660 H         2 RES2    0.0000
     76 H43        0.2187    5.3632    6.1151 H         2 RES2    0.0000
     77 H44       -0.7486    6.4330    6.8080 H         2 RES2    0.0000
     78 C29        0.9830    8.3294    7.4574 C.3       2 RES2    0.0000
     79 H45        0.1024    8.7456    7.3530 H         2 RES2    0.0000
     80 H46        1.6815    9.0030    7.3188 H         2 RES2    0.0000
     81 H47        1.0629    7.9553    8.3590 H         2 RES2    0.0000
     82 C30       -1.8823    4.7820    1.8188 C.2       2 RES2    0.0000
     83 H48       -2.4680    4.9872    2.5382 H         2 RES2    0.0000
     84 C31       -2.0833    3.5071    1.1243 C.ar      2 RES2    0.0000
     85 C32       -3.1183    2.6907    1.5759 C.ar      2 RES2    0.0000
     86 C33       -3.3738    1.4519    0.9826 C.ar      2 RES2    0.0000
     87 H49       -4.1085    0.9210    1.2660 H         2 RES2    0.0000
     88 C34       -2.5421    1.0175   -0.0234 C.ar      2 RES2    0.0000
     89 H50       -2.6981    0.1669   -0.4158 H         2 RES2    0.0000
     90 C35       -1.4983    1.7737   -0.4718 C.ar      2 RES2    0.0000
     91 H51       -0.9378    1.4499   -1.1663 H         2 RES2    0.0000
     92 C36       -1.2549    3.0426    0.1028 C.ar      2 RES2    0.0000
     93 C37       -5.0054    2.4936    3.0116 C.3       2 RES2    0.0000
     94 H52       -5.6281    2.3588    2.2673 H         2 RES2    0.0000
     95 H53       -5.4583    2.9802    3.7326 H         2 RES2    0.0000
     96 H54       -4.7023    1.6248    3.3464 H         2 RES2    0.0000
     97 C38        0.5590    3.4528   -1.4061 C.3       2 RES2    0.0000
     98 H55        1.0520    2.6364   -1.1741 H         2 RES2    0.0000
     99 H56        1.1937    4.1687   -1.6179 H         2 RES2    0.0000
    100 H57       -0.0105    3.2778   -2.1847 H         2 RES2    0.0000
    101 N2        -0.9875    5.6286    1.5323 N.2       2 RES2    0.0000
    102 O5         2.2571    8.0498    2.2190 O.3       2 RES2    0.0000
    103 H58        1.9288    8.6752    1.8063 H         2 RES2    0.0000
    104 O6        -1.1321    6.7447    2.4074 O.3       2 RES2    0.0000
    105 O7        -0.2550    3.8490   -0.2974 O.3       2 RES2    0.0000
    106 O8        -3.9042    3.2336    2.5709 O.3       2 RES2    0.0000
    107 H59        1.9554    7.7683    2.3514 Du        3 SUP3    0.0000
    108 O9         0.4911    9.9160    3.0459 Du        3 SUP3    0.0000
    109 H60        0.0769   10.5132    2.6721 Du        3 SUP3    0.0000
@<TRIPOS>BOND
     1    1    2 1
     2    2    3 1
     3    4    2 1
     4    5    4 1
     5    6    4 1
     6    7    4 1
     7    8    7 1
     8    9    7 1
     9   10    9 1
    10   11    9 1
    11   12    1 1
    12   13   12 1
    13   14   12 1
    14   15    1 1
    15   16   15 1
    16   17   15 1
    17   18   15 1
    18   19    7 1
    19   20   19 1
    20   21   19 1
    21   22   21 1
    22   23   21 1
    23   24   21 1
    24   25   19 1
    25   26   25 1
    26   27   25 1
    27   28   25 1
    28   29   30 1
    29   31   29 1
    30   32   31 ar
    31   33   32 ar
    32   34   33 1
    33   35   33 ar
    34   36   35 1
    35   37   35 ar
    36   38   37 1
    37   39   31 ar
    38   40   41 1
    39   42   40 1
    40   43   40 1
    41   44   45 1
    42   46   44 1
    43   47   44 1
    44   48   29 2
    45   49    2 1
    46   50   49 1
    47   51    1 1
    48   52   32 1
    49   53   39 1
    50   54   55 1
    51   55   56 1
    52   57   55 1
    53   58   57 1
    54   59   57 1
    55   60   57 1
    56   61   60 1
    57   62   60 1
    58   63   62 1
    59   64   62 1
    60   65   54 1
    61   66   65 1
    62   67   65 1
    63   68   54 1
    64   69   68 1
    65   70   68 1
    66   71   68 1
    67   72   60 1
    68   73   72 1
    69   74   72 1
    70   75   74 1
    71   76   74 1
    72   77   74 1
    73   78   72 1
    74   79   78 1
    75   80   78 1
    76   81   78 1
    77   82   83 1
    78   84   82 1
    79   85   84 ar
    80   86   85 ar
    81   87   86 1
    82   88   86 ar
    83   89   88 1
    84   90   88 ar
    85   91   90 1
    86   92   84 ar
    87   93   94 1
    88   95   93 1
    89   96   93 1
    90   97   98 1
    91   99   97 1
    92  100   97 1
    93  101   82 2
    94  102   55 1
    95  103  102 1
    96  104   54 1
    97  105   92 1
    98  106   85 1
    99    9   12 1
   100   37   39 ar
   101   40   52 1
   102   44   53 1
   103   48   51 1
   104   62   65 1
   105   90   92 ar
   106   93  106 1
   107   97  105 1
   108  101  104 1
@<TRIPOS>SUBSTRUCTURE
     1 RES1 1
     2 RES2 54
     3 SUP3 107

@<TRIPOS>CRYSIN
   5.9305   20.1095   15.5730  90.0000  90.6900  90.0000   4 1

