# MOL2 file generated by ConQuest
# Please check atom types

@<TRIPOS>MOLECULE
TUYMEF
    43    44     1
SMALL
USER_CHARGES
****
Generated from CSD

@<TRIPOS>ATOM
      1 C1         2.5722    5.0420    1.8246 C.ar      1 RES1    0.0000
      2 C2         3.1904    4.7525    3.0506 C.ar      1 RES1    0.0000
      3 C3         2.5765    3.9893    4.0323 C.ar      1 RES1    0.0000
      4 C4         1.2865    3.4775    3.7380 C.ar      1 RES1    0.0000
      5 C5         0.6780    3.7443    2.5244 C.ar      1 RES1    0.0000
      6 C6         1.2916    4.5206    1.5732 C.ar      1 RES1    0.0000
      7 C7         3.3230    5.8611    0.9012 C.2       1 RES1    0.0000
      8 C8         4.3378    4.2896    5.7777 C.2       1 RES1    0.0000
      9 C9         4.7263    3.7807    7.1330 C.3       1 RES1    0.0000
     10 C10        5.0092    7.5886   -0.7429 C.ar      1 RES1    0.0000
     11 C11        5.7468    8.3797   -1.5885 C.ar      1 RES1    0.0000
     12 C12        5.2626    8.7696   -2.8368 C.ar      1 RES1    0.0000
     13 C13        3.9968    8.2903   -3.1950 C.ar      1 RES1    0.0000
     14 C14        3.2655    7.4894   -2.3508 C.ar      1 RES1    0.0000
     15 C15        3.7491    7.1376   -1.1053 C.ar      1 RES1    0.0000
     16 C16        7.3185    9.9926   -3.3006 C.3       1 RES1    0.0000
     17 C17        5.5038    9.9218   -4.9849 C.3       1 RES1    0.0000
     18 N1         3.2010    3.7375    5.2668 N.am      1 RES1    0.0000
     19 N2         0.5446    2.6363    4.6530 N.pl3     1 RES1    0.0000
     20 N3         2.9237    6.2941   -0.2652 N.pl3     1 RES1    1.0000
     21 N4         5.9909    9.5813   -3.6630 N.pl3     1 RES1    0.0000
     22 O1         1.0026    2.3644    5.7611 O.2       1 RES1    0.0000
     23 O2        -0.5445    2.1980    4.3128 O.2       1 RES1    0.0000
     24 O3         4.9946    5.1288    5.2084 O.2       1 RES1    0.0000
     25 O4         1.7624    6.0235   -0.7345 O.2       1 RES1   -1.0000
     26 H1         2.7509    3.1765    5.7625 H         1 RES1    0.0000
     27 H2         4.1500    5.1337    3.1659 H         1 RES1    0.0000
     28 H3        -0.1778    3.3336    2.3328 H         1 RES1    0.0000
     29 H4         0.8163    4.6611    0.6665 H         1 RES1    0.0000
     30 H5         4.2062    6.1924    1.1664 H         1 RES1    0.0000
     31 H6         5.4078    7.4060    0.0555 H         1 RES1    0.0000
     32 H7         6.6922    8.7306   -1.2913 H         1 RES1    0.0000
     33 H8         3.5875    8.5002   -4.0546 H         1 RES1    0.0000
     34 H9         2.4281    7.1787   -2.5966 H         1 RES1    0.0000
     35 H10        4.0985    3.2367    7.5120 H         1 RES1    0.0000
     36 H11        4.9645    4.5092    7.6509 H         1 RES1    0.0000
     37 H12        5.6064    3.3574    7.0816 H         1 RES1    0.0000
     38 H13        7.3673   10.3741   -2.4438 H         1 RES1    0.0000
     39 H14        7.7053   10.5891   -3.9018 H         1 RES1    0.0000
     40 H15        7.8592    9.2643   -3.2492 H         1 RES1    0.0000
     41 H16        6.1349   10.5742   -5.3459 H         1 RES1    0.0000
     42 H17        4.6126   10.4016   -4.9155 H         1 RES1    0.0000
     43 H18        5.4203    9.1424   -5.4986 H         1 RES1    0.0000
@<TRIPOS>BOND
     1    1    2 ar
     2    2    3 ar
     3    3    4 ar
     4    4    5 ar
     5    5    6 ar
     6    6    1 ar
     7    7    1 1
     8    8    9 1
     9    9   35 1
    10   10   11 ar
    11   11   12 ar
    12   12   13 ar
    13   13   14 ar
    14   14   15 ar
    15   15   10 ar
    16   16   21 1
    17   17   21 1
    18   18    3 1
    19   19    4 1
    20   20    7 2
    21   21   12 1
    22   22   19 2
    23   23   19 2
    24   24    8 2
    25   25   20 1
    26   26   18 1
    27   27    2 1
    28   28    5 1
    29   29    6 1
    30   30    7 1
    31   31   10 1
    32   32   11 1
    33   33   13 1
    34   34   14 1
    35   36    9 1
    36   37    9 1
    37   38   16 1
    38   39   16 1
    39   40   16 1
    40   41   17 1
    41   42   17 1
    42   43   17 1
    43    8   18 1
    44   15   20 1
@<TRIPOS>SUBSTRUCTURE
     1 RES1 1

@<TRIPOS>CRYSIN
   6.8130    8.6460   14.6440  75.4500  78.5600  89.1000   2 1

