# MOL2 file generated by ConQuest
# Please check atom types

@<TRIPOS>MOLECULE
UBASAT
    86    76     3
SMALL
NO_CHARGES
****
Generated from CSD

@<TRIPOS>ATOM
      1 O1         5.7993    2.0039    3.2459 O.3       1 RES1    0.0000
      2 N1         4.1484    0.6884    0.5374 N.2       1 RES1    0.0000
      3 O2         3.8436   -0.5061    1.2337 O.3       1 RES1    0.0000
      4 H1         3.0893   -0.8058    0.8317 H         1 RES1    0.0000
      5 O3         2.7543    4.1592   -4.2727 O.3       1 RES1    0.0000
      6 C1         6.3257    3.2760    2.7948 C.3       1 RES1    0.0000
      7 C2         5.6270    3.6882    1.4959 C.3       1 RES1    0.0000
      8 H2         6.0759    4.4951    1.1375 H         1 RES1    0.0000
      9 H3         4.6912    3.9352    1.7062 H         1 RES1    0.0000
     10 C3         5.6146    2.6077    0.4014 C.3       1 RES1    0.0000
     11 H4         6.5638    2.4571    0.1264 H         1 RES1    0.0000
     12 C4         5.1266    1.3253    1.0421 C.2       1 RES1    0.0000
     13 C5         5.8781    0.9467    2.2895 C.3       1 RES1    0.0000
     14 H5         5.4918    0.1208    2.6745 H         1 RES1    0.0000
     15 H6         6.8263    0.7698    2.0671 H         1 RES1    0.0000
     16 C6         5.9372    4.2448    3.8993 C.3       1 RES1    0.0000
     17 H7         6.3948    3.9952    4.7294 H         1 RES1    0.0000
     18 H8         4.9674    4.2094    4.0383 H         1 RES1    0.0000
     19 H9         6.1972    5.1540    3.6428 H         1 RES1    0.0000
     20 C7         7.8373    3.2047    2.6698 C.3       1 RES1    0.0000
     21 H10        8.2206    2.8934    3.5164 H         1 RES1    0.0000
     22 H11        8.1902    4.0946    2.4585 H         1 RES1    0.0000
     23 H12        8.0766    2.5801    1.9529 H         1 RES1    0.0000
     24 C8         4.8474    3.0246   -0.8450 C.ar      1 RES1    0.0000
     25 C9         3.6036    3.6600   -0.7997 C.ar      1 RES1    0.0000
     26 H13        3.2103    3.8498    0.0448 H         1 RES1    0.0000
     27 C10        2.9349    4.0176   -1.9509 C.ar      1 RES1    0.0000
     28 H14        2.0876    4.4437   -1.8938 H         1 RES1    0.0000
     29 C11        3.4966    3.7568   -3.1903 C.ar      1 RES1    0.0000
     30 C12        4.7291    3.1327   -3.2702 C.ar      1 RES1    0.0000
     31 H15        5.1210    2.9535   -4.1158 H         1 RES1    0.0000
     32 C13        5.3923    2.7685   -2.0938 C.ar      1 RES1    0.0000
     33 H16        6.2359    2.3359   -2.1527 H         1 RES1    0.0000
     34 C14        3.3617    4.1192   -5.5509 C.3       1 RES1    0.0000
     35 H17        2.7715    4.5454   -6.2073 H         1 RES1    0.0000
     36 H18        3.5186    3.1863   -5.8098 H         1 RES1    0.0000
     37 H19        4.2167    4.5976   -5.5223 H         1 RES1    0.0000
     38 O4         2.8464   10.1137    6.6598 O.3       2 RES2    0.0000
     39 C15        2.8050   10.2886    8.0693 C.3       2 RES2    0.0000
     40 H20        3.7092   10.1514    8.4476 H         2 RES2    0.0000
     41 H21        2.1972    9.6177    8.4700 H         2 RES2    0.0000
     42 C16        3.1916   12.4686    6.2515 C.3       2 RES2    0.0000
     43 H22        2.2809   12.5682    5.8750 H         2 RES2    0.0000
     44 H23        3.7781   13.1299    5.8057 H         2 RES2    0.0000
     45 C17        3.1491   12.7729    7.7776 C.3       2 RES2    0.0000
     46 H24        4.0810   12.7096    8.1357 H         2 RES2    0.0000
     47 N2         1.3762   11.9825    9.1933 N.2       2 RES2    0.0000
     48 O5         0.6891   10.8687    9.7247 O.3       2 RES2    0.0000
     49 H25        0.1334   11.3063   10.2619 H         2 RES2    0.0000
     50 O6         1.5312   18.1032    8.8779 O.3       2 RES2    0.0000
     51 C18        3.7094   11.0508    5.9508 C.3       2 RES2    0.0000
     52 C19        2.3228   11.6700    8.4032 C.2       2 RES2    0.0000
     53 C20        3.3477   10.7363    4.5157 C.3       2 RES2    0.0000
     54 H26        3.6561    9.8331    4.2911 H         2 RES2    0.0000
     55 H27        3.7772   11.3860    3.9201 H         2 RES2    0.0000
     56 H28        2.3749   10.7855    4.4052 H         2 RES2    0.0000
     57 C21        5.1829   10.8671    6.1661 C.3       2 RES2    0.0000
     58 H29        5.4371    9.9526    5.9239 H         2 RES2    0.0000
     59 H30        5.3976   11.0283    7.1083 H         2 RES2    0.0000
     60 H31        5.6762   11.5024    5.6059 H         2 RES2    0.0000
     61 C22        2.6302   14.1736    8.0468 C.ar      2 RES2    0.0000
     62 C23        1.4070   14.6524    7.5841 C.ar      2 RES2    0.0000
     63 H32        0.8455   14.0749    7.0798 H         2 RES2    0.0000
     64 C24        0.9828   15.9596    7.8407 C.ar      2 RES2    0.0000
     65 H33        0.1441   16.2681    7.5181 H         2 RES2    0.0000
     66 C25        1.8109   16.7977    8.5760 C.ar      2 RES2    0.0000
     67 C26        3.0174   16.3103    9.0608 C.ar      2 RES2    0.0000
     68 H34        3.5737   16.8742    9.5851 H         2 RES2    0.0000
     69 C27        3.4178   15.0253    8.7938 C.ar      2 RES2    0.0000
     70 H35        4.2512   14.7164    9.1285 H         2 RES2    0.0000
     71 C28        0.3304   18.6537    8.3571 C.3       2 RES2    0.0000
     72 H36        0.2491   19.5888    8.6413 H         2 RES2    0.0000
     73 H37       -0.4358   18.1425    8.6922 H         2 RES2    0.0000
     74 H38        0.3482   18.6093    7.3774 H         2 RES2    0.0000
     75 C29        3.8222   12.4375    6.6884 Du        3 SUP3    0.0000
     76 C30        2.5951   12.7356    7.1980 Du        3 SUP3    0.0000
     77 C31        2.3729   10.2016    7.7097 Du        3 SUP3    0.0000
     78 H39        4.4916   12.3826    7.4161 Du        3 SUP3    0.0000
     79 H40        4.1082   13.1402    6.0524 Du        3 SUP3    0.0000
     80 H41        1.8786   12.7190    6.5029 Du        3 SUP3    0.0000
     81 H42        2.1809    9.4933    8.3742 Du        3 SUP3    0.0000
     82 H43        1.7164   10.1374    6.9738 Du        3 SUP3    0.0000
     83 H44        5.6776   11.3995    5.5081 Du        3 SUP3    0.0000
     84 H45        5.4134    9.9204    6.0605 Du        3 SUP3    0.0000
     85 H46        5.4198   11.1623    7.0696 Du        3 SUP3    0.0000
     86 O7         3.7014   10.0770    7.2143 Du        3 SUP3    0.0000
@<TRIPOS>BOND
     1    1    6 1
     2    2    3 1
     3    3    4 1
     4    5   29 1
     5    6    7 1
     6    7    8 1
     7    9    7 1
     8   10    7 1
     9   11   10 1
    10   12    2 2
    11   13    1 1
    12   14   13 1
    13   15   13 1
    14   16    6 1
    15   17   16 1
    16   18   16 1
    17   19   16 1
    18   20    6 1
    19   21   20 1
    20   22   20 1
    21   23   20 1
    22   24   10 1
    23   25   24 ar
    24   26   25 1
    25   27   25 ar
    26   28   27 1
    27   29   27 ar
    28   30   29 ar
    29   31   30 1
    30   32   24 ar
    31   33   32 1
    32   34    5 1
    33   35   34 1
    34   36   34 1
    35   37   34 1
    36   38   39 1
    37   39   40 1
    38   41   39 1
    39   42   43 1
    40   44   42 1
    41   45   42 1
    42   46   45 1
    43   47   48 1
    44   48   49 1
    45   50   66 1
    46   51   38 1
    47   52   39 1
    48   53   51 1
    49   54   53 1
    50   55   53 1
    51   56   53 1
    52   57   51 1
    53   58   57 1
    54   59   57 1
    55   60   57 1
    56   61   45 1
    57   62   61 ar
    58   63   62 1
    59   64   62 ar
    60   65   64 1
    61   66   64 ar
    62   67   66 ar
    63   68   67 1
    64   69   61 ar
    65   70   69 1
    66   71   50 1
    67   72   71 1
    68   73   71 1
    69   74   71 1
    70   10   12 1
    71   12   13 1
    72   30   32 ar
    73   42   51 1
    74   45   52 1
    75   47   52 2
    76   67   69 ar
@<TRIPOS>SUBSTRUCTURE
     1 RES1 1
     2 RES2 38
     3 SUP3 75

@<TRIPOS>CRYSIN
   5.8578   10.9213   20.6073  81.5810  89.8500  88.0520   2 1

