# MOL2 file generated by ConQuest
# Please check atom types

@<TRIPOS>MOLECULE
UBATOI
    36    37     1
SMALL
NO_CHARGES
****
Generated from CSD

@<TRIPOS>ATOM
      1 C1         5.1476    1.1812    2.0612 C.ar      1 RES1    0.0000
      2 H1         5.6269    0.5511    2.5490 H         1 RES1    0.0000
      3 C2         3.7826    1.2812    2.2372 C.ar      1 RES1    0.0000
      4 H2         3.3624    0.7107    2.8396 H         1 RES1    0.0000
      5 C3         3.0264    2.1990    1.5490 C.ar      1 RES1    0.0000
      6 C4         3.6845    3.0289    0.6711 C.ar      1 RES1    0.0000
      7 H3         3.2033    3.6693    0.1978 H         1 RES1    0.0000
      8 C5         5.0505    2.9272    0.4793 C.ar      1 RES1    0.0000
      9 H4         5.4667    3.4942   -0.1302 H         1 RES1    0.0000
     10 C6         5.8143    2.0040    1.1692 C.ar      1 RES1    0.0000
     11 C7         1.5265    2.2937    1.7447 C.3       1 RES1    0.0000
     12 H5         1.1279    2.6976    0.9708 H         1 RES1    0.0000
     13 H6         1.3383    2.8292    2.5187 H         1 RES1    0.0000
     14 H7         1.1644    1.4135    1.8689 H         1 RES1    0.0000
     15 C8         7.3074    1.9576    0.9449 C.3       1 RES1    0.0000
     16 H8         7.4736    2.2446    0.0232 H         1 RES1    0.0000
     17 C9         8.1634    2.8775    1.8837 C.3       1 RES1    0.0000
     18 C10        9.3633    2.0315    2.2662 C.3       1 RES1    0.0000
     19 H9        10.1794    2.5548    2.2241 H         1 RES1    0.0000
     20 H10        9.2635    1.6813    3.1646 H         1 RES1    0.0000
     21 C11        7.9897    0.6069    1.1320 C.3       1 RES1    0.0000
     22 H11        7.6509    0.1528    1.9193 H         1 RES1    0.0000
     23 H12        7.8549    0.0390    0.3572 H         1 RES1    0.0000
     24 C12       10.2058   -0.1850    1.7417 C.3       1 RES1    0.0000
     25 H13        9.9043   -0.4697    2.6075 H         1 RES1    0.0000
     26 H14       11.1271    0.0814    1.7952 H         1 RES1    0.0000
     27 H15       10.1176   -0.9092    1.1181 H         1 RES1    0.0000
     28 C13        7.4004    3.4101    3.0760 C.3       1 RES1    0.0000
     29 H16        6.6753    3.9806    2.7771 H         1 RES1    0.0000
     30 H17        7.0226    2.6753    3.5823 H         1 RES1    0.0000
     31 N1         8.5939    4.0909    1.0540 N.pl3     1 RES1    0.0000
     32 N2         9.3963    0.9469    1.2906 N.3       1 RES1    0.0000
     33 O1         7.7281    4.8717    0.7274 O.2       1 RES1    0.0000
     34 O2         9.7488    4.1909    0.7080 O.2       1 RES1    0.0000
     35 O3         8.2874    4.1431    3.8825 O.3       1 RES1    0.0000
     36 H18        7.9439    4.2773    4.6146 H         1 RES1    0.0000
@<TRIPOS>BOND
     1    1    2 1
     2    3    1 ar
     3    4    3 1
     4    5    3 ar
     5    6    5 ar
     6    7    6 1
     7    8    6 ar
     8    9    8 1
     9   10    1 ar
    10   11    5 1
    11   12   11 1
    12   13   11 1
    13   14   11 1
    14   15   10 1
    15   16   15 1
    16   17   15 1
    17   18   17 1
    18   19   18 1
    19   20   18 1
    20   21   15 1
    21   22   21 1
    22   23   21 1
    23   24   25 1
    24   26   24 1
    25   27   24 1
    26   28   17 1
    27   29   28 1
    28   30   28 1
    29   31   17 1
    30   32   18 1
    31   33   31 2
    32   34   31 2
    33   35   28 1
    34   36   35 1
    35    8   10 ar
    36   21   32 1
    37   24   32 1
@<TRIPOS>SUBSTRUCTURE
     1 RES1 1

@<TRIPOS>CRYSIN
  12.0239   11.1563   11.2174  90.0000 115.8960  90.0000  14 1

