# MOL2 file generated by ConQuest
# Please check atom types

@<TRIPOS>MOLECULE
UBEGIU
   102   106     1
SMALL
NO_CHARGES
****
Generated from CSD

@<TRIPOS>ATOM
      1 O1         3.5287   17.1562    6.4786 O.2       1 RES1    0.0000
      2 O2         4.7568   13.8377    5.1759 O.2       1 RES1    0.0000
      3 O3        -0.6872   14.8288    1.8016 O.3       1 RES1    0.0000
      4 N1         3.8565   17.3475    5.2414 N.3       1 RES1    0.0000
      5 N2         3.8256   13.0697    5.6482 N.3       1 RES1    0.0000
      6 C1         2.8083   17.3018    4.2861 C.ar      1 RES1    0.0000
      7 C2         1.6577   16.5884    4.6256 C.ar      1 RES1    0.0000
      8 C3         0.5892   16.5211    3.7556 C.ar      1 RES1    0.0000
      9 C4         0.6200   17.1729    2.5205 C.ar      1 RES1    0.0000
     10 C5         1.7747   17.8911    2.1977 C.ar      1 RES1    0.0000
     11 C6         2.8607   17.9615    3.0608 C.ar      1 RES1    0.0000
     12 C7         5.3241   17.5491    4.9504 C.3       1 RES1    0.0000
     13 C8         6.0964   16.9220    6.1088 C.3       1 RES1    0.0000
     14 C9         5.6981   16.8236    3.6582 C.3       1 RES1    0.0000
     15 C10        5.6107   19.0503    4.8845 C.3       1 RES1    0.0000
     16 C11        2.6636   12.9160    4.8589 C.ar      1 RES1    0.0000
     17 C12        1.4974   12.2880    5.3087 C.ar      1 RES1    0.0000
     18 C13        0.3937   12.1820    4.4731 C.ar      1 RES1    0.0000
     19 C14        0.4100   12.6963    3.1779 C.ar      1 RES1    0.0000
     20 C15        1.5753   13.3400    2.7498 C.ar      1 RES1    0.0000
     21 C16        2.6749   13.4466    3.5726 C.ar      1 RES1    0.0000
     22 C17        4.0970   12.4081    6.9719 C.3       1 RES1    0.0000
     23 C18        5.5441   12.6880    7.3400 C.3       1 RES1    0.0000
     24 C19        3.1923   13.0297    8.0270 C.3       1 RES1    0.0000
     25 C20        3.9254   10.8925    6.8391 C.3       1 RES1    0.0000
     26 C21       -1.1997   15.9692    1.2214 C.ar      1 RES1    0.0000
     27 C22       -0.5437   17.1604    1.5806 C.ar      1 RES1    0.0000
     28 C23       -1.0037   18.3408    1.0186 C.ar      1 RES1    0.0000
     29 C24       -2.0963   18.3872    0.1398 C.ar      1 RES1    0.0000
     30 C25       -2.7009   17.1729   -0.1791 C.ar      1 RES1    0.0000
     31 C26       -2.2796   15.9488    0.3514 C.ar      1 RES1    0.0000
     32 C27       -2.9991   14.6604   -0.0374 C.3       1 RES1    0.0000
     33 C28       -2.3911   13.4736    0.7135 C.ar      1 RES1    0.0000
     34 C29       -2.9222   12.1825    0.5570 C.ar      1 RES1    0.0000
     35 C30       -2.4251   11.0750    1.2342 C.ar      1 RES1    0.0000
     36 C31       -1.3381   11.2827    2.0993 C.ar      1 RES1    0.0000
     37 C32       -0.7565   12.5345    2.2685 C.ar      1 RES1    0.0000
     38 C33       -1.3046   13.6182    1.5619 C.ar      1 RES1    0.0000
     39 C34       -2.8619   14.4195   -1.5521 C.3       1 RES1    0.0000
     40 C35       -4.4952   14.7831    0.3307 C.3       1 RES1    0.0000
     41 C36       -2.6202   19.7334   -0.3661 C.3       1 RES1    0.0000
     42 C37       -3.2572   20.4775    0.8198 C.3       1 RES1    0.0000
     43 C38       -1.4627   20.5769   -0.9094 C.3       1 RES1    0.0000
     44 C39       -3.6640   19.5733   -1.4625 C.3       1 RES1    0.0000
     45 C40       -3.0135    9.6635    1.1023 C.3       1 RES1    0.0000
     46 C41       -1.9022    8.6545    0.7795 C.3       1 RES1    0.0000
     47 C42       -3.6566    9.2953    2.4467 C.3       1 RES1    0.0000
     48 C43       -4.0759    9.5616    0.0069 C.3       1 RES1    0.0000
     49 H1         1.6057   16.1128    5.4524 H         1 RES1    0.0000
     50 H2        -0.1988   16.0416    4.0056 H         1 RES1    0.0000
     51 H3         1.8089   18.3543    1.3582 H         1 RES1    0.0000
     52 H4         3.6483   18.4550    2.7902 H         1 RES1    0.0000
     53 H5         5.9138   15.9238    6.1314 H         1 RES1    0.0000
     54 H6         5.8903   17.3256    6.9975 H         1 RES1    0.0000
     55 H7         7.0665   17.0310    5.8952 H         1 RES1    0.0000
     56 H8         5.3817   15.8649    3.6612 H         1 RES1    0.0000
     57 H9         6.6834   16.7806    3.5923 H         1 RES1    0.0000
     58 H10        5.3558   17.2274    2.8443 H         1 RES1    0.0000
     59 H11        6.5752   19.1670    4.7634 H         1 RES1    0.0000
     60 H12        5.1120   19.5033    4.1336 H         1 RES1    0.0000
     61 H13        5.3538   19.5156    5.6886 H         1 RES1    0.0000
     62 H14        1.3933   11.9293    6.1511 H         1 RES1    0.0000
     63 H15       -0.4358   11.8238    4.8422 H         1 RES1    0.0000
     64 H16        1.6088   13.7265    1.8010 H         1 RES1    0.0000
     65 H17        3.5140   13.8787    3.2380 H         1 RES1    0.0000
     66 H18        5.7294   13.6651    7.4306 H         1 RES1    0.0000
     67 H19        6.1503   12.2976    6.6038 H         1 RES1    0.0000
     68 H20        5.7570   12.2436    8.1982 H         1 RES1    0.0000
     69 H21        3.2545   14.0849    8.0211 H         1 RES1    0.0000
     70 H22        3.4389   12.6757    8.9560 H         1 RES1    0.0000
     71 H23        2.2068   12.8009    7.9030 H         1 RES1    0.0000
     72 H24        4.5504   10.5815    6.0626 H         1 RES1    0.0000
     73 H25        2.9718   10.6478    6.6432 H         1 RES1    0.0000
     74 H26        4.1843   10.4882    7.7357 H         1 RES1    0.0000
     75 H27       -0.5661   19.1842    1.2912 H         1 RES1    0.0000
     76 H28       -3.4852   17.1882   -0.8366 H         1 RES1    0.0000
     77 H29       -3.7030   12.0865   -0.0098 H         1 RES1    0.0000
     78 H30       -0.9472   10.5447    2.6179 H         1 RES1    0.0000
     79 H31       -1.8745   14.3304   -1.7617 H         1 RES1    0.0000
     80 H32       -3.3410   13.5374   -1.8306 H         1 RES1    0.0000
     81 H33       -3.2904   15.1823   -2.0373 H         1 RES1    0.0000
     82 H34       -4.6045   14.9687    1.2893 H         1 RES1    0.0000
     83 H35       -4.9745   13.9106    0.1378 H         1 RES1    0.0000
     84 H36       -4.9347   15.5261   -0.1378 H         1 RES1    0.0000
     85 H37       -2.5848   20.6057    1.5550 H         1 RES1    0.0000
     86 H38       -3.9798   19.9771    1.2204 H         1 RES1    0.0000
     87 H39       -3.5671   21.3864    0.5413 H         1 RES1    0.0000
     88 H40       -0.7798   20.8045   -0.1673 H         1 RES1    0.0000
     89 H41       -1.7749   21.4330   -1.2204 H         1 RES1    0.0000
     90 H42       -1.0394   20.1097   -1.6633 H         1 RES1    0.0000
     91 H43       -3.2167   19.1350   -2.2439 H         1 RES1    0.0000
     92 H44       -3.9791   20.5295   -1.7912 H         1 RES1    0.0000
     93 H45       -4.4569   19.0859   -1.2204 H         1 RES1    0.0000
     94 H46       -1.1994    8.6665    1.4763 H         1 RES1    0.0000
     95 H47       -1.4999    8.8948   -0.1673 H         1 RES1    0.0000
     96 H48       -2.3118    7.7606    0.7086 H         1 RES1    0.0000
     97 H49       -2.9319    9.3097    3.1494 H         1 RES1    0.0000
     98 H50       -4.0582    8.3989    2.3817 H         1 RES1    0.0000
     99 H51       -4.3588    9.9505    2.7163 H         1 RES1    0.0000
    100 H52       -3.7055    9.7590   -0.9251 H         1 RES1    0.0000
    101 H53       -4.8518   10.1567    0.1673 H         1 RES1    0.0000
    102 H54       -4.4337    8.6395   -0.0591 H         1 RES1    0.0000
@<TRIPOS>BOND
     1    1    4 1
     2    2    5 1
     3    3   26 1
     4    4    6 1
     5    5   16 1
     6    6    7 ar
     7    7    8 ar
     8    8    9 ar
     9    9   10 ar
    10   10   11 ar
    11   11    6 ar
    12   12    4 1
    13   13   12 1
    14   14   12 1
    15   15   12 1
    16   16   17 ar
    17   17   18 ar
    18   18   19 ar
    19   19   20 ar
    20   20   21 ar
    21   21   16 ar
    22   22    5 1
    23   23   22 1
    24   24   22 1
    25   25   22 1
    26   26   27 ar
    27   27    9 1
    28   28   27 ar
    29   29   28 ar
    30   30   29 ar
    31   31   26 ar
    32   32   31 1
    33   33   32 1
    34   34   33 ar
    35   35   34 ar
    36   36   35 ar
    37   37   19 1
    38   38    3 1
    39   39   32 1
    40   40   32 1
    41   41   29 1
    42   42   41 1
    43   43   41 1
    44   44   41 1
    45   45   35 1
    46   46   45 1
    47   47   45 1
    48   48   45 1
    49   49    7 1
    50   50    8 1
    51   51   10 1
    52   52   11 1
    53   53   13 1
    54   54   13 1
    55   55   13 1
    56   56   14 1
    57   57   14 1
    58   58   14 1
    59   59   15 1
    60   60   15 1
    61   61   15 1
    62   62   17 1
    63   63   18 1
    64   64   20 1
    65   65   21 1
    66   66   23 1
    67   67   23 1
    68   68   23 1
    69   69   24 1
    70   70   24 1
    71   71   24 1
    72   72   25 1
    73   73   25 1
    74   74   25 1
    75   75   28 1
    76   76   30 1
    77   77   34 1
    78   78   36 1
    79   79   39 1
    80   80   39 1
    81   81   39 1
    82   82   40 1
    83   83   40 1
    84   84   40 1
    85   85   42 1
    86   86   42 1
    87   87   42 1
    88   88   43 1
    89   89   43 1
    90   90   43 1
    91   91   44 1
    92   92   44 1
    93   93   44 1
    94   94   46 1
    95   95   46 1
    96   96   46 1
    97   97   47 1
    98   98   47 1
    99   99   47 1
   100  100   48 1
   101  101   48 1
   102  102   48 1
   103   30   31 ar
   104   33   38 ar
   105   36   37 ar
   106   37   38 ar
@<TRIPOS>SUBSTRUCTURE
     1 RES1 1

@<TRIPOS>CRYSIN
  15.3870   24.5510   10.5244  90.0000 110.7490  90.0000  14 1

