# MOL2 file generated by ConQuest
# Please check atom types

@<TRIPOS>MOLECULE
UBENIY
    19    20     1
SMALL
NO_CHARGES
****
Generated from CSD

@<TRIPOS>ATOM
      1 O1        -1.0379    2.9985   -0.5044 O.3       1 RES1    0.0000
      2 O2        -2.9169   -0.7050    1.2531 O.3       1 RES1    0.0000
      3 N1         2.7356    1.0659    4.0741 N.3       1 RES1    0.0000
      4 N2         0.7618    1.2734    1.9992 N.3       1 RES1    0.0000
      5 N3        -0.0151    2.7535    0.4460 N.2       1 RES1    0.0000
      6 N4        -1.6506   -0.1958    1.5067 N.2       1 RES1    0.0000
      7 C1         7.6810    1.8551    5.0113 C.ar      1 RES1    0.0000
      8 C2         6.7258    2.3276    5.8516 C.ar      1 RES1    0.0000
      9 C3         5.4285    1.8201    5.7693 C.ar      1 RES1    0.0000
     10 C4         5.1161    0.8559    4.8427 C.ar      1 RES1    0.0000
     11 C5         6.1105    0.4042    4.0024 C.ar      1 RES1    0.0000
     12 C6         7.3887    0.8959    4.0780 C.ar      1 RES1    0.0000
     13 C7         3.7483    0.2525    4.7909 C.3       1 RES1    0.0000
     14 C8         3.0979    1.2834    2.6802 C.3       1 RES1    0.0000
     15 C9         2.0112    2.0301    1.9368 C.3       1 RES1    0.0000
     16 C10        0.3726    1.0451    3.3917 C.3       1 RES1    0.0000
     17 C11        1.4739    0.3200    4.1192 C.3       1 RES1    0.0000
     18 C12       -0.2434    1.6851    1.1337 C.2       1 RES1    0.0000
     19 C13       -1.4819    0.9434    1.0142 C.2       1 RES1    0.0000
@<TRIPOS>BOND
     1    1    5 1
     2    2    6 1
     3    3   13 1
     4    4   15 1
     5    5   18 2
     6    6   19 2
     7    7    8 ar
     8    8    9 ar
     9    9   10 ar
    10   10   11 ar
    11   11   12 ar
    12   12    7 ar
    13   13   10 1
    14   14    3 1
    15   15   14 1
    16   16    4 1
    17   17    3 1
    18   18    4 1
    19   19   18 1
    20   16   17 1
@<TRIPOS>SUBSTRUCTURE
     1 RES1 1

@<TRIPOS>CRYSIN
  12.2327    8.3338   13.3045  90.0000  93.8250  90.0000  14 1

