# MOL2 file generated by ConQuest
# Please check atom types

@<TRIPOS>MOLECULE
UBIFAM
    73    77     1
SMALL
NO_CHARGES
****
Generated from CSD

@<TRIPOS>ATOM
      1 C1         2.3821   16.1538    5.4845 C.ar      1 RES1    0.0000
      2 H1         3.1099   16.3224    6.0704 H         1 RES1    0.0000
      3 C2         1.0850   16.1781    5.9764 C.ar      1 RES1    0.0000
      4 H2         0.9231   16.3617    6.8952 H         1 RES1    0.0000
      5 C3         0.0292   15.9332    5.1148 C.ar      1 RES1    0.0000
      6 H3        -0.8614   15.9493    5.4463 H         1 RES1    0.0000
      7 C4         0.2571   15.6687    3.7902 C.ar      1 RES1    0.0000
      8 H4        -0.4716   15.4931    3.2057 H         1 RES1    0.0000
      9 C5         1.5399   15.6571    3.3090 C.ar      1 RES1    0.0000
     10 H5         1.6935   15.4896    2.3864 H         1 RES1    0.0000
     11 C6         2.6275   15.8904    4.1610 C.ar      1 RES1    0.0000
     12 C7         4.0230   15.8015    3.6417 C.3       1 RES1    0.0000
     13 H6         4.0998   16.2578    2.7658 H         1 RES1    0.0000
     14 H7         4.6590   16.2185    4.2751 H         1 RES1    0.0000
     15 C8         5.8718   12.9923    2.7419 C.2       1 RES1    0.0000
     16 C9         7.0311   12.6851    1.9053 C.2       1 RES1    0.0000
     17 C10        7.6204   11.4930    1.9564 C.2       1 RES1    0.0000
     18 H8         8.3615   11.3336    1.3829 H         1 RES1    0.0000
     19 C11        7.1797   10.3969    2.8634 C.3       1 RES1    0.0000
     20 C12        5.8951   10.7030    3.5867 C.2       1 RES1    0.0000
     21 C13        5.2959   11.8892    3.5221 C.2       1 RES1    0.0000
     22 H9         4.4804   12.0244    3.9892 H         1 RES1    0.0000
     23 C14        8.5410   13.5271    0.2917 C.3       1 RES1    0.0000
     24 H10        8.7071   14.3311   -0.2447 H         1 RES1    0.0000
     25 H11        8.3891   12.7636   -0.3024 H         1 RES1    0.0000
     26 H12        9.3172   13.3481    0.8605 H         1 RES1    0.0000
     27 C15        8.2647   10.0353    3.8638 C.ar      1 RES1    0.0000
     28 C16        9.0092   11.0333    4.4959 C.ar      1 RES1    0.0000
     29 H13        8.8715   11.9424    4.2586 H         1 RES1    0.0000
     30 C17        9.9373   10.7203    5.4546 C.ar      1 RES1    0.0000
     31 C18       10.1844    9.3631    5.7727 C.ar      1 RES1    0.0000
     32 C19        9.4474    8.3882    5.1406 C.ar      1 RES1    0.0000
     33 H14        9.6152    7.4757    5.3446 H         1 RES1    0.0000
     34 C20        8.4608    8.7093    4.2091 C.ar      1 RES1    0.0000
     35 C21       10.2136   12.9762    6.1419 C.3       1 RES1    0.0000
     36 H15       10.8037   13.5433    6.6808 H         1 RES1    0.0000
     37 H16        9.3038   13.0143    6.5048 H         1 RES1    0.0000
     38 H17       10.2094   13.2961    5.2154 H         1 RES1    0.0000
     39 C22       11.3045    7.7991    7.1479 C.3       1 RES1    0.0000
     40 H18       12.0089    7.7529    7.8272 H         1 RES1    0.0000
     41 H19       11.5574    7.2504    6.3756 H         1 RES1    0.0000
     42 H20       10.4648    7.4641    7.5248 H         1 RES1    0.0000
     43 C23        7.6354    7.5993    3.6068 C.3       1 RES1    0.0000
     44 H21        7.2281    7.0760    4.3411 H         1 RES1    0.0000
     45 H22        8.2397    6.9929    3.1094 H         1 RES1    0.0000
     46 C24        6.5270    8.0578    2.6660 C.3       1 RES1    0.0000
     47 C25        5.1907    8.3247    3.4116 C.3       1 RES1    0.0000
     48 H23        4.9996    7.5253    3.9837 H         1 RES1    0.0000
     49 C26        5.3468    9.5352    4.3452 C.3       1 RES1    0.0000
     50 H24        4.4670    9.7731    4.7315 H         1 RES1    0.0000
     51 H25        5.9586    9.3042    5.0889 H         1 RES1    0.0000
     52 C27        6.3392    7.0333    1.5544 C.3       1 RES1    0.0000
     53 H26        6.0153    6.1774    1.9327 H         1 RES1    0.0000
     54 H27        5.6689    7.3590    0.9045 H         1 RES1    0.0000
     55 C28        7.5202    5.8135   -0.0685 C.3       1 RES1    0.0000
     56 H28        8.3991    5.7049   -0.4866 H         1 RES1    0.0000
     57 H29        6.8608    6.0572   -0.7506 H         1 RES1    0.0000
     58 H30        7.2548    4.9726    0.3574 H         1 RES1    0.0000
     59 C29        3.9946    8.5291    2.4952 C.3       1 RES1    0.0000
     60 H31        3.3035    9.0674    2.9555 H         1 RES1    0.0000
     61 H32        4.2734    9.0119    1.6771 H         1 RES1    0.0000
     62 C30        2.3370    7.3752    1.3001 C.3       1 RES1    0.0000
     63 H33        1.9998    6.4835    1.0750 H         1 RES1    0.0000
     64 H34        2.5949    7.8441    0.4784 H         1 RES1    0.0000
     65 H35        1.6359    7.8823    1.7595 H         1 RES1    0.0000
     66 N1         5.4478   14.2167    2.7141 N.2       1 RES1    0.0000
     67 O1         4.2984   14.3695    3.5034 O.3       1 RES1    0.0000
     68 O2         7.3950   13.7294    1.1030 O.3       1 RES1    0.0000
     69 O3        10.6885   11.6186    6.1790 O.3       1 RES1    0.0000
     70 O4        11.1317    9.1514    6.7333 O.3       1 RES1    0.0000
     71 O5         7.5870    6.8340    0.9070 O.3       1 RES1    0.0000
     72 O6         3.4705    7.2516    2.1527 O.3       1 RES1    0.0000
     73 O7         6.9309    9.2701    1.9864 O.3       1 RES1    0.0000
@<TRIPOS>BOND
     1    1    2 1
     2    3    1 ar
     3    4    3 1
     4    5    3 ar
     5    6    5 1
     6    7    5 ar
     7    8    7 1
     8    9    7 ar
     9   10    9 1
    10   11    1 ar
    11   12   11 1
    12   13   12 1
    13   14   12 1
    14   15   16 1
    15   16   17 2
    16   17   18 1
    17   19   17 1
    18   20   19 1
    19   21   15 1
    20   22   21 1
    21   23   24 1
    22   25   23 1
    23   26   23 1
    24   27   19 1
    25   28   27 ar
    26   29   28 1
    27   30   28 ar
    28   31   30 ar
    29   32   31 ar
    30   33   32 1
    31   34   27 ar
    32   35   36 1
    33   37   35 1
    34   38   35 1
    35   39   40 1
    36   41   39 1
    37   42   39 1
    38   43   34 1
    39   44   43 1
    40   45   43 1
    41   46   43 1
    42   47   46 1
    43   48   47 1
    44   49   20 1
    45   50   49 1
    46   51   49 1
    47   52   46 1
    48   53   52 1
    49   54   52 1
    50   55   56 1
    51   57   55 1
    52   58   55 1
    53   59   47 1
    54   60   59 1
    55   61   59 1
    56   62   63 1
    57   64   62 1
    58   65   62 1
    59   66   15 2
    60   67   12 1
    61   68   16 1
    62   69   30 1
    63   70   31 1
    64   71   52 1
    65   72   59 1
    66   73   19 1
    67    9   11 ar
    68   20   21 2
    69   23   68 1
    70   32   34 ar
    71   35   69 1
    72   39   70 1
    73   46   73 1
    74   47   49 1
    75   55   71 1
    76   62   72 1
    77   66   67 1
@<TRIPOS>SUBSTRUCTURE
     1 RES1 1

@<TRIPOS>CRYSIN
   8.3465   11.5508   27.4928  90.0000  90.0000  90.0000  19 1

