# MOL2 file generated by ConQuest
# Please check atom types

@<TRIPOS>MOLECULE
UBUBAX
    50    52     1
SMALL
NO_CHARGES
****
Generated from CSD

@<TRIPOS>ATOM
      1 O1         0.4737    8.8913    1.5111 O.2       1 RES1    0.0000
      2 O2        -3.7005   18.1793    6.4616 O.2       1 RES1    0.0000
      3 O3        -1.8071   18.9960    5.8366 O.2       1 RES1    0.0000
      4 N1        -0.7253   14.0336    0.7313 N.1       1 RES1    0.0000
      5 N2        -4.1919   12.5936    2.4716 N.1       1 RES1    0.0000
      6 N3        -2.6180   18.0840    5.8992 N.pl3     1 RES1    0.0000
      7 C1         0.2986    7.4077   -0.8285 C.ar      1 RES1    0.0000
      8 H1         1.1351    7.4131   -0.3781 H         1 RES1    0.0000
      9 C2         0.0913    6.5241   -1.8702 C.ar      1 RES1    0.0000
     10 H2         0.7882    5.9394   -2.1441 H         1 RES1    0.0000
     11 C3        -1.1303    6.4926   -2.5123 C.ar      1 RES1    0.0000
     12 H3        -1.2822    5.8750   -3.2179 H         1 RES1    0.0000
     13 C4        -2.1243    7.3572   -2.1273 C.ar      1 RES1    0.0000
     14 H4        -2.9658    7.3318   -2.5679 H         1 RES1    0.0000
     15 C5        -1.9139    8.2699   -1.0996 C.ar      1 RES1    0.0000
     16 H5        -2.6008    8.8794   -0.8561 H         1 RES1    0.0000
     17 C6        -0.6993    8.2883   -0.4308 C.ar      1 RES1    0.0000
     18 C7        -0.4330    9.1577    0.7497 C.2       1 RES1    0.0000
     19 C8        -1.2869   10.3945    0.9734 C.3       1 RES1    0.0000
     20 H6        -2.2414   10.1682    0.8404 H         1 RES1    0.0000
     21 H7        -1.0406   11.0919    0.3155 H         1 RES1    0.0000
     22 C9        -1.0786   10.9285    2.3896 C.3       1 RES1    0.0000
     23 H8        -0.0908   10.9448    2.5438 H         1 RES1    0.0000
     24 C10       -1.6632   10.0123    3.4458 C.ar      1 RES1    0.0000
     25 C11       -2.9524    9.4957    3.3433 C.ar      1 RES1    0.0000
     26 H9        -3.4887    9.7137    2.5899 H         1 RES1    0.0000
     27 C12       -3.4612    8.6655    4.3319 C.ar      1 RES1    0.0000
     28 H10       -4.3422    8.3195    4.2520 H         1 RES1    0.0000
     29 C13       -2.6930    8.3407    5.4296 C.ar      1 RES1    0.0000
     30 H11       -3.0464    7.7785    6.1090 H         1 RES1    0.0000
     31 C14       -1.4104    8.8342    5.5380 C.ar      1 RES1    0.0000
     32 H12       -0.8769    8.6042    6.2897 H         1 RES1    0.0000
     33 C15       -0.8976    9.6632    4.5560 C.ar      1 RES1    0.0000
     34 H13       -0.0126    9.9983    4.6399 H         1 RES1    0.0000
     35 C16       -1.5852   12.4016    2.5926 C.3       1 RES1    0.0000
     36 C17       -1.0744   13.3027    1.5362 C.1       1 RES1    0.0000
     37 C18       -3.0600   12.4882    2.5109 C.1       1 RES1    0.0000
     38 C19       -1.1082   12.9146    3.9838 C.3       1 RES1    0.0000
     39 H14       -1.4402   12.2880    4.6746 H         1 RES1    0.0000
     40 H15       -0.1190   12.8787    4.0037 H         1 RES1    0.0000
     41 C20       -1.5356   14.3064    4.3669 C.ar      1 RES1    0.0000
     42 C21       -2.7883   14.5122    4.9334 C.ar      1 RES1    0.0000
     43 H16       -3.3946   13.7848    5.0103 H         1 RES1    0.0000
     44 C22       -3.1609   15.7607    5.3848 C.ar      1 RES1    0.0000
     45 H17       -4.0271   15.9060    5.7465 H         1 RES1    0.0000
     46 C23       -2.2548   16.7919    5.3018 C.ar      1 RES1    0.0000
     47 C24       -1.0110   16.6379    4.7240 C.ar      1 RES1    0.0000
     48 H18       -0.4075   17.3687    4.6595 H         1 RES1    0.0000
     49 C25       -0.6696   15.3869    4.2413 C.ar      1 RES1    0.0000
     50 H19        0.1717   15.2640    3.8168 H         1 RES1    0.0000
@<TRIPOS>BOND
     1    1   18 2
     2    2    6 2
     3    3    6 2
     4    4   36 3
     5    5   37 3
     6    6   46 1
     7    7    8 1
     8    9    7 ar
     9   10    9 1
    10   11    9 ar
    11   12   11 1
    12   13   11 ar
    13   14   13 1
    14   15   13 ar
    15   16   15 1
    16   17    7 ar
    17   18   17 1
    18   19   18 1
    19   20   19 1
    20   21   19 1
    21   22   19 1
    22   23   22 1
    23   24   22 1
    24   25   24 ar
    25   26   25 1
    26   27   25 ar
    27   28   27 1
    28   29   27 ar
    29   30   29 1
    30   31   29 ar
    31   32   31 1
    32   33   24 ar
    33   34   33 1
    34   35   22 1
    35   36   35 1
    36   37   35 1
    37   38   35 1
    38   39   38 1
    39   40   38 1
    40   41   38 1
    41   42   41 ar
    42   43   42 1
    43   44   42 ar
    44   45   44 1
    45   46   44 ar
    46   47   46 ar
    47   48   47 1
    48   49   41 ar
    49   50   49 1
    50   15   17 ar
    51   31   33 ar
    52   47   49 ar
@<TRIPOS>SUBSTRUCTURE
     1 RES1 1

@<TRIPOS>CRYSIN
   6.1119   12.8711   14.6606 112.0860  94.4820 101.9370   2 1

