# MOL2 file generated by ConQuest
# Please check atom types

@<TRIPOS>MOLECULE
UBUJUZ
    21    22     1
SMALL
NO_CHARGES
****
Generated from CSD

@<TRIPOS>ATOM
      1 C1         7.5050    1.9039   15.9348 C.2       1 RES1    0.0000
      2 C2         8.9398    2.1227   15.6964 C.2       1 RES1    0.0000
      3 C3         7.4052    0.2355   14.3718 C.ar      1 RES1    0.0000
      4 C4         8.7839    0.3219   14.1225 C.ar      1 RES1    0.0000
      5 C5         6.6879   -0.6863   13.6294 C.ar      1 RES1    0.0000
      6 C6         7.3650   -1.4438   12.7031 C.ar      1 RES1    0.0000
      7 C7         8.7639   -1.3480   12.5346 C.ar      1 RES1    0.0000
      8 C8         9.5897   -2.1962   11.6212 C.3       1 RES1    0.0000
      9 N1         6.7767    1.0364   15.3206 N.2       1 RES1    0.0000
     10 N2         9.5087    1.2719   14.7967 N.am      1 RES1    0.0000
     11 N3         9.4515   -0.4538   13.2590 N.ar      1 RES1    0.0000
     12 N4         6.5724   -2.3775   11.8974 N.pl3     1 RES1    0.0000
     13 O1         9.5728    3.0263   16.2483 O.2       1 RES1    0.0000
     14 O2         5.5251   -2.7972   12.3777 O.2       1 RES1    0.0000
     15 O3         6.9782   -2.6747   10.7809 O.2       1 RES1    0.0000
     16 H1         7.0933    2.4984   16.6223 H         1 RES1    0.0000
     17 H2         5.7766   -0.7604   13.7464 H         1 RES1    0.0000
     18 H3        10.5243   -2.1627   11.9207 H         1 RES1    0.0000
     19 H4         9.2946   -3.1058   11.6081 H         1 RES1    0.0000
     20 H5         9.5462   -1.8516   10.6991 H         1 RES1    0.0000
     21 H6        10.3827    1.3924   14.5796 H         1 RES1    0.0000
@<TRIPOS>BOND
     1    1    2 1
     2    2   10 1
     3    3    4 ar
     4    4   10 1
     5    5    3 ar
     6    6    5 ar
     7    7    6 ar
     8    8    7 1
     9    9    1 2
    10   10   21 1
    11   11    4 ar
    12   12    6 1
    13   13    2 2
    14   14   12 2
    15   15   12 2
    16   16    1 1
    17   17    5 1
    18   18    8 1
    19   19    8 1
    20   20    8 1
    21    3    9 1
    22    7   11 ar
@<TRIPOS>SUBSTRUCTURE
     1 RES1 1

@<TRIPOS>CRYSIN
  11.3390    4.9376   15.1833  90.0000  91.7790  90.0000  14 1

