# MOL2 file generated by ConQuest
# Please check atom types

@<TRIPOS>MOLECULE
UBUPEM
    60    62     1
SMALL
NO_CHARGES
****
Generated from CSD

@<TRIPOS>ATOM
      1 O1        -2.2314    2.2548    5.4598 O.3       1 RES1    0.0000
      2 O2        -3.5316   -0.0951    5.0492 O.2       1 RES1    0.0000
      3 O3        -2.2691   -1.8932    5.2074 O.3       1 RES1    0.0000
      4 O4         0.3380    8.0146    2.9023 O.2       1 RES1    0.0000
      5 O5         1.3342    9.2496    1.4601 O.2       1 RES1    0.0000
      6 O6         3.2983    7.5766   -2.4694 O.2       1 RES1    0.0000
      7 O7         2.9994    5.5007   -2.9979 O.2       1 RES1    0.0000
      8 N1         0.5091    4.0867    3.1755 N.2       1 RES1    0.0000
      9 N2         0.5173    5.4031    2.7381 N.3       1 RES1    0.0000
     10 N3         1.0048    8.1522    1.8781 N.pl3     1 RES1    0.0000
     11 N4         2.9218    6.4292   -2.2215 N.pl3     1 RES1    0.0000
     12 C1        -0.4590    0.0100    6.3540 C.3       1 RES1    0.0000
     13 C2         0.8260    0.8296    6.4974 C.3       1 RES1    0.0000
     14 C3         0.5719    2.2961    6.1585 C.3       1 RES1    0.0000
     15 C4         0.0260    2.4062    4.7372 C.3       1 RES1    0.0000
     16 C5        -1.3107    1.6267    4.5625 C.3       1 RES1    0.0000
     17 C6        -1.8369    1.7418    3.1337 C.3       1 RES1    0.0000
     18 C7        -0.9791    1.0136    2.1096 C.3       1 RES1    0.0000
     19 C8        -0.8089   -0.4442    2.4813 C.3       1 RES1    0.0000
     20 C9        -0.2376   -0.5844    3.8832 C.3       1 RES1    0.0000
     21 C10       -1.0990    0.1301    4.9507 C.3       1 RES1    0.0000
     22 C11       -0.0615    3.8465    4.2923 C.2       1 RES1    0.0000
     23 C12       -0.7340    4.8876    5.1358 C.3       1 RES1    0.0000
     24 C13       -2.4429   -0.5994    5.0477 C.2       1 RES1    0.0000
     25 C14       -3.4341   -2.7378    5.3971 C.3       1 RES1    0.0000
     26 C15       -3.0071   -3.9291    6.0838 C.3       1 RES1    0.0000
     27 C16        1.1236    5.6746    1.5572 C.ar      1 RES1    0.0000
     28 C17        1.3789    6.9873    1.0988 C.ar      1 RES1    0.0000
     29 C18        1.9909    7.2238   -0.1209 C.ar      1 RES1    0.0000
     30 C19        2.3314    6.1702   -0.9047 C.ar      1 RES1    0.0000
     31 C20        2.0971    4.8613   -0.5106 C.ar      1 RES1    0.0000
     32 C21        1.5117    4.6223    0.7032 C.ar      1 RES1    0.0000
     33 H1        -2.9760    1.8269    5.4045 H         1 RES1    0.0000
     34 H2         0.3348    6.0563    3.2696 H         1 RES1    0.0000
     35 H3        -0.2541   -0.9022    6.5183 H         1 RES1    0.0000
     36 H4        -1.0848    0.3153    7.0005 H         1 RES1    0.0000
     37 H5         1.1365    0.7670    7.3961 H         1 RES1    0.0000
     38 H6         1.4853    0.4830    5.9121 H         1 RES1    0.0000
     39 H7        -0.0607    2.6565    6.7706 H         1 RES1    0.0000
     40 H8         1.3857    2.7804    6.2242 H         1 RES1    0.0000
     41 H9         0.6607    1.9846    4.1728 H         1 RES1    0.0000
     42 H10       -2.7141    1.3752    3.1054 H         1 RES1    0.0000
     43 H11       -1.8709    2.6615    2.8978 H         1 RES1    0.0000
     44 H12       -1.3964    1.0724    1.2601 H         1 RES1    0.0000
     45 H13       -0.1252    1.4265    2.0752 H         1 RES1    0.0000
     46 H14       -1.6537   -0.8759    2.4410 H         1 RES1    0.0000
     47 H15       -0.2161   -0.8534    1.8587 H         1 RES1    0.0000
     48 H16       -0.1887   -1.5091    4.0982 H         1 RES1    0.0000
     49 H17        0.6352   -0.2115    3.8936 H         1 RES1    0.0000
     50 H18       -0.0995    5.5520    5.3821 H         1 RES1    0.0000
     51 H19       -1.4370    5.2905    4.6416 H         1 RES1    0.0000
     52 H20       -1.0873    4.4822    5.9181 H         1 RES1    0.0000
     53 H21       -4.0826   -2.2799    5.9196 H         1 RES1    0.0000
     54 H22       -3.8079   -2.9656    4.5550 H         1 RES1    0.0000
     55 H23       -3.7554   -4.5022    6.2182 H         1 RES1    0.0000
     56 H24       -2.3544   -4.3808    5.5598 H         1 RES1    0.0000
     57 H25       -2.6339   -3.6963    6.9244 H         1 RES1    0.0000
     58 H26        2.1676    8.1122   -0.4076 H         1 RES1    0.0000
     59 H27        2.3395    4.1380   -1.0794 H         1 RES1    0.0000
     60 H28        1.3630    3.7239    0.9764 H         1 RES1    0.0000
@<TRIPOS>BOND
     1    1   16 1
     2    2   24 2
     3    3   24 1
     4    4   10 2
     5    5   10 2
     6    6   11 2
     7    7   11 2
     8    8    9 1
     9    9   27 1
    10   10   28 1
    11   11   30 1
    12   12   13 1
    13   13   14 1
    14   14   15 1
    15   15   16 1
    16   16   17 1
    17   17   18 1
    18   18   19 1
    19   19   20 1
    20   20   21 1
    21   21   12 1
    22   22    8 2
    23   23   22 1
    24   24   21 1
    25   25    3 1
    26   26   25 1
    27   27   28 ar
    28   28   29 ar
    29   29   30 ar
    30   30   31 ar
    31   31   32 ar
    32   32   27 ar
    33   33    1 1
    34   34    9 1
    35   35   12 1
    36   36   12 1
    37   37   13 1
    38   38   13 1
    39   39   14 1
    40   40   14 1
    41   41   15 1
    42   42   17 1
    43   43   17 1
    44   44   18 1
    45   45   18 1
    46   46   19 1
    47   47   19 1
    48   48   20 1
    49   49   20 1
    50   50   23 1
    51   51   23 1
    52   52   23 1
    53   53   25 1
    54   54   25 1
    55   55   26 1
    56   56   26 1
    57   57   26 1
    58   58   29 1
    59   59   31 1
    60   60   32 1
    61   15   22 1
    62   16   21 1
@<TRIPOS>SUBSTRUCTURE
     1 RES1 1

@<TRIPOS>CRYSIN
  12.1590   12.5130   15.8990  90.0000 110.1110  90.0000  14 2

