# MOL2 file generated by ConQuest
# Please check atom types

@<TRIPOS>MOLECULE
UBUPAI
    57    59     1
SMALL
NO_CHARGES
****
Generated from CSD

@<TRIPOS>ATOM
      1 O1         6.0155    7.6205   10.1526 O.3       1 RES1    0.0000
      2 O2         5.0187    7.5533    7.4611 O.2       1 RES1    0.0000
      3 O3         4.9316    9.6959    6.8952 O.3       1 RES1    0.0000
      4 O4         6.5023    6.9203   16.5817 O.2       1 RES1    0.0000
      5 O5         5.9446    5.8823   18.3840 O.2       1 RES1    0.0000
      6 O6         2.0452    3.3000   18.7057 O.2       1 RES1    0.0000
      7 O7         0.5266    3.3988   17.1825 O.2       1 RES1    0.0000
      8 N1         4.2888    7.8599   13.5336 N.2       1 RES1    0.0000
      9 N2         4.7743    7.2640   14.6859 N.3       1 RES1    0.0000
     10 N3         5.6992    6.2477   17.2427 N.pl3     1 RES1    0.0000
     11 N4         1.5967    3.7432   17.6532 N.pl3     1 RES1    0.0000
     12 C1         3.6903    6.9996   10.2429 C.3       1 RES1    0.0000
     13 C2         2.2518    7.4545   10.1415 C.3       1 RES1    0.0000
     14 C3         2.0516    8.3748    8.9574 C.3       1 RES1    0.0000
     15 C4         2.9586    9.5715    9.0652 C.3       1 RES1    0.0000
     16 C5         4.4469    9.1895    9.1286 C.3       1 RES1    0.0000
     17 C6         4.6852    8.1330   10.2397 C.3       1 RES1    0.0000
     18 C7         4.6542    8.9968   11.5157 C.3       1 RES1    0.0000
     19 C8         5.3420   10.3067   11.1084 C.3       1 RES1    0.0000
     20 C9         5.3154   10.3823    9.5946 C.3       1 RES1    0.0000
     21 C10        4.8526    8.7126    7.7575 C.2       1 RES1    0.0000
     22 C11        5.2592    9.3709    5.5146 C.3       1 RES1    0.0000
     23 C12        4.0653    9.1126    4.7490 C.3       1 RES1    0.0000
     24 C13        5.1786    8.3113   12.7363 C.2       1 RES1    0.0000
     25 C14        6.6398    8.1788   12.9724 C.3       1 RES1    0.0000
     26 C15        3.9928    6.4660   15.4389 C.ar      1 RES1    0.0000
     27 C16        2.7013    6.1081   15.0156 C.ar      1 RES1    0.0000
     28 C17        1.9236    5.2423   15.7353 C.ar      1 RES1    0.0000
     29 C18        2.4046    4.7024   16.9146 C.ar      1 RES1    0.0000
     30 C19        3.6244    5.0481   17.3869 C.ar      1 RES1    0.0000
     31 C20        4.4225    5.9205   16.6752 C.ar      1 RES1    0.0000
     32 H1         3.7436    9.2035   11.6869 H         1 RES1    0.0000
     33 H2         3.7936    6.5134   11.0481 H         1 RES1    0.0000
     34 H3         3.8790    6.4357    9.5011 H         1 RES1    0.0000
     35 H4         1.6942    6.6929   10.0337 H         1 RES1    0.0000
     36 H5         2.0141    7.9139   10.9356 H         1 RES1    0.0000
     37 H6         2.2526    7.9053    8.1601 H         1 RES1    0.0000
     38 H7         1.1513    8.6690    8.9415 H         1 RES1    0.0000
     39 H8         2.8165   10.1196    8.3043 H         1 RES1    0.0000
     40 H9         2.7302   10.0497    9.8514 H         1 RES1    0.0000
     41 H10        4.8754   11.0497   11.4777 H         1 RES1    0.0000
     42 H11        6.2410   10.3161   11.4222 H         1 RES1    0.0000
     43 H12        6.1980   10.2995    9.2475 H         1 RES1    0.0000
     44 H13        4.9360   11.1989    9.3093 H         1 RES1    0.0000
     45 H14        5.7199   10.1068    5.1199 H         1 RES1    0.0000
     46 H15        5.8145    8.6037    5.4924 H         1 RES1    0.0000
     47 H16        3.5034    9.8765    4.7569 H         1 RES1    0.0000
     48 H17        4.3022    8.9074    3.8470 H         1 RES1    0.0000
     49 H18        3.6017    8.3720    5.1230 H         1 RES1    0.0000
     50 H19        6.8682    7.2561   13.0216 H         1 RES1    0.0000
     51 H20        7.1170    8.5880   12.2655 H         1 RES1    0.0000
     52 H21        6.8665    8.6000   13.7967 H         1 RES1    0.0000
     53 H22        2.3573    6.4781   14.2120 H         1 RES1    0.0000
     54 H23        1.0570    5.0118   15.4246 H         1 RES1    0.0000
     55 H24        3.9322    4.6866   18.2112 H         1 RES1    0.0000
     56 H25        5.5709    7.4019   14.9174 H         1 RES1    0.0000
     57 H26        6.1040    7.1249    9.3156 H         1 RES1    0.0000
@<TRIPOS>BOND
     1    1   17 1
     2    2   21 2
     3    3   21 1
     4    4   10 2
     5    5   10 2
     6    6   11 2
     7    7   11 2
     8    8    9 1
     9    9   26 1
    10   10   31 1
    11   11   29 1
    12   12   13 1
    13   13   14 1
    14   14   15 1
    15   15   16 1
    16   16   17 1
    17   17   12 1
    18   18   17 1
    19   19   18 1
    20   20   16 1
    21   21   16 1
    22   22    3 1
    23   23   22 1
    24   24    8 2
    25   25   24 1
    26   26   27 ar
    27   27   28 ar
    28   28   29 ar
    29   29   30 ar
    30   30   31 ar
    31   31   26 ar
    32   32   18 1
    33   33   12 1
    34   34   12 1
    35   35   13 1
    36   36   13 1
    37   37   14 1
    38   38   14 1
    39   39   15 1
    40   40   15 1
    41   41   19 1
    42   42   19 1
    43   43   20 1
    44   44   20 1
    45   45   22 1
    46   46   22 1
    47   47   23 1
    48   48   23 1
    49   49   23 1
    50   50   25 1
    51   51   25 1
    52   52   25 1
    53   53   27 1
    54   54   28 1
    55   55   30 1
    56   56    9 1
    57   57    1 1
    58   18   24 1
    59   19   20 1
@<TRIPOS>SUBSTRUCTURE
     1 RES1 1

@<TRIPOS>CRYSIN
   7.2120    9.4930   16.6080  75.7300  78.3700  81.8400   2 1

