# MOL2 file generated by ConQuest
# Please check atom types

@<TRIPOS>MOLECULE
UBURER
    51    54     1
SMALL
NO_CHARGES
****
Generated from CSD

@<TRIPOS>ATOM
      1 C1        12.7255    4.2133    6.1441 C.3       1 RES1    0.0000
      2 H1        12.2487    3.9245    6.9502 H         1 RES1    0.0000
      3 C2        13.5165    5.4998    6.4922 C.3       1 RES1    0.0000
      4 H2        14.0100    5.7789    5.6929 H         1 RES1    0.0000
      5 C3        12.5065    6.5760    6.8191 C.2       1 RES1    0.0000
      6 C4        11.4854    6.8155    5.7490 C.3       1 RES1    0.0000
      7 H3        11.9185    7.0830    4.9233 H         1 RES1    0.0000
      8 H4        10.8728    7.5176    6.0183 H         1 RES1    0.0000
      9 C5        10.7302    5.4949    5.5519 C.3       1 RES1    0.0000
     10 H5        10.3953    5.2070    6.4268 H         1 RES1    0.0000
     11 C6        13.6256    3.0790    5.7031 C.ar      1 RES1    0.0000
     12 C7        13.6371    1.8921    6.4135 C.ar      1 RES1    0.0000
     13 H6        13.0540    1.7812    7.1295 H         1 RES1    0.0000
     14 C8        14.5042    0.8659    6.0747 C.ar      1 RES1    0.0000
     15 H7        14.5009    0.0735    6.5616 H         1 RES1    0.0000
     16 C9        15.3699    1.0209    5.0170 C.ar      1 RES1    0.0000
     17 H8        15.9609    0.3378    4.7958 H         1 RES1    0.0000
     18 C10       15.3611    2.1841    4.2885 C.ar      1 RES1    0.0000
     19 H9        15.9403    2.2833    3.5678 H         1 RES1    0.0000
     20 C11       14.4921    3.2103    4.6229 C.ar      1 RES1    0.0000
     21 H10       14.4882    3.9933    4.1210 H         1 RES1    0.0000
     22 C12       14.5333    5.2293    7.6091 C.3       1 RES1    0.0000
     23 H11       14.0648    5.2080    8.4581 H         1 RES1    0.0000
     24 H12       14.9252    4.3533    7.4677 H         1 RES1    0.0000
     25 C13       15.6396    6.2453    7.6934 C.ar      1 RES1    0.0000
     26 C14       16.6380    6.2713    6.7352 C.ar      1 RES1    0.0000
     27 H13       16.6179    5.6571    6.0373 H         1 RES1    0.0000
     28 C15       17.6657    7.1962    6.7975 C.ar      1 RES1    0.0000
     29 H14       18.3216    7.2080    6.1384 H         1 RES1    0.0000
     30 C16       17.7158    8.0932    7.8308 C.ar      1 RES1    0.0000
     31 H15       18.4020    8.7191    7.8730 H         1 RES1    0.0000
     32 C17       16.7508    8.0634    8.8000 C.ar      1 RES1    0.0000
     33 H16       16.7907    8.6615    9.5113 H         1 RES1    0.0000
     34 C18       15.7196    7.1512    8.7294 C.ar      1 RES1    0.0000
     35 H17       15.0667    7.1470    9.3917 H         1 RES1    0.0000
     36 C19        9.5402    5.6360    4.6224 C.ar      1 RES1    0.0000
     37 C20        8.4983    6.4635    5.0327 C.ar      1 RES1    0.0000
     38 H18        8.5587    6.9041    5.8494 H         1 RES1    0.0000
     39 C21        7.3772    6.6405    4.2467 C.ar      1 RES1    0.0000
     40 H19        6.6999    7.2120    4.5289 H         1 RES1    0.0000
     41 C22        7.2570    5.9773    3.0510 C.ar      1 RES1    0.0000
     42 H20        6.4996    6.0924    2.5237 H         1 RES1    0.0000
     43 C23        8.2722    5.1382    2.6400 C.ar      1 RES1    0.0000
     44 H21        8.1945    4.6789    1.8350 H         1 RES1    0.0000
     45 C24        9.4110    4.9748    3.4218 C.ar      1 RES1    0.0000
     46 H22       10.0924    4.4129    3.1304 H         1 RES1    0.0000
     47 N1        11.7179    4.4978    5.0951 N.3       1 RES1    0.0000
     48 N2        12.4817    7.0670    7.9970 N.2       1 RES1    0.0000
     49 O1        11.4282    8.0031    8.1353 O.3       1 RES1    0.0000
     50 H23       11.3008    3.6961    4.9212 H         1 RES1    0.0000
     51 H24       11.3574    8.1815    9.0128 H         1 RES1    0.0000
@<TRIPOS>BOND
     1    1    2 1
     2    3    1 1
     3    4    3 1
     4    5    3 1
     5    6    5 1
     6    7    6 1
     7    8    6 1
     8    9    6 1
     9   10    9 1
    10   11    1 1
    11   12   11 ar
    12   13   12 1
    13   14   12 ar
    14   15   14 1
    15   16   14 ar
    16   17   16 1
    17   18   16 ar
    18   19   18 1
    19   20   11 ar
    20   21   20 1
    21   22    3 1
    22   23   22 1
    23   24   22 1
    24   25   22 1
    25   26   25 ar
    26   27   26 1
    27   28   26 ar
    28   29   28 1
    29   30   28 ar
    30   31   30 1
    31   32   30 ar
    32   33   32 1
    33   34   25 ar
    34   35   34 1
    35   36    9 1
    36   37   36 ar
    37   38   37 1
    38   39   37 ar
    39   40   39 1
    40   41   39 ar
    41   42   41 1
    42   43   41 ar
    43   44   43 1
    44   45   36 ar
    45   46   45 1
    46   47    1 1
    47   48    5 2
    48   49   48 1
    49   50   47 1
    50   51   49 1
    51    9   47 1
    52   18   20 ar
    53   32   34 ar
    54   43   45 ar
@<TRIPOS>SUBSTRUCTURE
     1 RES1 1

@<TRIPOS>CRYSIN
  19.5024    8.7503   11.6500  90.0000 100.8460  90.0000  14 1

