# MOL2 file generated by ConQuest
# Please check atom types

@<TRIPOS>MOLECULE
UBUVIY
    47    46     2
SMALL
NO_CHARGES
****
Generated from CSD

@<TRIPOS>ATOM
      1 O1         2.1818    6.5239    5.7901 O.3       1 RES1    0.0000
      2 H1         2.2758    7.2211    6.0420 H         1 RES1    0.0000
      3 N1         3.4930    6.2905    5.2008 N.2       1 RES1    0.0000
      4 C1         3.7053    5.0764    4.8738 C.2       1 RES1    0.0000
      5 C2         2.6825    3.9993    5.0691 C.3       1 RES1    0.0000
      6 H2         1.8059    4.4136    5.2667 H         1 RES1    0.0000
      7 H3         2.9386    3.4424    5.8467 H         1 RES1    0.0000
      8 C3         2.5537    3.1127    3.8339 C.3       1 RES1    0.0000
      9 H4         1.9581    2.3485    4.0396 H         1 RES1    0.0000
     10 H5         2.1420    3.6319    3.0990 H         1 RES1    0.0000
     11 C4         3.9060    2.5913    3.3867 C.2       1 RES1    0.0000
     12 C5         4.8246    3.7437    3.0620 C.3       1 RES1    0.0000
     13 H6         4.4436    4.2692    2.3144 H         1 RES1    0.0000
     14 H7         5.7048    3.3941    2.7755 H         1 RES1    0.0000
     15 C6         5.0073    4.6528    4.2915 C.3       1 RES1    0.0000
     16 H8         5.5297    4.1702    4.9790 H         1 RES1    0.0000
     17 H9         5.5216    5.4573    4.0269 H         1 RES1    0.0000
     18 C7         4.2401    1.3049    3.3289 C.2       1 RES1    0.0000
     19 C8         3.3241    0.1537    3.6802 C.3       1 RES1    0.0000
     20 H10        2.4137    0.5043    3.8466 H         1 RES1    0.0000
     21 H11        3.6430   -0.2703    4.5168 H         1 RES1    0.0000
     22 C9         3.2563   -0.9057    2.5790 C.3       1 RES1    0.0000
     23 H12        2.6847   -1.6554    2.8818 H         1 RES1    0.0000
     24 H13        2.8397   -0.5112    1.7725 H         1 RES1    0.0000
     25 C10        4.6414   -1.4430    2.2197 C.3       1 RES1    0.0000
     26 H14        5.0361   -1.8007    3.0666 H         1 RES1    0.0000
     27 C11        5.5150   -0.2476    1.8002 C.3       1 RES1    0.0000
     28 H15        6.4268   -0.5683    1.5830 H         1 RES1    0.0000
     29 H16        5.1348    0.1679    0.9868 H         1 RES1    0.0000
     30 C12        5.5960    0.7924    2.9095 C.3       1 RES1    0.0000
     31 H17        6.0478    0.3933    3.6952 H         1 RES1    0.0000
     32 H18        6.1466    1.5539    2.5975 H         1 RES1    0.0000
     33 C13        4.6422   -2.6165    1.2052 C.3       1 RES1    0.0000
     34 C14        3.8588   -3.7850    1.8095 C.3       1 RES1    0.0000
     35 H19        4.1901   -3.9667    2.7131 H         1 RES1    0.0000
     36 H20        3.9787   -4.5821    1.2514 H         1 RES1    0.0000
     37 H21        2.9073   -3.5539    1.8499 H         1 RES1    0.0000
     38 C15        6.0798   -3.0888    0.9868 C.3       1 RES1    0.0000
     39 H22        6.5212   -3.2023    1.8545 H         1 RES1    0.0000
     40 H23        6.5655   -2.4224    0.4576 H         1 RES1    0.0000
     41 H24        6.0734   -3.9447    0.5084 H         1 RES1    0.0000
     42 C16        4.0294   -2.2392   -0.1259 C.3       1 RES1    0.0000
     43 H25        4.5489   -1.5138   -0.5315 H         1 RES1    0.0000
     44 H26        3.1058   -1.9422    0.0116 H         1 RES1    0.0000
     45 H27        4.0366   -3.0181   -0.7210 H         1 RES1    0.0000
     46 H28        4.3565    8.1754    5.5128 Du        2 SUP2    0.0000
     47 O2         4.6254    7.2155    4.9616 Du        2 SUP2    0.0000
@<TRIPOS>BOND
     1    1    2 1
     2    3    1 1
     3    4    3 2
     4    5    4 1
     5    6    5 1
     6    7    5 1
     7    8    5 1
     8    9    8 1
     9   10    8 1
    10   11    8 1
    11   12   11 1
    12   13   12 1
    13   14   12 1
    14   15    4 1
    15   16   15 1
    16   17   15 1
    17   18   11 2
    18   19   18 1
    19   20   19 1
    20   21   19 1
    21   22   19 1
    22   23   22 1
    23   24   22 1
    24   25   22 1
    25   26   25 1
    26   27   25 1
    27   28   27 1
    28   29   27 1
    29   30   18 1
    30   31   30 1
    31   32   30 1
    32   33   25 1
    33   34   33 1
    34   35   34 1
    35   36   34 1
    36   37   34 1
    37   38   33 1
    38   39   38 1
    39   40   38 1
    40   41   38 1
    41   42   33 1
    42   43   42 1
    43   44   42 1
    44   45   42 1
    45   12   15 1
    46   27   30 1
@<TRIPOS>SUBSTRUCTURE
     1 RES1 1
     2 SUP2 46

@<TRIPOS>CRYSIN
   6.1950   10.4130   12.4990 110.9600  92.0960 104.7450   2 1

