# MOL2 file generated by ConQuest
# Please check atom types

@<TRIPOS>MOLECULE
UBUVOE
    51    51     2
SMALL
NO_CHARGES
****
Generated from CSD

@<TRIPOS>ATOM
      1 O1         0.8550    6.5533   13.7422 O.3       1 RES1    0.0000
      2 H1         1.4475    6.5913   14.4188 H         1 RES1    0.0000
      3 N1         0.4031    5.2105   13.4256 N.2       1 RES1    0.0000
      4 C1        -0.4399    5.1571   12.4673 C.2       1 RES1    0.0000
      5 C2        -0.9515    3.8395   11.9968 C.3       1 RES1    0.0000
      6 H2        -1.9336    3.7993   12.1188 H         1 RES1    0.0000
      7 H3        -0.5444    3.1121   12.5341 H         1 RES1    0.0000
      8 C3        -0.6037    3.6532   10.5244 C.3       1 RES1    0.0000
      9 H4        -1.0283    2.8224   10.1934 H         1 RES1    0.0000
     10 H5         0.3767    3.5519   10.4315 H         1 RES1    0.0000
     11 C4        -1.0720    4.8371    9.6677 C.2       1 RES1    0.0000
     12 C5        -0.5461    6.1449   10.2340 C.3       1 RES1    0.0000
     13 H6         0.4378    6.1690   10.1266 H         1 RES1    0.0000
     14 H7        -0.9251    6.8960    9.7113 H         1 RES1    0.0000
     15 C6        -0.8851    6.3421   11.6919 C.3       1 RES1    0.0000
     16 H8        -0.4346    7.1545   12.0346 H         1 RES1    0.0000
     17 H9        -1.8625    6.4626   11.7964 H         1 RES1    0.0000
     18 C7        -1.8081    4.7311    8.5642 C.2       1 RES1    0.0000
     19 C8        -2.3260    3.4362    7.9950 C.3       1 RES1    0.0000
     20 H10       -3.3148    3.4289    8.0531 H         1 RES1    0.0000
     21 H11       -1.9853    2.6825    8.5409 H         1 RES1    0.0000
     22 C9        -1.9086    3.2339    6.5487 C.3       1 RES1    0.0000
     23 H12       -2.3181    2.3988    6.2090 H         1 RES1    0.0000
     24 H13       -0.9252    3.1237    6.5110 H         1 RES1    0.0000
     25 C10       -2.3118    4.3888    5.6310 C.3       1 RES1    0.0000
     26 H14       -3.3112    4.4190    5.6252 H         1 RES1    0.0000
     27 C11       -1.8315    5.7072    6.2409 C.3       1 RES1    0.0000
     28 H15       -2.1925    6.4587    5.7065 H         1 RES1    0.0000
     29 H16       -0.8436    5.7455    6.1857 H         1 RES1    0.0000
     30 C12       -2.2575    5.8847    7.6988 C.3       1 RES1    0.0000
     31 H17       -1.8717    6.7256    8.0531 H         1 RES1    0.0000
     32 H18       -3.2435    5.9605    7.7452 H         1 RES1    0.0000
     33 C13       -1.8694    4.2033    4.1848 C.3       1 RES1    0.0000
     34 H19       -0.8699    4.1720    4.1877 H         1 RES1    0.0000
     35 C14       -2.3557    2.8817    3.5837 C.3       1 RES1    0.0000
     36 H20       -1.9989    2.1329    4.1238 H         1 RES1    0.0000
     37 H21       -3.3439    2.8491    3.6388 H         1 RES1    0.0000
     38 C15       -1.9362    2.6871    2.1345 C.3       1 RES1    0.0000
     39 H22       -0.9522    2.5862    2.0939 H         1 RES1    0.0000
     40 H23       -2.3419    1.8528    1.7889 H         1 RES1    0.0000
     41 C16       -2.3545    3.8453    1.2517 C.3       1 RES1    0.0000
     42 H24       -3.3418    3.8702    1.1849 H         1 RES1    0.0000
     43 H25       -1.9868    3.7173    0.3427 H         1 RES1    0.0000
     44 C17       -1.8470    5.1689    1.8296 C.3       1 RES1    0.0000
     45 H26       -0.8583    5.1904    1.7773 H         1 RES1    0.0000
     46 H27       -2.1978    5.9184    1.2865 H         1 RES1    0.0000
     47 C18       -2.2754    5.3511    3.2700 C.3       1 RES1    0.0000
     48 H28       -3.2603    5.4483    3.2991 H         1 RES1    0.0000
     49 H29       -1.8800    6.1900    3.6156 H         1 RES1    0.0000
     50 H30        1.3446    3.9196   14.6860 Du        2 SUP2    0.0000
     51 O2         0.7578    3.8819   14.0152 Du        2 SUP2    0.0000
@<TRIPOS>BOND
     1    1    2 1
     2    3    1 1
     3    4    3 2
     4    5    4 1
     5    6    5 1
     6    7    5 1
     7    8    5 1
     8    9    8 1
     9   10    8 1
    10   11    8 1
    11   12   11 1
    12   13   12 1
    13   14   12 1
    14   15    4 1
    15   16   15 1
    16   17   15 1
    17   18   11 2
    18   19   18 1
    19   20   19 1
    20   21   19 1
    21   22   19 1
    22   23   22 1
    23   24   22 1
    24   25   22 1
    25   26   25 1
    26   27   25 1
    27   28   27 1
    28   29   27 1
    29   30   18 1
    30   31   30 1
    31   32   30 1
    32   33   25 1
    33   34   33 1
    34   35   33 1
    35   36   35 1
    36   37   35 1
    37   38   35 1
    38   39   38 1
    39   40   38 1
    40   41   38 1
    41   42   41 1
    42   43   41 1
    43   44   41 1
    44   45   44 1
    45   46   44 1
    46   47   33 1
    47   48   47 1
    48   49   47 1
    49   12   15 1
    50   27   30 1
    51   44   47 1
@<TRIPOS>SUBSTRUCTURE
     1 RES1 1
     2 SUP2 50

@<TRIPOS>CRYSIN
   4.5394    6.1336   29.1370  90.5410  94.1730 109.5570   2 1

