# MOL2 file generated by ConQuest
# Please check atom types

@<TRIPOS>MOLECULE
UBUWOG
    54    56     2
SMALL
NO_CHARGES
****
Generated from CSD

@<TRIPOS>ATOM
      1 O1         9.2914   12.7481    4.4458 O.3       1 RES1    0.0000
      2 H1         9.9163   13.3018    4.5442 H         1 RES1    0.0000
      3 N1         6.9762   10.3625    1.2387 N.ar      1 RES1    0.0000
      4 C1         8.8292   11.6522    0.4464 C.ar      1 RES1    0.0000
      5 H2         9.5601   12.2261    0.6442 H         1 RES1    0.0000
      6 N2         9.2113   12.3717    3.1074 N.2       1 RES1    0.0000
      7 C2         8.5678   11.2794   -0.8531 C.ar      1 RES1    0.0000
      8 H3         9.1222   11.5806   -1.5626 H         1 RES1    0.0000
      9 N3         7.6081   10.3145    6.1778 N.ar      1 RES1    0.0000
     10 C3         7.4908   10.4653   -1.1058 C.ar      1 RES1    0.0000
     11 H4         7.2746   10.2072   -1.9944 H         1 RES1    0.0000
     12 C4         6.7308   10.0316   -0.0422 C.ar      1 RES1    0.0000
     13 H5         5.9898    9.4646   -0.2241 H         1 RES1    0.0000
     14 C5         8.0097   11.1780    1.4690 C.ar      1 RES1    0.0000
     15 C6         8.2126   11.5964    2.8822 C.2       1 RES1    0.0000
     16 C7         7.2231   11.1841    3.9423 C.3       1 RES1    0.0000
     17 H6         6.3921   10.8796    3.4986 H         1 RES1    0.0000
     18 H7         6.9966   11.9764    4.4894 H         1 RES1    0.0000
     19 C8         7.7120   10.0863    4.8601 C.ar      1 RES1    0.0000
     20 C9         8.2024    8.8772    4.3699 C.ar      1 RES1    0.0000
     21 H8         8.2526    8.7232    3.4333 H         1 RES1    0.0000
     22 C10        8.6158    7.9018    5.2647 C.ar      1 RES1    0.0000
     23 H9         8.9642    7.0768    4.9480 H         1 RES1    0.0000
     24 C11        8.5161    8.1416    6.6227 C.ar      1 RES1    0.0000
     25 H10        8.7989    7.4929    7.2563 H         1 RES1    0.0000
     26 C12        7.9943    9.3521    7.0314 C.ar      1 RES1    0.0000
     27 H11        7.9040    9.5127    7.9635 H         1 RES1    0.0000
     28 O2         6.6838   12.6168    7.1929 O.3       2 RES2    0.0000
     29 H12        6.9513   11.9200    6.8082 H         2 RES2    0.0000
     30 N4         5.4634   14.3006   11.3060 N.ar      2 RES2    0.0000
     31 N5         6.4201   12.3358    8.5319 N.2       2 RES2    0.0000
     32 N6         4.3708   16.2177    7.3994 N.ar      2 RES2    0.0000
     33 C13        5.5805   11.9048   11.1717 C.ar      2 RES2    0.0000
     34 H13        5.7191   11.1283   10.6440 H         2 RES2    0.0000
     35 C14        5.2770   11.7995   12.5141 C.ar      2 RES2    0.0000
     36 H14        5.2092   10.9470   12.9266 H         2 RES2    0.0000
     37 C15        5.0728   12.9548   13.2522 C.ar      2 RES2    0.0000
     38 H15        4.8732   12.9114   14.1800 H         2 RES2    0.0000
     39 C16        5.1671   14.1695   12.6069 C.ar      2 RES2    0.0000
     40 H16        5.0137   14.9590   13.1133 H         2 RES2    0.0000
     41 C17        5.6793   13.1782   10.6066 C.ar      2 RES2    0.0000
     42 C18        6.0272   13.3783    9.1739 C.2       2 RES2    0.0000
     43 C19        5.8826   14.7503    8.5656 C.3       2 RES2    0.0000
     44 H17        6.5714   14.8631    7.8631 H         2 RES2    0.0000
     45 H18        6.0534   15.4303    9.2658 H         2 RES2    0.0000
     46 C20        4.5201   15.0055    7.9595 C.ar      2 RES2    0.0000
     47 C21        3.4899   14.0745    7.9637 C.ar      2 RES2    0.0000
     48 H19        3.6219   13.2146    8.3462 H         2 RES2    0.0000
     49 C22        2.2642   14.4095    7.4037 C.ar      2 RES2    0.0000
     50 H20        1.5490   13.7845    7.3975 H         2 RES2    0.0000
     51 C23        2.1035   15.6733    6.8540 C.ar      2 RES2    0.0000
     52 H21        1.2707   15.9420    6.4837 H         2 RES2    0.0000
     53 C24        3.1885   16.5328    6.8597 C.ar      2 RES2    0.0000
     54 H22        3.0879   17.3885    6.4604 H         2 RES2    0.0000
@<TRIPOS>BOND
     1    1    2 1
     2    3   12 ar
     3    4    5 1
     4    6    1 1
     5    7    4 ar
     6    8    7 1
     7    9   19 ar
     8   10    7 ar
     9   11   10 1
    10   12   10 ar
    11   13   12 1
    12   14    3 ar
    13   15    6 2
    14   16   15 1
    15   17   16 1
    16   18   16 1
    17   19   16 1
    18   20   19 ar
    19   21   20 1
    20   22   20 ar
    21   23   22 1
    22   24   22 ar
    23   25   24 1
    24   26    9 ar
    25   27   26 1
    26   28   29 1
    27   30   39 ar
    28   31   28 1
    29   32   46 ar
    30   33   34 1
    31   35   33 ar
    32   36   35 1
    33   37   35 ar
    34   38   37 1
    35   39   37 ar
    36   40   39 1
    37   41   30 ar
    38   42   31 2
    39   43   42 1
    40   44   43 1
    41   45   43 1
    42   46   43 1
    43   47   46 ar
    44   48   47 1
    45   49   47 ar
    46   50   49 1
    47   51   49 ar
    48   52   51 1
    49   53   32 ar
    50   54   53 1
    51    4   14 ar
    52   14   15 1
    53   24   26 ar
    54   33   41 ar
    55   41   42 1
    56   51   53 ar
@<TRIPOS>SUBSTRUCTURE
     1 RES1 1
     2 RES2 28

@<TRIPOS>CRYSIN
   7.3692   12.7821   13.2426  61.8720  81.3460  75.5930   2 1

