# MOL2 file generated by ConQuest
# Please check atom types

@<TRIPOS>MOLECULE
UBUWAR
    56    60     1
SMALL
NO_CHARGES
****
Generated from CSD

@<TRIPOS>ATOM
      1 O1         3.3810    5.1734   14.7333 O.3       1 RES1    0.0000
      2 O2         5.2305    2.1918    6.5539 O.2       1 RES1    0.0000
      3 O3         3.1309    2.6474    6.7871 O.2       1 RES1    0.0000
      4 N1         1.1478    3.5296   18.6004 N.pl3     1 RES1    0.0000
      5 N2         3.7399    7.6927   15.9507 N.2       1 RES1    0.0000
      6 N3         5.6123    6.7870   10.8400 N.2       1 RES1    0.0000
      7 N4         8.7150    5.8764    9.6057 N.1       1 RES1    0.0000
      8 N5         4.3070    2.8141    7.0711 N.pl3     1 RES1    0.0000
      9 C1         1.5247    3.4549   21.0613 C.3       1 RES1    0.0000
     10 H1         1.8251    2.5330   21.0199 H         1 RES1    0.0000
     11 H2         1.0826    3.6128   21.9103 H         1 RES1    0.0000
     12 H3         2.2885    4.0469   20.9784 H         1 RES1    0.0000
     13 C2         0.5599    3.7192   19.9345 C.3       1 RES1    0.0000
     14 H4        -0.2101    3.1192   20.0297 H         1 RES1    0.0000
     15 H5         0.2312    4.6393   20.0082 H         1 RES1    0.0000
     16 C3         2.5025    1.4745   18.1168 C.3       1 RES1    0.0000
     17 H6         3.1547    2.0189   17.6486 H         1 RES1    0.0000
     18 H7         2.4506    0.6000   17.6993 H         1 RES1    0.0000
     19 H8         2.7714    1.3748   19.0441 H         1 RES1    0.0000
     20 C4         1.1407    2.1487   18.0539 C.3       1 RES1    0.0000
     21 H9         0.8423    2.1777   17.1205 H         1 RES1    0.0000
     22 H10        0.4943    1.6102   18.5574 H         1 RES1    0.0000
     23 C5         1.7730    4.5420   17.9449 C.ar      1 RES1    0.0000
     24 C6         1.9806    5.8098   18.5636 C.ar      1 RES1    0.0000
     25 H11        1.6801    5.9483   19.4432 H         1 RES1    0.0000
     26 C7         2.6035    6.8190   17.9050 C.ar      1 RES1    0.0000
     27 H12        2.7137    7.6464   18.3364 H         1 RES1    0.0000
     28 C8         3.0889    6.6626   16.5939 C.ar      1 RES1    0.0000
     29 C9         2.8873    5.4064   16.0105 C.ar      1 RES1    0.0000
     30 C10        2.2607    4.3643   16.6323 C.ar      1 RES1    0.0000
     31 H13        2.1553    3.5400   16.1917 H         1 RES1    0.0000
     32 C11        4.0443    6.1804   14.0731 C.2       1 RES1    0.0000
     33 C12        4.1992    7.4539   14.7409 C.2       1 RES1    0.0000
     34 C13        4.9193    8.5051   14.0071 C.ar      1 RES1    0.0000
     35 C14        5.1040    9.7766   14.5721 C.ar      1 RES1    0.0000
     36 H14        4.7858    9.9557   15.4379 H         1 RES1    0.0000
     37 C15        5.7450   10.7520   13.8659 C.ar      1 RES1    0.0000
     38 H15        5.8424   11.6074   14.2420 H         1 RES1    0.0000
     39 C16        6.2576   10.5002   12.5917 C.ar      1 RES1    0.0000
     40 H16        6.7123   11.1754   12.1219 H         1 RES1    0.0000
     41 C17        6.0932    9.2601   12.0329 C.ar      1 RES1    0.0000
     42 H17        6.4366    9.0930   11.1731 H         1 RES1    0.0000
     43 C18        5.4200    8.2327   12.7191 C.ar      1 RES1    0.0000
     44 C19        5.1726    6.9376   12.0743 C.2       1 RES1    0.0000
     45 C20        4.4937    5.9142   12.8266 C.2       1 RES1    0.0000
     46 H18        4.3632    5.0624   12.4504 H         1 RES1    0.0000
     47 C21        5.2566    5.7389   10.0171 C.ar      1 RES1    0.0000
     48 C22        3.9303    5.3530    9.7684 C.ar      1 RES1    0.0000
     49 H19        3.2379    5.7468   10.2674 H         1 RES1    0.0000
     50 C23        3.6203    4.4182    8.8212 C.ar      1 RES1    0.0000
     51 H20        2.7250    4.1834    8.6585 H         1 RES1    0.0000
     52 C24        4.6479    3.8205    8.0997 C.ar      1 RES1    0.0000
     53 C25        5.9589    4.1519    8.2870 C.ar      1 RES1    0.0000
     54 H21        6.6377    3.7304    7.7926 H         1 RES1    0.0000
     55 C26        6.2711    5.1444    9.2449 C.ar      1 RES1    0.0000
     56 C27        7.6319    5.5451    9.4353 C.1       1 RES1    0.0000
@<TRIPOS>BOND
     1    1   29 1
     2    2    8 2
     3    3    8 2
     4    4   13 1
     5    5   28 1
     6    6   44 2
     7    7   56 3
     8    8   52 1
     9    9   10 1
    10   11    9 1
    11   12    9 1
    12   13    9 1
    13   14   13 1
    14   15   13 1
    15   16   17 1
    16   18   16 1
    17   19   16 1
    18   20    4 1
    19   21   20 1
    20   22   20 1
    21   23    4 1
    22   24   23 ar
    23   25   24 1
    24   26   24 ar
    25   27   26 1
    26   28   26 ar
    27   29   28 ar
    28   30   23 ar
    29   31   30 1
    30   32    1 1
    31   33    5 2
    32   34   33 1
    33   35   34 ar
    34   36   35 1
    35   37   35 ar
    36   38   37 1
    37   39   37 ar
    38   40   39 1
    39   41   39 ar
    40   42   41 1
    41   43   34 ar
    42   44   43 1
    43   45   32 2
    44   46   45 1
    45   47    6 1
    46   48   47 ar
    47   49   48 1
    48   50   48 ar
    49   51   50 1
    50   52   50 ar
    51   53   52 ar
    52   54   53 1
    53   55   47 ar
    54   56   55 1
    55   16   20 1
    56   29   30 ar
    57   32   33 1
    58   41   43 ar
    59   44   45 1
    60   53   55 ar
@<TRIPOS>SUBSTRUCTURE
     1 RES1 1

@<TRIPOS>CRYSIN
   7.9940    9.2640   15.6170  79.7900  85.7800  81.2900   2 1

