# MOL2 file generated by ConQuest
# Please check atom types

@<TRIPOS>MOLECULE
UCAFIP
    36    36     2
SMALL
NO_CHARGES
****
Generated from CSD

@<TRIPOS>ATOM
      1 C1         1.2890    2.2540    3.7223 C.3       1 RES1    0.0000
      2 H1         2.1418    2.4961    3.3045 H         1 RES1    0.0000
      3 N1         4.0833    2.6500    8.4811 N.2       1 RES1    0.0000
      4 C2         1.9936    3.5740    5.7885 C.3       1 RES1    0.0000
      5 H2         1.3455    4.2574    5.5556 H         1 RES1    0.0000
      6 H3         2.8338    3.8044    5.3620 H         1 RES1    0.0000
      7 C3         3.0871    2.4476    7.7211 C.2       1 RES1    0.0000
      8 C4         2.1887    3.5662    7.3113 C.3       1 RES1    0.0000
      9 H4         2.5733    4.4104    7.5923 H         1 RES1    0.0000
     10 H5         1.3281    3.4672    7.7479 H         1 RES1    0.0000
     11 C5         0.2563    3.3016    3.3038 C.3       1 RES1    0.0000
     12 H6        -0.5749    3.1289    3.7734 H         1 RES1    0.0000
     13 H7         0.5703    4.1787    3.5722 H         1 RES1    0.0000
     14 C6         2.7334    1.1017    7.1866 C.3       1 RES1    0.0000
     15 H8         1.9259    0.7851    7.6207 H         1 RES1    0.0000
     16 H9         3.4476    0.4778    7.3911 H         1 RES1    0.0000
     17 C7         1.5117    2.2225    5.2445 C.3       1 RES1    0.0000
     18 H10        0.6512    2.0190    5.6676 H         1 RES1    0.0000
     19 C8        -0.0143    3.3115    1.8096 C.3       1 RES1    0.0000
     20 H11        0.7879    3.5908    1.3419 H         1 RES1    0.0000
     21 H12       -0.7127    3.9558    1.6153 H         1 RES1    0.0000
     22 C9         0.8708    0.8936    3.1637 C.3       1 RES1    0.0000
     23 H13        1.5725    0.2497    3.3482 H         1 RES1    0.0000
     24 H14        0.0699    0.5977    3.6234 H         1 RES1    0.0000
     25 O1         4.8686    1.4481    8.7776 O.3       1 RES1    0.0000
     26 C10        2.5125    1.1427    5.6762 C.3       1 RES1    0.0000
     27 H15        2.1898    0.2774    5.3810 H         1 RES1    0.0000
     28 H16        3.3622    1.3070    5.2368 H         1 RES1    0.0000
     29 C11       -0.4407    1.9417    1.2981 C.3       1 RES1    0.0000
     30 H17       -1.2952    1.6982    1.6874 H         1 RES1    0.0000
     31 H18       -0.5439    1.9703    0.3341 H         1 RES1    0.0000
     32 C12        0.6002    0.9128    1.6688 C.3       1 RES1    0.0000
     33 H19        1.4248    1.1080    1.1977 H         1 RES1    0.0000
     34 H20        0.2963    0.0355    1.3875 H         1 RES1    0.0000
     35 H21        5.4139    1.7280    9.4087 H         1 RES1    0.0000
     36 O2         4.1879    4.0495    9.0006 Du        2 SUP2    0.0000
@<TRIPOS>BOND
     1    1    2 1
     2    3    7 2
     3    4    5 1
     4    6    4 1
     5    7    8 1
     6    8    4 1
     7    9    8 1
     8   10    8 1
     9   11    1 1
    10   12   11 1
    11   13   11 1
    12   14    7 1
    13   15   14 1
    14   16   14 1
    15   17    1 1
    16   18   17 1
    17   19   11 1
    18   20   19 1
    19   21   19 1
    20   22    1 1
    21   23   22 1
    22   24   22 1
    23   25    3 1
    24   26   14 1
    25   27   26 1
    26   28   26 1
    27   29   19 1
    28   30   29 1
    29   31   29 1
    30   32   22 1
    31   33   32 1
    32   34   32 1
    33   35   25 1
    34    4   17 1
    35   17   26 1
    36   29   32 1
@<TRIPOS>SUBSTRUCTURE
     1 RES1 1
     2 SUP2 36

@<TRIPOS>CRYSIN
   5.4160    5.9418   19.1720  86.2800  81.9300  67.6400   2 1

