# MOL2 file generated by ConQuest
# Please check atom types

@<TRIPOS>MOLECULE
UCAXAZ
   108   114     2
SMALL
NO_CHARGES
****
Generated from CSD

@<TRIPOS>ATOM
      1 O1         8.8698   11.8811    8.4048 O.3       1 RES1    0.0000
      2 O2        11.1230    7.8648   10.7848 O.3       1 RES1    0.0000
      3 H1        11.2834    7.1248   11.2185 H         1 RES1    0.0000
      4 O3         9.7629    4.5783    9.0155 O.2       1 RES1    0.0000
      5 O4         9.3387    5.5490   10.8949 O.2       1 RES1    0.0000
      6 N1         8.6337    9.0786    8.7029 N.3       1 RES1    0.0000
      7 N2         9.5833    5.5800    9.6926 N.pl3     1 RES1    0.0000
      8 C1         7.4780    9.9683    8.9485 C.3       1 RES1    0.0000
      9 H2         6.6566    9.4927    8.6320 H         1 RES1    0.0000
     10 C2         7.6488   11.2118    8.0885 C.3       1 RES1    0.0000
     11 H3         7.6512   10.9555    7.1317 H         1 RES1    0.0000
     12 H4         6.8868   11.8255    8.2398 H         1 RES1    0.0000
     13 C3         9.9810   11.0225    8.1751 C.3       1 RES1    0.0000
     14 H5        10.8166   11.5066    8.3918 H         1 RES1    0.0000
     15 H6        10.0108   10.7793    7.2150 H         1 RES1    0.0000
     16 C4         9.9062    9.7589    9.0079 C.3       1 RES1    0.0000
     17 H7         9.9392    9.9926    9.9804 H         1 RES1    0.0000
     18 C5        11.0899    8.8814    8.6534 C.3       1 RES1    0.0000
     19 H8        11.9275    9.3614    8.8723 H         1 RES1    0.0000
     20 H9        11.0853    8.7093    7.6784 H         1 RES1    0.0000
     21 C6        11.0683    7.5543    9.3945 C.3       1 RES1    0.0000
     22 C7         9.7151    6.9122    9.0157 C.3       1 RES1    0.0000
     23 H10        9.7110    6.7579    8.0265 H         1 RES1    0.0000
     24 C8         8.4880    7.7683    9.3680 C.3       1 RES1    0.0000
     25 H11        8.4395    7.8970   10.3580 H         1 RES1    0.0000
     26 C9         7.2478   10.3704   10.4308 C.3       1 RES1    0.0000
     27 H12        7.3784    9.5761   11.0076 H         1 RES1    0.0000
     28 H13        7.9198   11.0484   10.6914 H         1 RES1    0.0000
     29 C10        5.8666   10.9273   10.6593 C.ar      1 RES1    0.0000
     30 C11        5.6515   12.2989   10.8186 C.ar      1 RES1    0.0000
     31 H14        6.3879   12.8973   10.7845 H         1 RES1    0.0000
     32 C12        4.3727   12.7938   11.0270 C.ar      1 RES1    0.0000
     33 H15        4.2379   13.7288   11.1229 H         1 RES1    0.0000
     34 C13        3.2917   11.9320   11.0954 C.ar      1 RES1    0.0000
     35 H16        2.4187   12.2741   11.2454 H         1 RES1    0.0000
     36 C14        3.4873   10.5734   10.9449 C.ar      1 RES1    0.0000
     37 H17        2.7506    9.9766   10.9978 H         1 RES1    0.0000
     38 C15        4.7660   10.0828   10.7144 C.ar      1 RES1    0.0000
     39 H18        4.8903    9.1483   10.5909 H         1 RES1    0.0000
     40 C16       12.2369    6.6773    8.9807 C.3       1 RES1    0.0000
     41 H19       12.2313    5.8527    9.5122 H         1 RES1    0.0000
     42 H20       13.0766    7.1584    9.1346 H         1 RES1    0.0000
     43 H21       12.1567    6.4535    8.0290 H         1 RES1    0.0000
     44 C17        7.2465    7.0437    8.8848 C.ar      1 RES1    0.0000
     45 C18        7.0307    6.8654    7.5109 C.ar      1 RES1    0.0000
     46 H22        7.6222    7.2658    6.8841 H         1 RES1    0.0000
     47 C19        5.9630    6.1108    7.0601 C.ar      1 RES1    0.0000
     48 H23        5.8247    6.0001    6.1265 H         1 RES1    0.0000
     49 C20        5.0920    5.5144    7.9623 C.ar      1 RES1    0.0000
     50 H24        4.3654    4.9891    7.6490 H         1 RES1    0.0000
     51 C21        5.2915    5.6920    9.3170 C.ar      1 RES1    0.0000
     52 H25        4.6932    5.2935    9.9387 H         1 RES1    0.0000
     53 C22        6.3621    6.4496    9.7757 C.ar      1 RES1    0.0000
     54 H26        6.4906    6.5624   10.7110 H         1 RES1    0.0000
     55 O5         1.8339    5.7037   12.2423 O.3       2 RES2    0.0000
     56 O6         3.5946    9.9139   14.5713 O.3       2 RES2    0.0000
     57 H27        3.6778   10.6174   15.1190 H         2 RES2    0.0000
     58 O7         5.2599    8.8793   17.9858 O.2       2 RES2    0.0000
     59 O8         3.2908    9.7143   17.6223 O.2       2 RES2    0.0000
     60 N3         2.5999    6.7044   14.7907 N.3       2 RES2    0.0000
     61 N4         4.2111    8.9603   17.3455 N.pl3     2 RES2    0.0000
     62 C23        1.2620    6.1189   14.5852 C.3       2 RES2    0.0000
     63 H28        1.0278    5.6171   15.4180 H         2 RES2    0.0000
     64 C24        1.3656    5.0985   13.4578 C.3       2 RES2    0.0000
     65 H29        1.9883    4.3771   13.7265 H         2 RES2    0.0000
     66 H30        0.4761    4.6927   13.2999 H         2 RES2    0.0000
     67 C25        3.1213    6.2798   12.4703 C.3       2 RES2    0.0000
     68 H31        3.4507    6.6842   11.6279 H         2 RES2    0.0000
     69 H32        3.7556    5.5659   12.7336 H         2 RES2    0.0000
     70 C26        3.0862    7.3401   13.5534 C.3       2 RES2    0.0000
     71 H33        2.4633    8.0748   13.2852 H         2 RES2    0.0000
     72 C27        4.4832    7.8970   13.7363 C.3       2 RES2    0.0000
     73 H34        4.7720    8.3360   12.8978 H         2 RES2    0.0000
     74 H35        5.1091    7.1536   13.9226 H         2 RES2    0.0000
     75 C28        4.5457    8.9056   14.8775 C.3       2 RES2    0.0000
     76 C29        4.1007    8.0929   16.1241 C.3       2 RES2    0.0000
     77 H36        4.7222    7.3170   16.2320 H         2 RES2    0.0000
     78 C30        2.6684    7.5506   15.9942 C.3       2 RES2    0.0000
     79 H37        2.0297    8.3136   15.9035 H         2 RES2    0.0000
     80 C31        0.1086    7.1371   14.3210 C.3       2 RES2    0.0000
     81 H38        0.3340    8.0059   14.7390 H         2 RES2    0.0000
     82 H39        0.0124    7.2802   13.3465 H         2 RES2    0.0000
     83 C32       -1.1937    6.6332   14.8846 C.ar      2 RES2    0.0000
     84 C33       -2.0381    5.8015   14.1587 C.ar      2 RES2    0.0000
     85 H40       -1.8337    5.6043   13.2508 H         2 RES2    0.0000
     86 C34       -3.1779    5.2517   14.7382 C.ar      2 RES2    0.0000
     87 H41       -3.7338    4.6703   14.2315 H         2 RES2    0.0000
     88 C35       -3.5044    5.5505   16.0533 C.ar      2 RES2    0.0000
     89 H42       -4.2752    5.1669   16.4551 H         2 RES2    0.0000
     90 C36       -2.6960    6.4126   16.7755 C.ar      2 RES2    0.0000
     91 H43       -2.9300    6.6425   17.6662 H         2 RES2    0.0000
     92 C37       -1.5494    6.9420   16.2075 C.ar      2 RES2    0.0000
     93 H44       -0.9967    7.5205   16.7198 H         2 RES2    0.0000
     94 C38        5.9465    9.4711   15.0224 C.3       2 RES2    0.0000
     95 H45        6.5715    8.7461   15.2317 H         2 RES2    0.0000
     96 H46        5.9585   10.1320   15.7466 H         2 RES2    0.0000
     97 H47        6.2137    9.9013   14.1824 H         2 RES2    0.0000
     98 C39        2.3169    6.7396   17.2337 C.ar      2 RES2    0.0000
     99 C40        2.8260    5.4569   17.4090 C.ar      2 RES2    0.0000
    100 H48        3.4030    5.0820   16.7542 H         2 RES2    0.0000
    101 C41        2.4945    4.7223   18.5392 C.ar      2 RES2    0.0000
    102 H49        2.8408    3.8452   18.6492 H         2 RES2    0.0000
    103 C42        1.6632    5.2591   19.5046 C.ar      2 RES2    0.0000
    104 H50        1.4303    4.7488   20.2697 H         2 RES2    0.0000
    105 C43        1.1726    6.5419   19.3502 C.ar      2 RES2    0.0000
    106 H51        0.6150    6.9197   20.0197 H         2 RES2    0.0000
    107 C44        1.4938    7.2786   18.2195 C.ar      2 RES2    0.0000
    108 H52        1.1492    8.1581   18.1173 H         2 RES2    0.0000
@<TRIPOS>BOND
     1    1   10 1
     2    2    3 1
     3    4    7 2
     4    5    7 2
     5    6    8 1
     6    7   22 1
     7    8    9 1
     8   10    8 1
     9   11   10 1
    10   12   10 1
    11   13    1 1
    12   14   13 1
    13   15   13 1
    14   16    6 1
    15   17   16 1
    16   18   16 1
    17   19   18 1
    18   20   18 1
    19   21    2 1
    20   22   21 1
    21   23   22 1
    22   24    6 1
    23   25   24 1
    24   26    8 1
    25   27   26 1
    26   28   26 1
    27   29   26 1
    28   30   29 ar
    29   31   30 1
    30   32   30 ar
    31   33   32 1
    32   34   32 ar
    33   35   34 1
    34   36   34 ar
    35   37   36 1
    36   38   29 ar
    37   39   38 1
    38   40   21 1
    39   41   40 1
    40   42   40 1
    41   43   40 1
    42   44   24 1
    43   45   44 ar
    44   46   45 1
    45   47   45 ar
    46   48   47 1
    47   49   47 ar
    48   50   49 1
    49   51   49 ar
    50   52   51 1
    51   53   44 ar
    52   54   53 1
    53   55   64 1
    54   56   57 1
    55   58   61 2
    56   59   61 2
    57   60   62 1
    58   61   76 1
    59   62   63 1
    60   64   62 1
    61   65   64 1
    62   66   64 1
    63   67   55 1
    64   68   67 1
    65   69   67 1
    66   70   60 1
    67   71   70 1
    68   72   70 1
    69   73   72 1
    70   74   72 1
    71   75   56 1
    72   76   75 1
    73   77   76 1
    74   78   60 1
    75   79   78 1
    76   80   62 1
    77   81   80 1
    78   82   80 1
    79   83   80 1
    80   84   83 ar
    81   85   84 1
    82   86   84 ar
    83   87   86 1
    84   88   86 ar
    85   89   88 1
    86   90   88 ar
    87   91   90 1
    88   92   83 ar
    89   93   92 1
    90   94   75 1
    91   95   94 1
    92   96   94 1
    93   97   94 1
    94   98   78 1
    95   99   98 ar
    96  100   99 1
    97  101   99 ar
    98  102  101 1
    99  103  101 ar
   100  104  103 1
   101  105  103 ar
   102  106  105 1
   103  107   98 ar
   104  108  107 1
   105   13   16 1
   106   18   21 1
   107   22   24 1
   108   36   38 ar
   109   51   53 ar
   110   67   70 1
   111   72   75 1
   112   76   78 1
   113   90   92 ar
   114  105  107 ar
@<TRIPOS>SUBSTRUCTURE
     1 RES1 1
     2 RES2 55

@<TRIPOS>CRYSIN
  10.3717   16.0215   24.5159  90.0000  90.0000  90.0000  19 1

