# MOL2 file generated by ConQuest
# Please check atom types

@<TRIPOS>MOLECULE
UCAXOO
    99   102     3
SMALL
NO_CHARGES
****
Generated from CSD

@<TRIPOS>ATOM
      1 C1         1.7191    6.8850    5.6953 C.ar      1 RES1    0.0000
      2 C2         0.4661    6.8233    6.2938 C.ar      1 RES1    0.0000
      3 H1         0.0248    6.0076    6.3642 H         1 RES1    0.0000
      4 C3        -0.1320    7.9806    6.7882 C.ar      1 RES1    0.0000
      5 H2        -0.9726    7.9383    7.1841 H         1 RES1    0.0000
      6 C4         0.5315    9.1980    6.6890 C.ar      1 RES1    0.0000
      7 H3         0.1351    9.9699    7.0217 H         1 RES1    0.0000
      8 C5         1.7808    9.2619    6.0969 C.ar      1 RES1    0.0000
      9 H4         2.2228   10.0764    6.0326 H         1 RES1    0.0000
     10 C6         2.3766    8.1122    5.5994 C.ar      1 RES1    0.0000
     11 H5         3.2153    8.1595    5.2014 H         1 RES1    0.0000
     12 C7         2.4094    5.6977    5.0992 C.2       1 RES1    0.0000
     13 C8         3.5049    2.6892    5.6483 C.2       1 RES1    0.0000
     14 C9         3.9526    1.5227    4.8334 C.ar      1 RES1    0.0000
     15 C10        4.9809    0.7247    5.3423 C.ar      1 RES1    0.0000
     16 H6         5.3623    0.9039    6.1713 H         1 RES1    0.0000
     17 C11        5.4142   -0.3449    4.5687 C.ar      1 RES1    0.0000
     18 C12        4.8959   -0.6398    3.3272 C.ar      1 RES1    0.0000
     19 H7         5.2118   -1.3544    2.8229 H         1 RES1    0.0000
     20 C13        3.8797    0.1827    2.8666 C.ar      1 RES1    0.0000
     21 C14        3.3826    1.2526    3.5926 C.ar      1 RES1    0.0000
     22 H8         2.6885    1.7750    3.2605 H         1 RES1    0.0000
     23 N1         2.0863    4.5134    5.6515 N.am      1 RES1    0.0000
     24 N2         6.4978   -1.2043    5.0880 N.pl3     1 RES1    0.0000
     25 N3         3.3177   -0.0661    1.5294 N.pl3     1 RES1    0.0000
     26 O1         3.2360    5.8047    4.1936 O.2       1 RES1    0.0000
     27 O2         2.5507    3.3828    4.9571 O.3       1 RES1    0.0000
     28 O3         3.9108    2.9727    6.7396 O.2       1 RES1    0.0000
     29 O4         6.9874   -0.9151    6.1715 O.2       1 RES1    0.0000
     30 O5         6.8312   -2.1562    4.3948 O.2       1 RES1    0.0000
     31 O6         3.7952   -0.9792    0.8653 O.2       1 RES1    0.0000
     32 O7         2.4042    0.6496    1.1497 O.2       1 RES1    0.0000
     33 H9         1.4529    4.3036    6.1240 H         1 RES1    0.0000
     34 C15        1.3532    3.2283   13.9616 C.ar      2 RES2    0.0000
     35 C16        2.2422    2.1521   13.9129 C.ar      2 RES2    0.0000
     36 H10        2.1822    1.5319   13.2235 H         2 RES2    0.0000
     37 C17        3.2158    2.0087   14.8915 C.ar      2 RES2    0.0000
     38 H11        3.8080    1.2916   14.8599 H         2 RES2    0.0000
     39 C18        3.3026    2.9375   15.9178 C.ar      2 RES2    0.0000
     40 H12        3.9576    2.8454   16.5719 H         2 RES2    0.0000
     41 C19        2.4166    4.0035   15.9708 C.ar      2 RES2    0.0000
     42 H13        2.4779    4.6204   16.6622 H         2 RES2    0.0000
     43 C20        1.4410    4.1529   14.9962 C.ar      2 RES2    0.0000
     44 H14        0.8484    4.8689   15.0347 H         2 RES2    0.0000
     45 C21        0.3633    3.3222   12.8561 C.2       2 RES2    0.0000
     46 C22       -2.6060    3.8323   12.0178 C.2       2 RES2    0.0000
     47 C23       -3.3630    3.8585   10.7491 C.ar      2 RES2    0.0000
     48 C24       -3.1153    4.8168    9.7640 C.ar      2 RES2    0.0000
     49 H15       -2.4810    5.4861    9.8897 H         2 RES2    0.0000
     50 C25       -3.8502    4.7343    8.5917 C.ar      2 RES2    0.0000
     51 C26       -4.7910    3.7507    8.3483 C.ar      2 RES2    0.0000
     52 H16       -5.2545    3.7083    7.5427 H         2 RES2    0.0000
     53 C27       -5.0095    2.8326    9.3596 C.ar      2 RES2    0.0000
     54 C28       -4.3200    2.8615   10.5568 C.ar      2 RES2    0.0000
     55 H17       -4.4906    2.2310   11.2194 H         2 RES2    0.0000
     56 N4        -0.5480    4.3198   12.9569 N.am      2 RES2    0.0000
     57 N5        -3.5939    5.7111    7.5262 N.pl3     2 RES2    0.0000
     58 N6        -6.0071    1.7750    9.1228 N.pl3     2 RES2    0.0000
     59 O8         0.3881    2.5661   11.8852 O.2       2 RES2    0.0000
     60 O9        -1.3954    4.4492   11.8542 O.3       2 RES2    0.0000
     61 O10       -2.9748    3.3419   13.0467 O.2       2 RES2    0.0000
     62 O11       -2.9595    6.7135    7.8148 O.2       2 RES2    0.0000
     63 O12       -4.0367    5.4691    6.4127 O.2       2 RES2    0.0000
     64 O13       -6.5405    1.7277    8.0230 O.2       2 RES2    0.0000
     65 O14       -6.2363    1.0085   10.0434 O.2       2 RES2    0.0000
     66 H18       -0.7944    4.7651   13.6351 H         2 RES2    0.0000
     67 C29       -1.5215    1.9315    8.1353 C.ar      3 RES3    0.0000
     68 C30       -2.3401    1.7791    7.0205 C.ar      3 RES3    0.0000
     69 H19       -2.2463    2.3512    6.2943 H         3 RES3    0.0000
     70 C31       -3.2963    0.7739    6.9913 C.ar      3 RES3    0.0000
     71 H20       -3.8461    0.6772    6.2469 H         3 RES3    0.0000
     72 C32       -3.4344   -0.0898    8.0706 C.ar      3 RES3    0.0000
     73 H21       -4.0667   -0.7701    8.0424 H         3 RES3    0.0000
     74 C33       -2.6274    0.0606    9.1916 C.ar      3 RES3    0.0000
     75 H22       -2.7258   -0.5134    9.9156 H         3 RES3    0.0000
     76 C34       -1.6705    1.0735    9.2294 C.ar      3 RES3    0.0000
     77 H23       -1.1320    1.1797    9.9811 H         3 RES3    0.0000
     78 C35       -0.4572    2.9811    8.0664 C.2       3 RES3    0.0000
     79 C36        2.2575    6.1412    9.1249 C.ar      3 RES3    0.0000
     80 C37        2.0810    7.4945    9.3888 C.ar      3 RES3    0.0000
     81 H24        1.2681    7.8181    9.7036 H         3 RES3    0.0000
     82 C38        3.1501    8.3460    9.1688 C.ar      3 RES3    0.0000
     83 C39        4.3570    7.9172    8.6508 C.ar      3 RES3    0.0000
     84 H25        5.0526    8.5090    8.4788 H         3 RES3    0.0000
     85 C40        4.4796    6.5650    8.4006 C.ar      3 RES3    0.0000
     86 C41        3.4718    5.6469    8.6424 C.ar      3 RES3    0.0000
     87 H26        3.5975    4.7378    8.4901 H         3 RES3    0.0000
     88 C42        1.0637    5.2662    9.2913 C.2       3 RES3    0.0000
     89 N7         0.3430    3.0603    9.1574 N.am      3 RES3    0.0000
     90 N8         2.9971    9.7793    9.4667 N.pl3     3 RES3    0.0000
     91 N9         5.7311    6.0699    7.8092 N.pl3     3 RES3    0.0000
     92 O15       -0.2649    3.6619    7.0588 O.2       3 RES3    0.0000
     93 O16        1.4189    3.9541    9.0832 O.3       3 RES3    0.0000
     94 O17       -0.0441    5.6390    9.5420 O.2       3 RES3    0.0000
     95 O18        1.8669   10.2007    9.6596 O.2       3 RES3    0.0000
     96 O19        4.0128   10.4555    9.5166 O.2       3 RES3    0.0000
     97 O20        6.0206    4.9009    7.9863 O.2       3 RES3    0.0000
     98 O21        6.3974    6.8645    7.1559 O.2       3 RES3    0.0000
     99 H27        0.1435    2.8181    9.9359 H         3 RES3    0.0000
@<TRIPOS>BOND
     1    1    2 ar
     2    2    3 1
     3    4    2 ar
     4    5    4 1
     5    6    4 ar
     6    7    6 1
     7    8    6 ar
     8    9    8 1
     9   10    1 ar
    10   11   10 1
    11   12    1 1
    12   13   14 1
    13   14   15 ar
    14   15   16 1
    15   17   15 ar
    16   18   17 ar
    17   19   18 1
    18   20   18 ar
    19   21   14 ar
    20   22   21 1
    21   23   12 1
    22   24   17 1
    23   25   20 1
    24   26   12 2
    25   27   13 1
    26   28   13 2
    27   29   24 2
    28   30   24 2
    29   31   25 2
    30   32   25 2
    31   33   23 1
    32   34   35 ar
    33   35   36 1
    34   37   35 ar
    35   38   37 1
    36   39   37 ar
    37   40   39 1
    38   41   39 ar
    39   42   41 1
    40   43   34 ar
    41   44   43 1
    42   45   34 1
    43   46   47 1
    44   47   48 ar
    45   48   49 1
    46   50   48 ar
    47   51   50 ar
    48   52   51 1
    49   53   51 ar
    50   54   47 ar
    51   55   54 1
    52   56   45 1
    53   57   50 1
    54   58   53 1
    55   59   45 2
    56   60   46 1
    57   61   46 2
    58   62   57 2
    59   63   57 2
    60   64   58 2
    61   65   58 2
    62   66   56 1
    63   67   68 ar
    64   68   69 1
    65   70   68 ar
    66   71   70 1
    67   72   70 ar
    68   73   72 1
    69   74   72 ar
    70   75   74 1
    71   76   67 ar
    72   77   76 1
    73   78   67 1
    74   79   80 ar
    75   80   81 1
    76   82   80 ar
    77   83   82 ar
    78   84   83 1
    79   85   83 ar
    80   86   79 ar
    81   87   86 1
    82   88   79 1
    83   89   78 1
    84   90   82 1
    85   91   85 1
    86   92   78 2
    87   93   88 1
    88   94   88 2
    89   95   90 2
    90   96   90 2
    91   97   91 2
    92   98   91 2
    93   99   89 1
    94    8   10 ar
    95   20   21 ar
    96   23   27 1
    97   41   43 ar
    98   53   54 ar
    99   56   60 1
   100   74   76 ar
   101   85   86 ar
   102   89   93 1
@<TRIPOS>SUBSTRUCTURE
     1 RES1 1
     2 RES2 34
     3 RES3 67

@<TRIPOS>CRYSIN
  13.5295   27.3074   12.2084  90.0000 112.5130  90.0000   9 1

