# MOL2 file generated by ConQuest
# Please check atom types

@<TRIPOS>MOLECULE
UCAYOO
    51    52     1
SMALL
NO_CHARGES
****
Generated from CSD

@<TRIPOS>ATOM
      1 C1         9.6554    1.0235   14.9255 C.ar      1 RES1    0.0000
      2 H1         9.9948    0.1655   14.8163 H         1 RES1    0.0000
      3 C2         8.8656    1.3038   15.9968 C.ar      1 RES1    0.0000
      4 H2         8.6959    0.6384   16.6233 H         1 RES1    0.0000
      5 C3         8.3254    2.5300   16.1688 C.ar      1 RES1    0.0000
      6 H3         7.7550    2.6938   16.8839 H         1 RES1    0.0000
      7 C4         8.6257    3.5332   15.2776 C.ar      1 RES1    0.0000
      8 H4         8.2913    4.3929   15.4018 H         1 RES1    0.0000
      9 C5         9.4360    3.2377   14.1885 C.ar      1 RES1    0.0000
     10 H5         9.6301    3.9048   13.5702 H         1 RES1    0.0000
     11 C6         9.9577    1.9963   14.0042 C.ar      1 RES1    0.0000
     12 C7        10.7885    1.6416   12.7663 C.3       1 RES1    0.0000
     13 H6        10.9474    2.4675   12.2627 H         1 RES1    0.0000
     14 C8         9.9587    0.6975   11.8779 C.3       1 RES1    0.0000
     15 H7         9.7432   -0.0946   12.4129 H         1 RES1    0.0000
     16 C9        10.7271    0.2246   10.6495 C.2       1 RES1    0.0000
     17 C10       10.8597   -1.2346   10.3875 C.ar      1 RES1    0.0000
     18 C11       11.0596   -1.6450    9.0841 C.ar      1 RES1    0.0000
     19 H8        11.0840   -1.0049    8.4099 H         1 RES1    0.0000
     20 C12       11.2195   -2.9489    8.7593 C.ar      1 RES1    0.0000
     21 H9        11.3521   -3.2022    7.8735 H         1 RES1    0.0000
     22 C13       11.1883   -3.8710    9.7310 C.ar      1 RES1    0.0000
     23 H10       11.2595   -4.7712    9.5086 H         1 RES1    0.0000
     24 C14       11.0557   -3.5163   11.0358 C.ar      1 RES1    0.0000
     25 H11       11.0947   -4.1683   11.6977 H         1 RES1    0.0000
     26 C15       10.8587   -2.1618   11.3920 C.ar      1 RES1    0.0000
     27 H12       10.7329   -1.9102   12.2777 H         1 RES1    0.0000
     28 C16       12.1507    1.0488   13.1362 C.3       1 RES1    0.0000
     29 H13       12.0113    0.1993   13.5866 H         1 RES1    0.0000
     30 H14       12.6490    0.8715   12.3228 H         1 RES1    0.0000
     31 C17       12.9688    1.9355   14.0220 C.3       1 RES1    0.0000
     32 H15       12.5125    2.0639   14.8572 H         1 RES1    0.0000
     33 H16       13.0966    2.7850   13.5934 H         1 RES1    0.0000
     34 H17       13.8230    1.5268   14.1830 H         1 RES1    0.0000
     35 C18        8.6189    1.3326   11.4329 C.3       1 RES1    0.0000
     36 H18        8.1635    1.6653   12.2327 H         1 RES1    0.0000
     37 C19        7.0958   -0.5996   11.4793 C.2       1 RES1    0.0000
     38 C20        6.2757   -1.5707   10.6864 C.3       1 RES1    0.0000
     39 H19        5.5405   -1.8781   11.2214 H         1 RES1    0.0000
     40 H20        6.8218   -2.3172   10.4325 H         1 RES1    0.0000
     41 H21        5.9393   -1.1366    9.8989 H         1 RES1    0.0000
     42 C21        8.8237    2.5182   10.4721 C.3       1 RES1    0.0000
     43 H22        9.6915    2.9168   10.6332 H         1 RES1    0.0000
     44 H23        8.8061    2.1973    9.5577 H         1 RES1    0.0000
     45 N1         7.7511    0.3327   10.7983 N.am      1 RES1    0.0000
     46 H24        7.6623    0.3513    9.9426 H         1 RES1    0.0000
     47 N2         7.7979    3.5214   10.6427 N.pl3     1 RES1    0.0000
     48 O1        11.1532    1.0201    9.8620 O.2       1 RES1    0.0000
     49 O2         7.2031   -0.6637   12.7117 O.2       1 RES1    0.0000
     50 O3         6.9583    3.5366   11.4152 O.2       1 RES1    0.0000
     51 O4         7.7881    4.3355    9.8075 O.2       1 RES1    0.0000
@<TRIPOS>BOND
     1    1    2 1
     2    3    1 ar
     3    4    3 1
     4    5    3 ar
     5    6    5 1
     6    7    5 ar
     7    8    7 1
     8    9    7 ar
     9   10    9 1
    10   11    1 ar
    11   12   11 1
    12   13   12 1
    13   14   12 1
    14   15   14 1
    15   16   14 1
    16   17   16 1
    17   18   17 ar
    18   19   18 1
    19   20   18 ar
    20   21   20 1
    21   22   20 ar
    22   23   22 1
    23   24   22 ar
    24   25   24 1
    25   26   17 ar
    26   27   26 1
    27   28   12 1
    28   29   28 1
    29   30   28 1
    30   31   28 1
    31   32   31 1
    32   33   31 1
    33   34   31 1
    34   35   14 1
    35   36   35 1
    36   37   38 1
    37   38   39 1
    38   40   38 1
    39   41   38 1
    40   42   35 1
    41   43   42 1
    42   44   42 1
    43   45   35 1
    44   46   45 1
    45   47   42 1
    46   48   16 2
    47   49   37 2
    48   50   47 2
    49   51   47 2
    50    9   11 ar
    51   24   26 ar
    52   37   45 1
@<TRIPOS>SUBSTRUCTURE
     1 RES1 1

@<TRIPOS>CRYSIN
  19.5020   19.5020   13.6480  90.0000  90.0000 120.0000 232 1

