# MOL2 file generated by ConQuest
# Please check atom types

@<TRIPOS>MOLECULE
UCEFOX
    23    25     1
SMALL
NO_CHARGES
****
Generated from CSD

@<TRIPOS>ATOM
      1 C1        -0.4670    7.7149    2.7728 C.ar      1 RES1    0.0000
      2 C2        -1.8441    7.6633    2.7977 C.ar      1 RES1    0.0000
      3 C3        -2.4980    6.9148    3.7530 C.ar      1 RES1    0.0000
      4 C4        -1.7718    6.2502    4.6999 C.ar      1 RES1    0.0000
      5 C5        -0.3993    6.2975    4.6909 C.ar      1 RES1    0.0000
      6 C6         0.2886    7.0267    3.7160 C.ar      1 RES1    0.0000
      7 C7         1.7560    6.9966    3.6676 C.2       1 RES1    0.0000
      8 C8         2.5917    5.9599    4.1739 C.2       1 RES1    0.0000
      9 N1         3.8431    6.1341    3.9087 N.2       1 RES1    0.0000
     10 O1         3.9046    7.3514    3.1937 O.3       1 RES1    0.0000
     11 C9         2.6383    7.8354    3.0713 C.2       1 RES1    0.0000
     12 C10        2.4941    9.1172    2.3707 C.ar      1 RES1    0.0000
     13 C11        2.8795    9.2463    1.0263 C.ar      1 RES1    0.0000
     14 C12        2.6619   10.4357    0.3544 C.ar      1 RES1    0.0000
     15 C13        2.0940   11.5261    1.0165 C.ar      1 RES1    0.0000
     16 C14        1.7406   11.4100    2.3602 C.ar      1 RES1    0.0000
     17 C15        1.9353   10.2098    3.0109 C.ar      1 RES1    0.0000
     18 O2         3.4039    8.1601    0.3854 O.3       1 RES1    0.0000
     19 C16        4.7652    8.3128   -0.0272 C.3       1 RES1    0.0000
     20 O3         3.0223   10.5669   -0.9704 O.3       1 RES1    0.0000
     21 C17        2.0178   10.1238   -1.8788 C.3       1 RES1    0.0000
     22 O4         1.9262   12.6295    0.2554 O.3       1 RES1    0.0000
     23 C18        1.3791   13.7931    0.8555 C.3       1 RES1    0.0000
@<TRIPOS>BOND
     1    1    2 ar
     2    2    3 ar
     3    3    4 ar
     4    4    5 ar
     5    5    6 ar
     6    6    1 ar
     7    7    6 1
     8    8    7 1
     9    9    8 2
    10   10    9 1
    11   11    7 2
    12   12   11 1
    13   13   12 ar
    14   14   13 ar
    15   15   14 ar
    16   16   15 ar
    17   17   12 ar
    18   18   13 1
    19   19   18 1
    20   20   14 1
    21   21   20 1
    22   22   15 1
    23   23   22 1
    24   10   11 1
    25   16   17 ar
@<TRIPOS>SUBSTRUCTURE
     1 RES1 1

@<TRIPOS>CRYSIN
   9.9330   21.5080    8.1830  90.0000 112.5500  90.0000  14 1

