# MOL2 file generated by ConQuest
# Please check atom types

@<TRIPOS>MOLECULE
UCEWIJ
    42    46     1
SMALL
NO_CHARGES
****
Generated from CSD

@<TRIPOS>ATOM
      1 O1         4.2307    8.2604   11.3693 O.2       1 RES1    0.0000
      2 O2         4.6492   10.3742   11.5234 O.2       1 RES1    0.0000
      3 N1         4.6802    9.3070   10.9172 N.pl3     1 RES1    0.0000
      4 C1         5.2937    9.2845    9.5831 C.ar      1 RES1    0.0000
      5 C2         5.2848    8.1062    8.8606 C.ar      1 RES1    0.0000
      6 H1         4.8850    7.3215    9.2173 H         1 RES1    0.0000
      7 C3         5.8672    8.0933    7.6124 C.ar      1 RES1    0.0000
      8 H2         5.8587    7.2908    7.1035 H         1 RES1    0.0000
      9 C4         6.4688    9.2360    7.0807 C.ar      1 RES1    0.0000
     10 C5         6.4382   10.4150    7.8321 C.ar      1 RES1    0.0000
     11 H3         6.8200   11.2081    7.4738 H         1 RES1    0.0000
     12 C6         5.8598   10.4442    9.0863 C.ar      1 RES1    0.0000
     13 H4         5.8505   11.2453    9.5975 H         1 RES1    0.0000
     14 C7         7.0844    9.2385    5.7455 C.2       1 RES1    0.0000
     15 H5         6.9895   10.0376    5.2411 H         1 RES1    0.0000
     16 C8         7.7629    8.2467    5.1578 C.2       1 RES1    0.0000
     17 H6         7.9963    8.3738    4.2451 H         1 RES1    0.0000
     18 C9         8.1892    6.9748    5.7773 C.ar      1 RES1    0.0000
     19 C10        8.7374    6.9777    7.0595 C.ar      1 RES1    0.0000
     20 H7         8.8088    7.8006    7.5291 H         1 RES1    0.0000
     21 C11        9.1790    5.8182    7.6677 C.ar      1 RES1    0.0000
     22 H8         9.5220    5.8535    8.5531 H         1 RES1    0.0000
     23 C12        9.1275    4.5913    6.9944 C.ar      1 RES1    0.0000
     24 C13        8.6066    4.5623    5.6667 C.ar      1 RES1    0.0000
     25 C14        8.1222    5.7586    5.0646 C.ar      1 RES1    0.0000
     26 C15        7.5891    5.6595    3.7271 C.ar      1 RES1    0.0000
     27 H9         7.2293    6.4354    3.3151 H         1 RES1    0.0000
     28 C16        7.5884    4.4961    3.0454 C.ar      1 RES1    0.0000
     29 H10        7.2397    4.4784    2.1616 H         1 RES1    0.0000
     30 C17        8.0989    3.2852    3.6172 C.ar      1 RES1    0.0000
     31 C18        8.1276    2.0776    2.9250 C.ar      1 RES1    0.0000
     32 H11        7.7855    2.0390    2.0396 H         1 RES1    0.0000
     33 C19        8.6423    0.9398    3.5021 C.ar      1 RES1    0.0000
     34 H12        8.6620    0.1280    3.0083 H         1 RES1    0.0000
     35 C20        9.1331    0.9679    4.8010 C.ar      1 RES1    0.0000
     36 H13        9.4827    0.1739    5.1888 H         1 RES1    0.0000
     37 C21        9.1174    2.1485    5.5410 C.ar      1 RES1    0.0000
     38 C22        9.5997    2.2219    6.9005 C.ar      1 RES1    0.0000
     39 H14        9.9230    1.4341    7.3208 H         1 RES1    0.0000
     40 C23        9.6003    3.3780    7.5836 C.ar      1 RES1    0.0000
     41 H15        9.9230    3.3900    8.4774 H         1 RES1    0.0000
     42 C24        8.6014    3.3328    4.9457 C.ar      1 RES1    0.0000
@<TRIPOS>BOND
     1    1    3 2
     2    2    3 2
     3    3    4 1
     4    4    5 ar
     5    5    6 1
     6    7    5 ar
     7    8    7 1
     8    9    7 ar
     9   10    9 ar
    10   11   10 1
    11   12    4 ar
    12   13   12 1
    13   14    9 1
    14   15   14 1
    15   16   14 2
    16   17   16 1
    17   18   16 1
    18   19   18 ar
    19   20   19 1
    20   21   19 ar
    21   22   21 1
    22   23   21 ar
    23   24   23 ar
    24   25   18 ar
    25   26   25 ar
    26   27   26 1
    27   28   26 ar
    28   29   28 1
    29   30   28 ar
    30   31   30 ar
    31   32   31 1
    32   33   31 ar
    33   34   33 1
    34   35   33 ar
    35   36   35 1
    36   37   35 ar
    37   38   37 ar
    38   39   38 1
    39   40   23 ar
    40   41   40 1
    41   42   24 ar
    42   10   12 ar
    43   24   25 ar
    44   30   42 ar
    45   37   42 ar
    46   38   40 ar
@<TRIPOS>SUBSTRUCTURE
     1 RES1 1

@<TRIPOS>CRYSIN
  20.6730   10.9390    7.5738  90.0000  90.0000  90.0000  33 1

