# MOL2 file generated by ConQuest
# Please check atom types

@<TRIPOS>MOLECULE
UCINEC
   142   142     2
SMALL
NO_CHARGES
****
Generated from CSD

@<TRIPOS>ATOM
      1 O1        -0.9425   42.7363   15.5326 O.2       1 RES1    0.0000
      2 O2         0.2479   40.9948   15.2248 O.2       1 RES1    0.0000
      3 N1        -0.0611   42.1469   14.9457 N.pl3     1 RES1    0.0000
      4 C1         0.6585   42.8202   13.8653 C.ar      1 RES1    0.0000
      5 C2         0.4339   44.1556   13.6552 C.ar      1 RES1    0.0000
      6 H1        -0.1852   44.6303   14.1980 H         1 RES1    0.0000
      7 C3         1.1152   44.8031   12.6553 C.ar      1 RES1    0.0000
      8 H2         0.9522   45.7283   12.4886 H         1 RES1    0.0000
      9 C4         2.0499   44.1007   11.8795 C.ar      1 RES1    0.0000
     10 C5         2.2521   42.7443   12.1055 C.ar      1 RES1    0.0000
     11 H3         2.8756   42.2648   11.5730 H         1 RES1    0.0000
     12 C6         1.5498   42.0855   13.0972 C.ar      1 RES1    0.0000
     13 H4         1.6775   41.1587   13.2498 H         1 RES1    0.0000
     14 C7         2.8310   44.8039   10.8674 C.2       1 RES1    0.0000
     15 H5         3.3782   44.2912   10.2837 H         1 RES1    0.0000
     16 N2         2.8238   46.0577   10.7269 N.2       1 RES1    0.0000
     17 C8         3.6709   46.6366    9.6739 C.3       1 RES1    0.0000
     18 H6         4.1001   45.9059    9.1605 H         1 RES1    0.0000
     19 H7         4.3854   47.1815   10.0896 H         1 RES1    0.0000
     20 C9         2.8696   47.4988    8.7391 C.3       1 RES1    0.0000
     21 H8         2.3957   48.1907    9.2653 H         1 RES1    0.0000
     22 H9         2.1836   46.9393    8.2921 H         1 RES1    0.0000
     23 C10        3.7226   48.1770    7.6791 C.3       1 RES1    0.0000
     24 H10        4.3679   48.7801    8.1229 H         1 RES1    0.0000
     25 H11        4.2426   47.4883    7.1919 H         1 RES1    0.0000
     26 C11        2.9019   48.9658    6.6926 C.3       1 RES1    0.0000
     27 H12        2.3339   49.6036    7.1906 H         1 RES1    0.0000
     28 H13        2.3003   48.3441    6.2098 H         1 RES1    0.0000
     29 C12        3.7294   49.7303    5.6792 C.3       1 RES1    0.0000
     30 H14        4.2919   50.3867    6.1651 H         1 RES1    0.0000
     31 H15        4.3347   49.0950    5.2258 H         1 RES1    0.0000
     32 C13        3.7624   51.2853    3.6295 C.3       1 RES1    0.0000
     33 H16        4.2966   51.9530    4.1295 H         1 RES1    0.0000
     34 H17        4.3964   50.6774    3.1704 H         1 RES1    0.0000
     35 C14        2.9378   52.0022    2.5899 C.3       1 RES1    0.0000
     36 H18        2.3117   52.6150    3.0490 H         1 RES1    0.0000
     37 H19        2.3972   51.3313    2.0976 H         1 RES1    0.0000
     38 C15        3.7568   52.7958    1.5944 C.3       1 RES1    0.0000
     39 H20        4.3856   52.1790    1.1411 H         1 RES1    0.0000
     40 H21        4.2958   53.4627    2.0893 H         1 RES1    0.0000
     41 C16        2.9354   53.5241    0.5325 C.3       1 RES1    0.0000
     42 H22        2.3081   54.1409    0.9834 H         1 RES1    0.0000
     43 H23        2.3959   52.8572    0.0358 H         1 RES1    0.0000
     44 C17        3.7760   54.3169   -0.4629 C.3       1 RES1    0.0000
     45 H24        4.3951   53.6968   -0.9272 H         1 RES1    0.0000
     46 H25        4.3225   54.9805    0.0300 H         1 RES1    0.0000
     47 C18        2.9251   55.0492   -1.5063 C.3       1 RES1    0.0000
     48 H26        2.3863   54.3831   -2.0076 H         1 RES1    0.0000
     49 H27        2.2998   55.6587   -1.0427 H         1 RES1    0.0000
     50 C19        3.7708   55.8492   -2.4884 C.3       1 RES1    0.0000
     51 H28        4.3942   55.2389   -2.9501 H         1 RES1    0.0000
     52 H29        4.3121   56.5064   -1.9840 H         1 RES1    0.0000
     53 C20        2.9297   56.6001   -3.5471 C.3       1 RES1    0.0000
     54 H30        2.3715   55.9413   -4.0356 H         1 RES1    0.0000
     55 H31        2.3209   57.2330   -3.0854 H         1 RES1    0.0000
     56 C21        3.7720   57.3751   -4.5496 C.3       1 RES1    0.0000
     57 H32        4.3654   56.7486   -5.0311 H         1 RES1    0.0000
     58 H33        4.3450   58.0162   -4.0630 H         1 RES1    0.0000
     59 C22        2.9155   58.1349   -5.5681 C.3       1 RES1    0.0000
     60 H34        2.3521   58.7912   -5.0905 H         1 RES1    0.0000
     61 H35        2.3122   57.4995   -6.0253 H         1 RES1    0.0000
     62 C23        3.7655   58.8639   -6.6166 C.3       1 RES1    0.0000
     63 H36        4.3459   59.5259   -6.1619 H         1 RES1    0.0000
     64 H37        4.3480   58.2099   -7.0744 H         1 RES1    0.0000
     65 C24        2.9074   59.5840   -7.6568 C.3       1 RES1    0.0000
     66 H38        3.4912   60.0345   -8.3043 H         1 RES1    0.0000
     67 H39        2.3443   58.9365   -8.1235 H         1 RES1    0.0000
     68 H40        2.3423   60.2445   -7.2111 H         1 RES1    0.0000
     69 C25        2.9361   50.4755    4.6192 C.3       1 RES1    0.0000
     70 H41        2.3056   51.0891    5.0739 H         1 RES1    0.0000
     71 H42        2.3978   49.8216    4.1122 H         1 RES1    0.0000
     72 O3        -0.9135   39.8508   12.4701 O.2       2 RES2    0.0000
     73 O4        -1.3293   38.0052   13.4931 O.2       2 RES2    0.0000
     74 N3        -0.7377   38.6600   12.6336 N.pl3     2 RES2    0.0000
     75 C26        0.2532   37.9664   11.7926 C.ar      2 RES2    0.0000
     76 C27        0.4292   36.6093   11.9625 C.ar      2 RES2    0.0000
     77 H43       -0.0540   36.1289   12.6266 H         2 RES2    0.0000
     78 C28        1.3239   35.9731   11.1432 C.ar      2 RES2    0.0000
     79 H44        1.4862   35.0471   11.2645 H         2 RES2    0.0000
     80 C29        1.9881   36.6545   10.1433 C.ar      2 RES2    0.0000
     81 C30        1.7980   38.0052    9.9989 C.ar      2 RES2    0.0000
     82 H45        2.2824   38.4783    9.3355 H         2 RES2    0.0000
     83 C31        0.9076   38.6761   10.8099 C.ar      2 RES2    0.0000
     84 H46        0.7497   39.6086   10.6937 H         2 RES2    0.0000
     85 C32        2.9404   35.9650    9.2538 C.2       2 RES2    0.0000
     86 H47        3.4368   36.4761    8.6274 H         2 RES2    0.0000
     87 N4         3.1202   34.7169    9.2927 N.2       2 RES2    0.0000
     88 C33        4.0490   34.1582    8.3343 C.3       2 RES2    0.0000
     89 H48        4.7393   33.6261    8.8049 H         2 RES2    0.0000
     90 H49        4.4990   34.8856    7.8394 H         2 RES2    0.0000
     91 C34        3.2787   33.2564    7.3490 C.3       2 RES2    0.0000
     92 H50        2.8016   32.5524    7.8617 H         2 RES2    0.0000
     93 H51        2.5988   33.8037    6.8790 H         2 RES2    0.0000
     94 C35        4.1762   32.5855    6.3139 C.3       2 RES2    0.0000
     95 H52        4.8037   31.9791    6.7775 H         2 RES2    0.0000
     96 H53        4.7105   33.2790    5.8529 H         2 RES2    0.0000
     97 C36        3.3877   31.7886    5.2718 C.3       2 RES2    0.0000
     98 H54        2.8084   31.1395    5.7431 H         2 RES2    0.0000
     99 H55        2.7976   32.4151    4.7782 H         2 RES2    0.0000
    100 C37        4.2334   31.0426    4.2782 C.3       2 RES2    0.0000
    101 H56        4.8160   30.4048    4.7667 H         2 RES2    0.0000
    102 H57        4.8228   31.6885    3.8108 H         2 RES2    0.0000
    103 C38        3.4290   30.2756    3.2444 C.3       2 RES2    0.0000
    104 H58        2.8264   29.6459    3.7170 H         2 RES2    0.0000
    105 H59        2.8612   30.9134    2.7483 H         2 RES2    0.0000
    106 C39        4.2577   29.4901    2.2451 C.3       2 RES2    0.0000
    107 H60        4.8033   28.8224    2.7342 H         2 RES2    0.0000
    108 H61        4.8746   30.1142    1.7841 H         2 RES2    0.0000
    109 C40        3.4120   28.7578    1.1922 C.3       2 RES2    0.0000
    110 H62        2.7871   28.1442    1.6519 H         2 RES2    0.0000
    111 H63        2.8711   29.4198    0.6954 H         2 RES2    0.0000
    112 C41        4.2483   27.9601    0.1992 C.3       2 RES2    0.0000
    113 H64        4.7882   27.2965    0.6998 H         2 RES2    0.0000
    114 H65        4.8784   28.5802   -0.2522 H         2 RES2    0.0000
    115 C42        3.4448   27.2311   -0.8569 C.3       2 RES2    0.0000
    116 H66        2.8183   26.6103   -0.4036 H         2 RES2    0.0000
    117 H67        2.8996   27.8939   -1.3512 H         2 RES2    0.0000
    118 C43        4.2632   26.4439   -1.8518 C.3       2 RES2    0.0000
    119 H68        4.8141   25.7868   -1.3601 H         2 RES2    0.0000
    120 H69        4.8798   27.0624   -2.3173 H         2 RES2    0.0000
    121 C44        3.4324   25.7084   -2.8907 C.3       2 RES2    0.0000
    122 H70        2.8731   26.3681   -3.3766 H         2 RES2    0.0000
    123 H71        2.8221   25.0844   -2.4265 H         2 RES2    0.0000
    124 C45        4.2695   24.9253   -3.9053 C.3       2 RES2    0.0000
    125 H72        4.8482   24.2851   -3.4181 H         2 RES2    0.0000
    126 H73        4.8558   25.5526   -4.3919 H         2 RES2    0.0000
    127 C46        3.4301   24.1591   -4.9098 C.3       2 RES2    0.0000
    128 H74        2.8394   23.5343   -4.4219 H         2 RES2    0.0000
    129 H75        2.8563   24.8018   -5.4002 H         2 RES2    0.0000
    130 C47        4.2571   23.3655   -5.9206 C.3       2 RES2    0.0000
    131 H76        4.8643   23.9864   -6.3931 H         2 RES2    0.0000
    132 H77        4.8201   22.7188   -5.4295 H         2 RES2    0.0000
    133 C48        3.4334   22.6147   -6.9512 C.3       2 RES2    0.0000
    134 H78        2.8643   21.9518   -6.4819 H         2 RES2    0.0000
    135 H79        2.8297   23.2598   -7.4045 H         2 RES2    0.0000
    136 C49        4.2512   21.8945   -7.9997 C.3       2 RES2    0.0000
    137 H80        4.8389   21.2414   -7.5520 H         2 RES2    0.0000
    138 H81        4.8260   22.5493   -8.4639 H         2 RES2    0.0000
    139 C50        3.3993   21.1728   -9.0277 C.3       2 RES2    0.0000
    140 H82        3.9797   20.7247   -9.6784 H         2 RES2    0.0000
    141 H83        2.8388   20.5067   -8.5782 H         2 RES2    0.0000
    142 H84        2.8256   21.8227   -9.4907 H         2 RES2    0.0000
@<TRIPOS>BOND
     1    1    3 2
     2    2    3 2
     3    3    4 1
     4    4    5 ar
     5    5    6 1
     6    7    5 ar
     7    8    7 1
     8    9    7 ar
     9   10    9 ar
    10   11   10 1
    11   12    4 ar
    12   13   12 1
    13   14    9 1
    14   15   14 1
    15   16   14 2
    16   17   16 1
    17   18   17 1
    18   19   17 1
    19   20   17 1
    20   21   20 1
    21   22   20 1
    22   23   20 1
    23   24   23 1
    24   25   23 1
    25   26   23 1
    26   27   26 1
    27   28   26 1
    28   29   26 1
    29   30   29 1
    30   31   29 1
    31   32   33 1
    32   34   32 1
    33   35   32 1
    34   36   35 1
    35   37   35 1
    36   38   35 1
    37   39   38 1
    38   40   38 1
    39   41   38 1
    40   42   41 1
    41   43   41 1
    42   44   41 1
    43   45   44 1
    44   46   44 1
    45   47   44 1
    46   48   47 1
    47   49   47 1
    48   50   47 1
    49   51   50 1
    50   52   50 1
    51   53   50 1
    52   54   53 1
    53   55   53 1
    54   56   53 1
    55   57   56 1
    56   58   56 1
    57   59   56 1
    58   60   59 1
    59   61   59 1
    60   62   59 1
    61   63   62 1
    62   64   62 1
    63   65   62 1
    64   66   65 1
    65   67   65 1
    66   68   65 1
    67   69   29 1
    68   70   69 1
    69   71   69 1
    70   72   74 2
    71   73   74 2
    72   74   75 1
    73   75   76 ar
    74   76   77 1
    75   78   76 ar
    76   79   78 1
    77   80   78 ar
    78   81   80 ar
    79   82   81 1
    80   83   75 ar
    81   84   83 1
    82   85   80 1
    83   86   85 1
    84   87   85 2
    85   88   87 1
    86   89   88 1
    87   90   88 1
    88   91   88 1
    89   92   91 1
    90   93   91 1
    91   94   91 1
    92   95   94 1
    93   96   94 1
    94   97   94 1
    95   98   97 1
    96   99   97 1
    97  100   97 1
    98  101  100 1
    99  102  100 1
   100  103  100 1
   101  104  103 1
   102  105  103 1
   103  106  103 1
   104  107  106 1
   105  108  106 1
   106  109  106 1
   107  110  109 1
   108  111  109 1
   109  112  109 1
   110  113  112 1
   111  114  112 1
   112  115  112 1
   113  116  115 1
   114  117  115 1
   115  118  115 1
   116  119  118 1
   117  120  118 1
   118  121  118 1
   119  122  121 1
   120  123  121 1
   121  124  121 1
   122  125  124 1
   123  126  124 1
   124  127  124 1
   125  128  127 1
   126  129  127 1
   127  130  127 1
   128  131  130 1
   129  132  130 1
   130  133  130 1
   131  134  133 1
   132  135  133 1
   133  136  133 1
   134  137  136 1
   135  138  136 1
   136  139  136 1
   137  140  139 1
   138  141  139 1
   139  142  139 1
   140   10   12 ar
   141   32   69 1
   142   81   83 ar
@<TRIPOS>SUBSTRUCTURE
     1 RES1 1
     2 RES2 72

@<TRIPOS>CRYSIN
   4.6112   80.7350    6.5786  90.0000 103.9190  90.0000   4 1

