# MOL2 file generated by ConQuest
# Please check atom types

@<TRIPOS>MOLECULE
UCIPON
    54    60     2
SMALL
NO_CHARGES
****
Generated from CSD

@<TRIPOS>ATOM
      1 O1         6.5671    1.0853   -3.9336 O.2       1 RES1    0.0000
      2 N1         6.2154    0.8447   -2.7480 N.pl3     1 RES1    0.0000
      3 N2         5.8296   -0.3667   -2.4534 N.ar      1 RES1    0.0000
      4 N3         5.0396   -1.8796   -0.9448 N.ar      1 RES1    0.0000
      5 N4         5.1497    0.0537    1.1525 N.ar      1 RES1    0.0000
      6 C1         6.2569    1.9317   -1.8023 C.ar      1 RES1    0.0000
      7 C2         6.6211    3.2088   -2.2521 C.ar      1 RES1    0.0000
      8 H1         6.8426    3.3643   -3.1629 H         1 RES1    0.0000
      9 C3         6.6467    4.2372   -1.3232 C.ar      1 RES1    0.0000
     10 H2         6.8826    5.1133   -1.6045 H         1 RES1    0.0000
     11 C4         6.3322    4.0109    0.0212 C.ar      1 RES1    0.0000
     12 H3         6.3716    4.7288    0.6426 H         1 RES1    0.0000
     13 C5         5.9635    2.7477    0.4527 C.ar      1 RES1    0.0000
     14 H4         5.7467    2.6000    1.3657 H         1 RES1    0.0000
     15 C6         5.9105    1.6844   -0.4651 C.ar      1 RES1    0.0000
     16 C7         5.4892    0.3456   -0.1012 C.ar      1 RES1    0.0000
     17 C8         4.7407   -1.2238    1.3794 C.ar      1 RES1    0.0000
     18 C9         4.3587   -1.5999    2.6990 C.ar      1 RES1    0.0000
     19 H5         4.4223   -0.9730    3.4109 H         1 RES1    0.0000
     20 C10        3.8971   -2.8754    2.9403 C.ar      1 RES1    0.0000
     21 H6         3.6312   -3.1213    3.8186 H         1 RES1    0.0000
     22 C11        3.8155   -3.8285    1.8833 C.ar      1 RES1    0.0000
     23 H7         3.4919   -4.7030    2.0663 H         1 RES1    0.0000
     24 C12        4.1961   -3.5043    0.6093 C.ar      1 RES1    0.0000
     25 H8         4.1437   -4.1528   -0.0831 H         1 RES1    0.0000
     26 C13        4.6719   -2.1893    0.3235 C.ar      1 RES1    0.0000
     27 C14        5.4457   -0.6263   -1.1445 C.ar      1 RES1    0.0000
     28 O2         4.2645    4.1706    2.6409 O.2       2 RES2    0.0000
     29 N5         4.0434    4.5038    3.8355 N.pl3     2 RES2    0.0000
     30 N6         4.2000    5.7588    4.1633 N.ar      2 RES2    0.0000
     31 N7         4.1040    7.4269    5.7139 N.ar      2 RES2    0.0000
     32 N8         3.1881    5.6017    7.7096 N.ar      2 RES2    0.0000
     33 C15        3.6271    3.4742    4.7547 C.ar      2 RES2    0.0000
     34 C16        3.4976    2.1588    4.2863 C.ar      2 RES2    0.0000
     35 H9         3.6898    1.9379    3.3819 H         2 RES2    0.0000
     36 C17        3.0795    1.1917    5.1871 C.ar      2 RES2    0.0000
     37 H10        2.9812    0.2927    4.8940 H         2 RES2    0.0000
     38 C18        2.7994    1.5157    6.5222 C.ar      2 RES2    0.0000
     39 H11        2.5222    0.8339    7.1240 H         2 RES2    0.0000
     40 C19        2.9223    2.8175    6.9713 C.ar      2 RES2    0.0000
     41 H12        2.7254    3.0309    7.8761 H         2 RES2    0.0000
     42 C20        3.3412    3.8256    6.0821 C.ar      2 RES2    0.0000
     43 C21        3.4732    5.2123    6.4705 C.ar      2 RES2    0.0000
     44 C22        3.3598    6.9243    7.9788 C.ar      2 RES2    0.0000
     45 C23        3.0628    7.4075    9.2814 C.ar      2 RES2    0.0000
     46 H13        2.7745    6.8052    9.9570 H         2 RES2    0.0000
     47 C24        3.1933    8.7503    9.5640 C.ar      2 RES2    0.0000
     48 H14        2.9804    9.0739   10.4320 H         2 RES2    0.0000
     49 C25        3.6454    9.6540    8.5643 C.ar      2 RES2    0.0000
     50 H15        3.7317   10.5764    8.7734 H         2 RES2    0.0000
     51 C26        3.9584    9.2177    7.3041 C.ar      2 RES2    0.0000
     52 H16        4.2692    9.8339    6.6503 H         2 RES2    0.0000
     53 C27        3.8173    7.8387    6.9752 C.ar      2 RES2    0.0000
     54 C28        3.9231    6.1324    5.4719 C.ar      2 RES2    0.0000
@<TRIPOS>BOND
     1    1    2 1
     2    2    3 ar
     3    3   27 ar
     4    4   26 ar
     5    5   16 ar
     6    6    2 ar
     7    7    6 ar
     8    8    7 1
     9    9    7 ar
    10   10    9 1
    11   11    9 ar
    12   12   11 1
    13   13   11 ar
    14   14   13 1
    15   15    6 ar
    16   16   15 ar
    17   17    5 ar
    18   18   17 ar
    19   19   18 1
    20   20   18 ar
    21   21   20 1
    22   22   20 ar
    23   23   22 1
    24   24   22 ar
    25   25   24 1
    26   26   17 ar
    27   27    4 ar
    28   28   29 1
    29   29   30 ar
    30   30   54 ar
    31   31   53 ar
    32   32   43 ar
    33   33   29 ar
    34   34   33 ar
    35   35   34 1
    36   36   34 ar
    37   37   36 1
    38   38   36 ar
    39   39   38 1
    40   40   38 ar
    41   41   40 1
    42   42   33 ar
    43   43   42 ar
    44   44   32 ar
    45   45   44 ar
    46   46   45 1
    47   47   45 ar
    48   48   47 1
    49   49   47 ar
    50   50   49 1
    51   51   49 ar
    52   52   51 1
    53   53   44 ar
    54   54   31 ar
    55   13   15 ar
    56   16   27 ar
    57   24   26 ar
    58   40   42 ar
    59   43   54 ar
    60   51   53 ar
@<TRIPOS>SUBSTRUCTURE
     1 RES1 1
     2 RES2 28

@<TRIPOS>CRYSIN
   7.1044   11.6958   13.3132  84.7330  83.5870  79.1550   2 1

