# MOL2 file generated by ConQuest
# Please check atom types

@<TRIPOS>MOLECULE
UCIRAA
   120   126     2
SMALL
NO_CHARGES
****
Generated from CSD

@<TRIPOS>ATOM
      1 O1         1.1287    1.5833    6.6956 O.3       1 RES1    0.0000
      2 O2         2.0033    7.9137    1.3314 O.3       2 RES2    0.0000
      3 N1         3.7498    9.3841    0.7651 N.am      2 RES2    0.0000
      4 O3         1.6140    4.2796    3.0071 O.2       1 RES1    0.0000
      5 N2         1.1381    2.9227    4.7513 N.am      1 RES1    0.0000
      6 N3         3.3477   11.1673   -0.7226 N.am      2 RES2    0.0000
      7 N4         1.8622    2.0404    2.6931 N.am      1 RES1    0.0000
      8 O4         5.4602   10.5862   -0.1577 O.2       2 RES2    0.0000
      9 C1         2.2718    9.2450    1.0188 C.3       2 RES2    0.0000
     10 N5        -0.4113    1.0569    5.1654 N.3       1 RES1    0.0000
     11 O5         2.2966   -0.1517    2.4627 O.2       1 RES1    0.0000
     12 O6         1.2981   11.6330   -1.4946 O.2       2 RES2    0.0000
     13 C2         0.7868    4.0870    5.5493 C.ar      1 RES1    0.0000
     14 C3         4.2757   10.3672   -0.0219 C.2       2 RES2    0.0000
     15 C4         1.5557    9.5649   -0.3003 C.3       2 RES2    0.0000
     16 C5         2.0138   10.8759   -0.8762 C.2       2 RES2    0.0000
     17 C6         3.8751   12.3671   -1.3328 C.ar      2 RES2    0.0000
     18 C7         1.9979    2.2432    1.2643 C.ar      1 RES1    0.0000
     19 C8         4.6924    8.7069    1.6112 C.ar      2 RES2    0.0000
     20 C9         6.5036    7.4020    3.1894 C.ar      2 RES2    0.0000
     21 N6         7.5019    6.7431    4.0465 N.pl3     2 RES2    0.0000
     22 C10        0.9033    1.5335    5.3189 C.3       1 RES1    0.0000
     23 N7         1.8119    9.9813    2.1460 N.3       2 RES2    0.0000
     24 C11        4.3208   12.3469   -2.6341 C.ar      2 RES2    0.0000
     25 O7         7.6019    5.5418    3.9628 O.2       2 RES2    0.0000
     26 C12        2.2322    2.5874   -1.4041 C.ar      1 RES1    0.0000
     27 C13        4.8193    7.3058    1.5399 C.ar      2 RES2    0.0000
     28 N8         5.4593   15.8519   -3.0372 N.pl3     2 RES2    0.0000
     29 N9         2.3484    2.7754   -2.8604 N.pl3     1 RES1    0.0000
     30 C14        1.5059    3.1742    3.4815 C.2       1 RES1    0.0000
     31 C15        4.8802   14.6405   -2.4421 C.ar      2 RES2    0.0000
     32 C16        5.4904    9.4187    2.4531 C.ar      2 RES2    0.0000
     33 C17        6.4339    8.7898    3.2607 C.ar      2 RES2    0.0000
     34 C18        3.8839   13.5373   -0.6033 C.ar      2 RES2    0.0000
     35 C19        5.7115    6.6712    2.3804 C.ar      2 RES2    0.0000
     36 C20        3.0056    3.0102    0.7720 C.ar      1 RES1    0.0000
     37 C21        4.8386   13.5040   -3.2045 C.ar      2 RES2    0.0000
     38 C22        0.2233    6.2779    7.0220 C.ar      1 RES1    0.0000
     39 O8         5.6473   15.8848   -4.2275 O.2       2 RES2    0.0000
     40 O9         0.6461    7.6908    8.8320 O.2       1 RES1    0.0000
     41 N10       -0.0026    7.5445    7.7995 N.pl3     1 RES1    0.0000
     42 C23        1.5732    4.3812    6.6243 C.ar      1 RES1    0.0000
     43 C24       -0.3007    4.8520    5.2038 C.ar      1 RES1    0.0000
     44 C25        1.2677    5.5147    7.3867 C.ar      1 RES1    0.0000
     45 C26        2.0208    0.6424    4.7033 C.3       1 RES1    0.0000
     46 C27        3.1245    3.1977   -0.5924 C.ar      1 RES1    0.0000
     47 C28        4.4275   14.6732   -1.1710 C.ar      2 RES2    0.0000
     48 C29        1.4136    9.1427    3.2799 C.3       2 RES2    0.0000
     49 C30        2.0491    0.7771    3.2059 C.2       1 RES1    0.0000
     50 O10        1.5381    2.2693   -3.5775 O.2       1 RES1    0.0000
     51 C31        1.7901   -0.8180    5.0858 C.3       1 RES1    0.0000
     52 O11        5.7465   16.7611   -2.2721 O.2       2 RES2    0.0000
     53 C32        0.0501    9.5882   -0.1193 C.3       2 RES2    0.0000
     54 C33        1.1937    1.8208   -0.9407 C.ar      1 RES1    0.0000
     55 C34        1.6331    7.7600    2.6835 C.3       2 RES2    0.0000
     56 C35        2.0260   11.3943    2.2858 C.3       2 RES2    0.0000
     57 C36        1.9290    8.4947   -1.3561 C.3       2 RES2    0.0000
     58 H1         1.5601    8.7420   -2.2077 H         2 RES2    0.0000
     59 H2         1.5749    7.6444   -1.0887 H         2 RES2    0.0000
     60 H3         2.8849    8.4360   -1.4274 H         2 RES2    0.0000
     61 C37        1.0747    1.6531    0.4210 C.ar      1 RES1    0.0000
     62 O12        8.2011    7.4265    4.7252 O.2       2 RES2    0.0000
     63 C38       -1.1514    0.9962    6.4296 C.3       1 RES1    0.0000
     64 C39       -0.5674    6.0056    5.9758 C.ar      1 RES1    0.0000
     65 O13        3.2263    3.4568   -3.2786 O.2       1 RES1    0.0000
     66 C40        3.3829    1.1150    5.2257 C.3       1 RES1    0.0000
     67 O14       -0.8208    8.2999    7.4018 O.2       1 RES1    0.0000
     68 C41       -1.0803    1.0800    3.9038 C.3       1 RES1    0.0000
     69 H4        -1.2230    1.9902    3.6337 H         1 RES1    0.0000
     70 H5        -1.9253    0.6337    3.9806 H         1 RES1    0.0000
     71 H6        -0.5401    0.6319    3.2470 H         1 RES1    0.0000
     72 C42       -0.0815    1.3923    7.3758 C.3       1 RES1    0.0000
     73 H7        -0.3342    2.2124    7.8255 H         1 RES1    0.0000
     74 H8         0.0295    0.7007    8.0477 H         1 RES1    0.0000
     75 C43       -1.6216   -0.4127    6.6764 C.3       1 RES1    0.0000
     76 H9        -2.1883   -0.6925    5.9538 H         1 RES1    0.0000
     77 H10       -2.1132   -0.4482    7.5005 H         1 RES1    0.0000
     78 H11       -0.8618   -0.9982    6.7327 H         1 RES1    0.0000
     79 C44       -0.0502    9.3678    3.6173 C.3       2 RES2    0.0000
     80 C45        2.2762    9.3377    4.4921 C.3       2 RES2    0.0000
     81 H12        3.1779    9.0810    4.2878 H         2 RES2    0.0000
     82 H13        1.9436    8.7958    5.2120 H         2 RES2    0.0000
     83 H14        2.2571   10.2623    4.7526 H         2 RES2    0.0000
     84 C46       -2.2859    1.9830    6.5050 C.3       1 RES1    0.0000
     85 H15       -2.8859    1.8377    5.7701 H         1 RES1    0.0000
     86 H16       -1.9363    2.8752    6.4625 H         1 RES1    0.0000
     87 H17       -2.7592    1.8625    7.3319 H         1 RES1    0.0000
     88 H18        3.6982    3.8192   -0.9461 H         1 RES1    0.0000
     89 H19        2.9369   11.6557    2.4270 H         2 RES2    0.0000
     90 H20        0.9129    7.1280    2.7424 H         2 RES2    0.0000
     91 H21        4.2293    6.7626    0.9324 H         2 RES2    0.0000
     92 H22       -0.3076    8.8208    4.3056 H         2 RES2    0.0000
     93 H23        1.7756   -0.9098    5.8688 H         1 RES1    0.0000
     94 H24        4.2695   11.4663   -3.0852 H         2 RES2    0.0000
     95 H25        7.0737    9.2947    3.8942 H         2 RES2    0.0000
     96 H26        4.4160   15.4827   -0.6856 H         2 RES2    0.0000
     97 H27       -0.4086    9.8464   -0.9324 H         2 RES2    0.0000
     98 H28       -0.3078    8.7477    0.2468 H         2 RES2    0.0000
     99 H29       -1.3009    6.4005    5.7043 H         1 RES1    0.0000
    100 H30        4.0125    0.4766    4.9364 H         1 RES1    0.0000
    101 H31        1.8586   11.9871    1.5083 H         2 RES2    0.0000
    102 H32        2.6392   -1.3430    4.6484 H         1 RES1    0.0000
    103 H33       -0.0985   10.5109    0.4525 H         2 RES2    0.0000
    104 H34        2.3725    3.8616    6.8972 H         1 RES1    0.0000
    105 H35        1.5023   11.7182    2.8933 H         2 RES2    0.0000
    106 H36       -0.0474   10.3082    3.9354 H         2 RES2    0.0000
    107 H37        0.9971   -1.3608    4.5936 H         1 RES1    0.0000
    108 H38        0.5668    1.4216   -1.5769 H         1 RES1    0.0000
    109 H39        3.5936   13.5275    0.4114 H         2 RES2    0.0000
    110 H40        3.6255    1.9404    4.8815 H         1 RES1    0.0000
    111 H41        5.1718   13.5785   -4.1548 H         2 RES2    0.0000
    112 H42        2.4989    7.4393    3.0852 H         2 RES2    0.0000
    113 H43        5.8192    5.7943    2.3311 H         2 RES2    0.0000
    114 H44        5.4122   10.4082    2.5779 H         2 RES2    0.0000
    115 H45       -1.0292    4.5538    4.5113 H         1 RES1    0.0000
    116 H46        0.3719    1.0465    0.8502 H         1 RES1    0.0000
    117 H47        1.8445    5.6965    8.1450 H         1 RES1    0.0000
    118 H48        3.6687    3.2691    1.2615 H         1 RES1    0.0000
    119 H49        3.4332    0.9928    6.2527 H         1 RES1    0.0000
    120 H50       -0.7089    9.1963    2.7013 H         2 RES2    0.0000
@<TRIPOS>BOND
     1    1   22 1
     2    2    9 1
     3    3    9 1
     4    4   30 2
     5    5   13 1
     6    6   14 1
     7    7   18 1
     8    8   14 2
     9    9   15 1
    10   10   22 1
    11   11   49 2
    12   12   16 2
    13   13   42 ar
    14   14    3 1
    15   15   16 1
    16   16    6 1
    17   17    6 1
    18   18   36 ar
    19   19    3 1
    20   20   21 1
    21   21   25 2
    22   22    5 1
    23   23    9 1
    24   24   17 ar
    25   26   29 1
    26   27   19 ar
    27   28   31 1
    28   29   50 2
    29   30    5 1
    30   31   37 ar
    31   32   19 ar
    32   33   20 ar
    33   34   17 ar
    34   35   20 ar
    35   36   46 ar
    36   37   24 ar
    37   38   41 1
    38   39   28 2
    39   40   41 2
    40   41   67 2
    41   42   44 ar
    42   43   13 ar
    43   44   38 ar
    44   45   22 1
    45   46   26 ar
    46   47   31 ar
    47   48   23 1
    48   49    7 1
    49   51   45 1
    50   52   28 2
    51   53   15 1
    52   54   26 ar
    53   55    2 1
    54   56   23 1
    55   57   15 1
    56   58   57 1
    57   59   57 1
    58   60   57 1
    59   61   18 ar
    60   62   21 2
    61   63   10 1
    62   64   38 ar
    63   65   29 2
    64   66   45 1
    65   68   10 1
    66   69   68 1
    67   70   68 1
    68   71   68 1
    69   72    1 1
    70   73   72 1
    71   74   72 1
    72   75   63 1
    73   76   75 1
    74   77   75 1
    75   78   75 1
    76   79   48 1
    77   80   48 1
    78   81   80 1
    79   82   80 1
    80   83   80 1
    81   84   63 1
    82   85   84 1
    83   86   84 1
    84   87   84 1
    85   88   46 1
    86   89   56 1
    87   90   55 1
    88   91   27 1
    89   92   79 1
    90   93   51 1
    91   94   24 1
    92   95   33 1
    93   96   47 1
    94   97   53 1
    95   98   53 1
    96   99   64 1
    97  100   66 1
    98  101   56 1
    99  102   51 1
   100  103   53 1
   101  104   42 1
   102  105   56 1
   103  106   79 1
   104  107   51 1
   105  108   54 1
   106  109   34 1
   107  110   66 1
   108  111   37 1
   109  112   55 1
   110  113   35 1
   111  114   32 1
   112  115   43 1
   113  116   61 1
   114  117   44 1
   115  118   36 1
   116  119   66 1
   117  120   79 1
   118    7   30 1
   119   27   35 ar
   120   32   33 ar
   121   34   47 ar
   122   43   64 ar
   123   45   49 1
   124   48   55 1
   125   54   61 ar
   126   63   72 1
@<TRIPOS>SUBSTRUCTURE
     1 RES1 1
     2 RES2 2

@<TRIPOS>CRYSIN
  11.6480   14.8170   15.1910 101.0020 112.5730  90.5620   2 1

