# MOL2 file generated by ConQuest
# Please check atom types

@<TRIPOS>MOLECULE
UCIXOT
    35    36     1
SMALL
NO_CHARGES
****
Generated from CSD

@<TRIPOS>ATOM
      1 C1         2.6094    0.5114   11.3244 C.2       1 RES1    0.0000
      2 C2         6.0334    0.1251   10.1134 C.3       1 RES1    0.0000
      3 C3         3.3413    2.4513   13.6925 C.3       1 RES1    0.0000
      4 C4         1.5471    0.6776   10.2854 C.ar      1 RES1    0.0000
      5 C5         0.2822    0.1601   10.5827 C.ar      1 RES1    0.0000
      6 C6        -0.7215    0.3031    9.6385 C.ar      1 RES1    0.0000
      7 C7        -0.5223    0.9199    8.4104 C.ar      1 RES1    0.0000
      8 C8         0.7483    1.4028    8.1537 C.ar      1 RES1    0.0000
      9 C9         1.7942    1.3080    9.0637 C.ar      1 RES1    0.0000
     10 C10        4.7615    1.2413   11.9814 C.ar      1 RES1    0.0000
     11 C11        4.6272    1.8182   13.2417 C.ar      1 RES1    0.0000
     12 C12        5.7480    1.7798   14.0776 C.ar      1 RES1    0.0000
     13 C13        6.9406    1.2044   13.6495 C.ar      1 RES1    0.0000
     14 C14        7.0439    0.6698   12.3689 C.ar      1 RES1    0.0000
     15 C15        5.9447    0.6770   11.5074 C.ar      1 RES1    0.0000
     16 N1        -2.0705   -0.2075    9.9447 N.pl3     1 RES1    0.0000
     17 N2         0.9919    2.0472    6.8487 N.pl3     1 RES1    0.0000
     18 O1         2.5187   -0.2333   12.2630 O.2       1 RES1    0.0000
     19 O2         3.6797    1.3057   11.0687 O.3       1 RES1    0.0000
     20 O3        -2.2148   -0.8913   10.9493 O.2       1 RES1    0.0000
     21 O4        -2.9705    0.0887    9.1623 O.2       1 RES1    0.0000
     22 O5         0.0207    2.3607    6.1710 O.2       1 RES1    0.0000
     23 O6         2.1583    2.2273    6.5159 O.2       1 RES1    0.0000
     24 H1         5.3486   -0.5660    9.9218 H         1 RES1    0.0000
     25 H2         6.8924   -0.2673    9.9218 H         1 RES1    0.0000
     26 H3         5.9007    0.8491    9.4607 H         1 RES1    0.0000
     27 H4         2.8727    2.8137   12.9316 H         1 RES1    0.0000
     28 H5         3.5165    3.2484   14.2865 H         1 RES1    0.0000
     29 H6         2.8215    1.7987   14.1394 H         1 RES1    0.0000
     30 H7         0.0930   -0.2602   11.4055 H         1 RES1    0.0000
     31 H8        -1.2176    0.9976    7.7536 H         1 RES1    0.0000
     32 H9         2.6708    1.6722    8.8681 H         1 RES1    0.0000
     33 H10        5.7155    2.1525   14.9711 H         1 RES1    0.0000
     34 H11        7.7132    1.1792   14.2766 H         1 RES1    0.0000
     35 H12        7.8774    0.2838   12.0292 H         1 RES1    0.0000
@<TRIPOS>BOND
     1    1    4 1
     2    2   15 1
     3    3   11 1
     4    4    5 ar
     5    5    6 ar
     6    6    7 ar
     7    7    8 ar
     8    8    9 ar
     9    9    4 ar
    10   10   11 ar
    11   11   12 ar
    12   12   13 ar
    13   13   14 ar
    14   14   15 ar
    15   15   10 ar
    16   16    6 1
    17   17    8 1
    18   18    1 2
    19   19    1 1
    20   20   16 2
    21   21   16 2
    22   22   17 2
    23   23   17 2
    24   24    2 1
    25   25    2 1
    26   26    2 1
    27   27    3 1
    28   28    3 1
    29   29    3 1
    30   30    5 1
    31   31    7 1
    32   32    9 1
    33   33   12 1
    34   34   13 1
    35   35   14 1
    36   10   19 1
@<TRIPOS>SUBSTRUCTURE
     1 RES1 1

@<TRIPOS>CRYSIN
  12.3497    7.8616   14.6822  90.0000 105.5660  90.0000  14 1

