# MOL2 file generated by ConQuest
# Please check atom types

@<TRIPOS>MOLECULE
UCIXUC
    31    30     1
SMALL
NO_CHARGES
****
Generated from CSD

@<TRIPOS>ATOM
      1 C1        -3.7250    2.4936   -1.6402 C.3       1 RES1    0.0000
      2 C2        -2.0972    2.8480    0.2845 C.3       1 RES1    0.0000
      3 C3        -1.2899    1.5624    0.3289 C.2       1 RES1    0.0000
      4 C4        -0.3446    2.0949    2.5262 C.2       1 RES1    0.0000
      5 C5         1.1125    2.4355    4.3278 C.3       1 RES1    0.0000
      6 C6         2.6255    2.3653    4.3191 C.3       1 RES1    0.0000
      7 N1        -2.5391    3.1095   -1.0688 N.pl3     1 RES1    0.0000
      8 N2        -1.5845    3.5356   -1.9115 N.pl3     1 RES1    0.0000
      9 N3        -0.4805    1.3154    1.4052 N.am      1 RES1    0.0000
     10 N4         3.2802    3.0617    3.1432 N.pl3     1 RES1    0.0000
     11 N5         3.1869    3.0106    5.5688 N.pl3     1 RES1    0.0000
     12 N6         3.1235    0.9231    4.2896 N.pl3     1 RES1    0.0000
     13 O1        -1.8770    3.6074   -3.1184 O.2       1 RES1    0.0000
     14 O2        -0.5008    3.8714   -1.4411 O.2       1 RES1    0.0000
     15 O3        -1.3444    0.7672   -0.5935 O.2       1 RES1    0.0000
     16 O4        -0.9661    3.0784    2.8067 O.2       1 RES1    0.0000
     17 O5         0.6489    1.5661    3.2995 O.3       1 RES1    0.0000
     18 O6         2.6998    2.9582    2.0766 O.2       1 RES1    0.0000
     19 O7         4.3236    3.6372    3.3482 O.2       1 RES1    0.0000
     20 O8         2.6347    4.0433    5.8917 O.2       1 RES1    0.0000
     21 O9         4.1255    2.4701    6.1185 O.2       1 RES1    0.0000
     22 O10        3.9585    0.6296    3.4631 O.2       1 RES1    0.0000
     23 O11        2.6188    0.2058    5.1239 O.2       1 RES1    0.0000
     24 H1        -3.4909    1.7442   -2.2120 H         1 RES1    0.0000
     25 H2        -4.2914    2.2518   -0.9069 H         1 RES1    0.0000
     26 H3        -4.1922    3.0916   -2.1346 H         1 RES1    0.0000
     27 H4        -1.5775    3.5715    0.5972 H         1 RES1    0.0000
     28 H5        -2.8790    2.7410    0.8207 H         1 RES1    0.0000
     29 H6        -0.0112    0.6183    1.3361 H         1 RES1    0.0000
     30 H7         0.8124    2.1503    5.1938 H         1 RES1    0.0000
     31 H8         0.8528    3.3501    4.1697 H         1 RES1    0.0000
@<TRIPOS>BOND
     1    1    7 1
     2    2    3 1
     3    3    9 1
     4    4    9 1
     5    5    6 1
     6    6   10 1
     7    7    2 1
     8    8    7 1
     9    9   29 1
    10   10   18 2
    11   11    6 1
    12   12    6 1
    13   13    8 2
    14   14    8 2
    15   15    3 2
    16   16    4 2
    17   17    4 1
    18   19   10 2
    19   20   11 2
    20   21   11 2
    21   22   12 2
    22   23   12 2
    23   24    1 1
    24   25    1 1
    25   26    1 1
    26   27    2 1
    27   28    2 1
    28   30    5 1
    29   31    5 1
    30    5   17 1
@<TRIPOS>SUBSTRUCTURE
     1 RES1 1

@<TRIPOS>CRYSIN
  12.6522    9.2288   11.6546  90.0000 108.3790  90.0000  14 1

