# MOL2 file generated by ConQuest
# Please check atom types

@<TRIPOS>MOLECULE
UCIYEN
    15    14     1
SMALL
NO_CHARGES
****
Generated from CSD

@<TRIPOS>ATOM
      1 C1         2.2411    3.0937    9.0541 C.2       1 RES1    0.0000
      2 C2         2.2145    1.8933    8.1333 C.3       1 RES1    0.0000
      3 C3         4.5003    0.8346    8.3478 C.3       1 RES1    0.0000
      4 N1         3.5165    1.5942    7.5783 N.pl3     1 RES1    0.0000
      5 N2         4.0144    2.5086    6.7052 N.pl3     1 RES1    0.0000
      6 O1         1.0574    3.3356    9.5712 O.3       1 RES1    0.0000
      7 O2         3.2501    3.7394    9.2706 O.2       1 RES1    0.0000
      8 O3         3.2178    3.3156    6.2056 O.2       1 RES1    0.0000
      9 O4         5.2071    2.4407    6.4248 O.2       1 RES1    0.0000
     10 H1         1.1447    4.0346   10.1070 H         1 RES1    0.0000
     11 H2         1.5811    2.0832    7.4596 H         1 RES1    0.0000
     12 H3         1.9507    1.1079    8.6557 H         1 RES1    0.0000
     13 H4         3.9819    0.2022    8.8637 H         1 RES1    0.0000
     14 H5         5.1009    0.3879    7.7312 H         1 RES1    0.0000
     15 H6         4.9926    1.4080    8.9539 H         1 RES1    0.0000
@<TRIPOS>BOND
     1    1    2 1
     2    2    4 1
     3    3    4 1
     4    4    5 1
     5    5    8 2
     6    6    1 1
     7    7    1 2
     8    9    5 2
     9   10    6 1
    10   11    2 1
    11   12    2 1
    12   13    3 1
    13   14    3 1
    14   15    3 1
@<TRIPOS>SUBSTRUCTURE
     1 RES1 1

@<TRIPOS>CRYSIN
   5.8782    9.1488   10.2741  90.0000  93.9680  90.0000  14 1

