# MOL2 file generated by ConQuest
# Please check atom types

@<TRIPOS>MOLECULE
UCIYIR
    18    17     1
SMALL
NO_CHARGES
****
Generated from CSD

@<TRIPOS>ATOM
      1 O1        -2.6606    6.6643    2.8172 O.2       1 RES1    0.0000
      2 O2        -1.4293    7.2616    1.1314 O.2       1 RES1    0.0000
      3 O3         1.0519    6.3293    1.1850 O.2       1 RES1    0.0000
      4 O4         2.3726    3.3962    1.3767 O.2       1 RES1    0.0000
      5 O5         4.1471    4.5149    0.8502 O.2       1 RES1    0.0000
      6 N1        -0.5837    5.9480    2.7398 N.am      1 RES1    0.0000
      7 N2        -1.6263    6.6837    2.1797 N.pl3     1 RES1    0.0000
      8 N3         2.9816    5.1066    2.6317 N.3       1 RES1    0.0000
      9 N4         3.1605    4.3051    1.5689 N.pl3     1 RES1    0.0000
     10 C1         0.7011    5.8787    2.2376 C.2       1 RES1    0.0000
     11 C2         1.6390    5.1468    3.1831 C.3       1 RES1    0.0000
     12 C3         3.8598    6.2593    2.7120 C.3       1 RES1    0.0000
     13 H1         3.6194    6.8941    2.0327 H         1 RES1    0.0000
     14 H2         4.7687    5.9793    2.5802 H         1 RES1    0.0000
     15 H3         3.7748    6.6693    3.5763 H         1 RES1    0.0000
     16 H4         1.7347    5.6795    4.0196 H         1 RES1    0.0000
     17 H5         1.3733    4.2276    3.3384 H         1 RES1    0.0000
     18 H6        -0.7951    5.5702    3.4259 H         1 RES1    0.0000
@<TRIPOS>BOND
     1    1    7 2
     2    2    7 2
     3    3   10 2
     4    4    9 2
     5    5    9 2
     6    6    7 1
     7    8    9 1
     8   10    6 1
     9   11    8 1
    10   12    8 1
    11   13   12 1
    12   14   12 1
    13   15   12 1
    14   16   11 1
    15   17   11 1
    16   18    6 1
    17   10   11 1
@<TRIPOS>SUBSTRUCTURE
     1 RES1 1

@<TRIPOS>CRYSIN
  18.0701   31.2233    4.8664  90.0000  90.0000  90.0000  43 1

