# MOL2 file generated by ConQuest
# Please check atom types

@<TRIPOS>MOLECULE
UCOBAS
    89    73     2
SMALL
NO_CHARGES
****
Generated from CSD

@<TRIPOS>ATOM
      1 O1         1.5673   15.0061    3.9643 O.3       1 RES1    0.0000
      2 H1         1.3018   15.5901    3.3139 H         1 RES1    0.0000
      3 O2         5.1791   11.9763    3.9361 O.2       1 RES1    0.0000
      4 O3         4.7594   18.0938    6.8657 O.3       1 RES1    0.0000
      5 O4         5.4178   16.6457   10.6520 O.3       1 RES1    0.0000
      6 O5         1.8777    6.5028    0.7712 O.2       1 RES1    0.0000
      7 O6         3.6690    6.8398   -0.3217 O.2       1 RES1    0.0000
      8 N1         3.0060   12.5295    4.1423 N.am      1 RES1    0.0000
      9 H2         2.1918   12.3345    3.9061 H         1 RES1    0.0000
     10 N2         4.4532   17.4824    8.1393 N.3       1 RES1    0.0000
     11 N3         2.8716    7.1275    0.5544 N.pl3     1 RES1    0.0000
     12 C1         3.9910   11.7692    3.6920 C.2       1 RES1    0.0000
     13 C2         3.2190   13.6823    5.0184 C.3       1 RES1    0.0000
     14 H3         4.1730   13.6873    5.2846 H         1 RES1    0.0000
     15 C3         2.9428   14.9734    4.2578 C.3       1 RES1    0.0000
     16 H4         3.4156   14.8990    3.3906 H         1 RES1    0.0000
     17 C4         3.5626   16.1448    4.9867 C.2       1 RES1    0.0000
     18 H5         4.4947   16.1489    5.1065 H         1 RES1    0.0000
     19 C5         2.8735   17.1597    5.4635 C.2       1 RES1    0.0000
     20 H6         1.9371   17.1547    5.3789 H         1 RES1    0.0000
     21 C6         3.5459   18.3429    6.1483 C.3       1 RES1    0.0000
     22 H7         2.8968   18.6752    6.8181 H         1 RES1    0.0000
     23 C7         5.2912   16.3142    8.2600 C.3       1 RES1    0.0000
     24 H8         6.2329   16.5607    8.1446 H         1 RES1    0.0000
     25 H9         5.0556   15.6578    7.5717 H         1 RES1    0.0000
     26 C8         5.0709   15.7254    9.6420 C.3       1 RES1    0.0000
     27 H10        4.1290   15.4725    9.7416 H         1 RES1    0.0000
     28 H11        5.6129   14.9137    9.7398 H         1 RES1    0.0000
     29 C9         4.6172   17.8059   10.5189 C.3       1 RES1    0.0000
     30 H12        4.8533   18.4488   11.2187 H         1 RES1    0.0000
     31 H13        3.6732   17.5665   10.6300 H         1 RES1    0.0000
     32 C10        4.8224   18.4352    9.1634 C.3       1 RES1    0.0000
     33 H14        4.2703   19.2399    9.0832 H         1 RES1    0.0000
     34 H15        5.7617   18.6929    9.0550 H         1 RES1    0.0000
     35 C11        3.8043   19.5043    5.2079 C.ar      1 RES1    0.0000
     36 C12        4.8031   20.3913    5.3895 C.ar      1 RES1    0.0000
     37 H16        5.3989   20.2722    6.1060 H         1 RES1    0.0000
     38 C13        4.9716   21.4744    4.5442 C.ar      1 RES1    0.0000
     39 H17        5.6814   22.0691    4.7055 H         1 RES1    0.0000
     40 C14        4.1526   21.7071    3.4954 C.ar      1 RES1    0.0000
     41 C15        3.1952   20.7948    3.2927 C.ar      1 RES1    0.0000
     42 H18        2.6224   20.8927    2.5533 H         1 RES1    0.0000
     43 C16        3.0223   19.7163    4.1327 C.ar      1 RES1    0.0000
     44 H19        2.3320   19.1046    3.9476 H         1 RES1    0.0000
     45 C17        4.3448   22.9058    2.5921 C.3       1 RES1    0.0000
     46 H20        5.0890   23.4367    2.9137 H         1 RES1    0.0000
     47 H21        4.5303   22.6044    1.6887 H         1 RES1    0.0000
     48 H22        3.5379   23.4455    2.5929 H         1 RES1    0.0000
     49 C18        2.3843   13.5638    6.2876 C.3       1 RES1    0.0000
     50 H23        2.2856   14.4608    6.6701 H         1 RES1    0.0000
     51 H24        1.4891   13.2550    6.0346 H         1 RES1    0.0000
     52 C19        2.9013   12.6521    7.3663 C.3       1 RES1    0.0000
     53 H25        3.8502   12.8844    7.5311 H         1 RES1    0.0000
     54 C20        2.8358   11.2581    7.0191 C.3       1 RES1    0.0000
     55 H26        3.3106   11.1110    6.1844 H         1 RES1    0.0000
     56 H27        3.2503   10.7287    7.7206 H         1 RES1    0.0000
     57 H28        1.9110   10.9904    6.9168 H         1 RES1    0.0000
     58 C21        2.1723   12.8080    8.6284 C.3       1 RES1    0.0000
     59 H29        2.1917   13.7373    8.9008 H         1 RES1    0.0000
     60 H30        1.2539   12.5227    8.5086 H         1 RES1    0.0000
     61 H31        2.5932   12.2609    9.3124 H         1 RES1    0.0000
     62 C22        3.6278   10.5708    2.8662 C.ar      1 RES1    0.0000
     63 C23        4.4774   10.2117    1.8244 C.ar      1 RES1    0.0000
     64 H32        5.2268   10.7463    1.6331 H         1 RES1    0.0000
     65 C24        4.2362    9.0853    1.0691 C.ar      1 RES1    0.0000
     66 H33        4.8123    8.8435    0.3658 H         1 RES1    0.0000
     67 C25        3.1439    8.3306    1.3661 C.ar      1 RES1    0.0000
     68 C26        2.2891    8.6350    2.3876 C.ar      1 RES1    0.0000
     69 H34        1.5478    8.0877    2.5718 H         1 RES1    0.0000
     70 C27        2.5377    9.7699    3.1491 C.ar      1 RES1    0.0000
     71 H35        1.9629    9.9935    3.8586 H         1 RES1    0.0000
     72 H36        3.5245   15.1049    3.4672 Du        2 SUP2    0.0000
     73 C28        3.8392   17.0459    5.2493 Du        2 SUP2    0.0000
     74 H37        4.6628   16.8930    4.8272 Du        2 SUP2    0.0000
     75 C29        2.8210   16.2195    5.1541 Du        2 SUP2    0.0000
     76 H38        2.0266   16.3842    5.6292 Du        2 SUP2    0.0000
     77 H39        2.7040   18.3576    6.6683 Du        2 SUP2    0.0000
     78 H40        1.4375   13.6844    6.0663 Du        2 SUP2    0.0000
     79 H41        2.6419   14.2726    6.9124 Du        2 SUP2    0.0000
     80 C30        2.5775   12.1904    6.9662 Du        2 SUP2    0.0000
     81 H42        2.3455   11.5198    6.2761 Du        2 SUP2    0.0000
     82 C31        4.0022   11.9051    7.3328 Du        2 SUP2    0.0000
     83 H43        4.5743   12.0815    6.5705 Du        2 SUP2    0.0000
     84 H44        4.2650   12.4727    8.0741 Du        2 SUP2    0.0000
     85 H45        4.0882   10.9728    7.5928 Du        2 SUP2    0.0000
     86 C32        1.6288   11.9345    8.1137 Du        2 SUP2    0.0000
     87 H46        0.7206   12.1315    7.8326 Du        2 SUP2    0.0000
     88 H47        1.6878   11.0022    8.3825 Du        2 SUP2    0.0000
     89 H48        1.8647   12.5021    8.8637 Du        2 SUP2    0.0000
@<TRIPOS>BOND
     1    1    2 1
     2    3   12 2
     3    4   10 1
     4    5   26 1
     5    6   11 2
     6    7   11 2
     7    8    9 1
     8   10   23 1
     9   11   67 1
    10   12    8 1
    11   13    8 1
    12   14   13 1
    13   15    1 1
    14   16   15 1
    15   17   15 1
    16   18   17 1
    17   19   17 2
    18   20   19 1
    19   21    4 1
    20   22   21 1
    21   23   24 1
    22   25   23 1
    23   26   23 1
    24   27   26 1
    25   28   26 1
    26   29    5 1
    27   30   29 1
    28   31   29 1
    29   32   10 1
    30   33   32 1
    31   34   32 1
    32   35   21 1
    33   36   35 ar
    34   37   36 1
    35   38   36 ar
    36   39   38 1
    37   40   38 ar
    38   41   40 ar
    39   42   41 1
    40   43   35 ar
    41   44   43 1
    42   45   40 1
    43   46   45 1
    44   47   45 1
    45   48   45 1
    46   49   13 1
    47   50   49 1
    48   51   49 1
    49   52   49 1
    50   53   52 1
    51   54   52 1
    52   55   54 1
    53   56   54 1
    54   57   54 1
    55   58   52 1
    56   59   58 1
    57   60   58 1
    58   61   58 1
    59   62   12 1
    60   63   62 ar
    61   64   63 1
    62   65   63 ar
    63   66   65 1
    64   67   65 ar
    65   68   67 ar
    66   69   68 1
    67   70   62 ar
    68   71   70 1
    69   13   15 1
    70   19   21 1
    71   29   32 1
    72   41   43 ar
    73   68   70 ar
@<TRIPOS>SUBSTRUCTURE
     1 RES1 1
     2 SUP2 72

@<TRIPOS>CRYSIN
   5.1132   29.4098    8.8232  90.0000  92.6860  90.0000   4 1

