# MOL2 file generated by ConQuest
# Please check atom types

@<TRIPOS>MOLECULE
UCOBEV
    48    51     1
SMALL
NO_CHARGES
****
Generated from CSD

@<TRIPOS>ATOM
      1 O1         0.3112    5.0035    5.5286 O.2       1 RES1    0.0000
      2 O2         4.8318    4.7806    2.7603 O.2       1 RES1    0.0000
      3 O3         3.7296    7.1712    3.2483 O.3       1 RES1    0.0000
      4 N1         2.0590    3.7786    4.8305 N.am      1 RES1    0.0000
      5 N2         3.2367    5.9957    3.8261 N.am      1 RES1    0.0000
      6 N3        -0.1254    9.5685    7.3847 N.ar      1 RES1    0.0000
      7 C1         2.3094    6.1599    4.9005 C.2       1 RES1    0.0000
      8 C2         1.4691    4.9341    5.1306 C.2       1 RES1    0.0000
      9 C3         1.3349    2.4980    4.8280 C.3       1 RES1    0.0000
     10 H1         0.5397    2.5505    4.2747 H         1 RES1    0.0000
     11 H2         1.0774    2.2435    5.7284 H         1 RES1    0.0000
     12 C4         2.3339    1.5142    4.2499 C.3       1 RES1    0.0000
     13 H3         1.8903    0.8581    3.6909 H         1 RES1    0.0000
     14 H4         2.8138    1.0528    4.9551 H         1 RES1    0.0000
     15 C5         3.2791    2.3805    3.4269 C.3       1 RES1    0.0000
     16 H5         4.1380    1.9469    3.3051 H         1 RES1    0.0000
     17 H6         2.9000    2.5855    2.5576 H         1 RES1    0.0000
     18 C6         3.4113    3.6342    4.2787 C.3       1 RES1    0.0000
     19 H7         4.0313    3.4477    5.0153 H         1 RES1    0.0000
     20 C7         3.9020    4.8435    3.5350 C.2       1 RES1    0.0000
     21 C8         2.8089    7.6556    2.2132 C.3       1 RES1    0.0000
     22 H8         1.9010    7.6896    2.5817 H         1 RES1    0.0000
     23 C9         2.8119    6.7801    0.9888 C.3       1 RES1    0.0000
     24 H9         2.5073    5.8890    1.2211 H         1 RES1    0.0000
     25 H10        3.7129    6.7110    0.6373 H         1 RES1    0.0000
     26 C10        1.8952    7.3785   -0.0634 C.3       1 RES1    0.0000
     27 H11        0.9784    7.3456    0.2532 H         1 RES1    0.0000
     28 H12        1.9500    6.8491   -0.8749 H         1 RES1    0.0000
     29 C11        2.2673    8.8238   -0.3796 C.3       1 RES1    0.0000
     30 H13        3.1282    8.8423   -0.8250 H         1 RES1    0.0000
     31 H14        1.6092    9.1977   -0.9869 H         1 RES1    0.0000
     32 C12        2.3330    9.6725    0.8677 C.3       1 RES1    0.0000
     33 H15        1.4446    9.7570    1.2469 H         1 RES1    0.0000
     34 H16        2.6464   10.5615    0.6355 H         1 RES1    0.0000
     35 C13        3.2693    9.0596    1.9016 C.3       1 RES1    0.0000
     36 H17        4.1752    9.0401    1.5552 H         1 RES1    0.0000
     37 H18        3.2634    9.5953    2.7109 H         1 RES1    0.0000
     38 C14        2.1586    7.3445    5.4993 C.2       1 RES1    0.0000
     39 H19        2.7306    8.0141    5.1979 H         1 RES1    0.0000
     40 C15        1.2292    7.7514    6.5594 C.ar      1 RES1    0.0000
     41 C16        0.8198    6.9686    7.6338 C.ar      1 RES1    0.0000
     42 H20        1.1332    6.0971    7.7262 H         1 RES1    0.0000
     43 C17       -0.0519    7.4960    8.5572 C.ar      1 RES1    0.0000
     44 H21       -0.3369    6.9912    9.2849 H         1 RES1    0.0000
     45 C18       -0.4936    8.7856    8.3833 C.ar      1 RES1    0.0000
     46 H22       -1.0901    9.1297    9.0094 H         1 RES1    0.0000
     47 C19        0.7277    9.0463    6.5146 C.ar      1 RES1    0.0000
     48 H23        1.0137    9.5912    5.8179 H         1 RES1    0.0000
@<TRIPOS>BOND
     1    1    8 2
     2    2   20 2
     3    3    5 1
     4    4    8 1
     5    5    7 1
     6    6   45 ar
     7    7    8 1
     8    9    4 1
     9   10    9 1
    10   11    9 1
    11   12    9 1
    12   13   12 1
    13   14   12 1
    14   15   12 1
    15   16   15 1
    16   17   15 1
    17   18    4 1
    18   19   18 1
    19   20    5 1
    20   21    3 1
    21   22   21 1
    22   23   21 1
    23   24   23 1
    24   25   23 1
    25   26   23 1
    26   27   26 1
    27   28   26 1
    28   29   26 1
    29   30   29 1
    30   31   29 1
    31   32   29 1
    32   33   32 1
    33   34   32 1
    34   35   21 1
    35   36   35 1
    36   37   35 1
    37   38    7 2
    38   39   38 1
    39   40   38 1
    40   41   40 ar
    41   42   41 1
    42   43   41 ar
    43   44   43 1
    44   45   43 ar
    45   46   45 1
    46   47    6 ar
    47   48   47 1
    48   15   18 1
    49   18   20 1
    50   32   35 1
    51   40   47 ar
@<TRIPOS>SUBSTRUCTURE
     1 RES1 1

@<TRIPOS>CRYSIN
   9.7941   10.3009   17.2230  90.0000  90.0000  90.0000  19 1

