# MOL2 file generated by ConQuest
# Please check atom types

@<TRIPOS>MOLECULE
UCOGIF
    47    48     1
SMALL
NO_CHARGES
****
Generated from CSD

@<TRIPOS>ATOM
      1 O1         7.2966    7.8377    0.8075 O.3       1 RES1    0.0000
      2 N1         6.4566    6.9399    0.0521 N.3       1 RES1    0.0000
      3 O2         4.1320    7.3999   -1.3415 O.3       1 RES1    0.0000
      4 C1         3.1879    1.8125   -3.5925 C.ar      1 RES1    0.0000
      5 C2         2.8810    2.1481   -2.3066 C.ar      1 RES1    0.0000
      6 C3         5.0476    3.3644   -3.5056 C.ar      1 RES1    0.0000
      7 C4         4.7093    3.6897   -2.1954 C.ar      1 RES1    0.0000
      8 C5         4.2823    2.3968   -4.1868 C.ar      1 RES1    0.0000
      9 C6         7.0247    6.7491   -1.3022 C.3       1 RES1    0.0000
     10 C7         5.4772    4.7527   -1.4250 C.2       1 RES1    0.0000
     11 C8         3.6172    3.0884   -1.6138 C.ar      1 RES1    0.0000
     12 C9         8.4359    6.0933   -1.3809 C.3       1 RES1    0.0000
     13 C10        6.4306    5.6436    0.7611 C.3       1 RES1    0.0000
     14 C11        5.9395    6.0064   -2.1316 C.3       1 RES1    0.0000
     15 C12        5.7330    4.5857   -0.1043 C.2       1 RES1    0.0000
     16 C13        9.1568    6.3079   -2.6958 C.3       1 RES1    0.0000
     17 C14        4.7195    6.8820   -2.5267 C.3       1 RES1    0.0000
     18 C15        5.1256    7.9722   -3.5913 C.3       1 RES1    0.0000
     19 C16       10.5204    5.6691   -2.7433 C.3       1 RES1    0.0000
     20 C17        3.9474    8.6247   -4.1625 C.3       1 RES1    0.0000
     21 C18        4.3874    9.6536   -5.2202 C.3       1 RES1    0.0000
     22 H1         2.6491    1.1800   -4.0736 H         1 RES1    0.0000
     23 H2         2.1385    1.7210   -1.8735 H         1 RES1    0.0000
     24 H3         5.7908    3.7906   -3.9378 H         1 RES1    0.0000
     25 H4         4.5282    2.1428   -5.0791 H         1 RES1    0.0000
     26 H5         7.2218    7.6131   -1.6727 H         1 RES1    0.0000
     27 H6         3.3643    3.3255   -0.7188 H         1 RES1    0.0000
     28 H7         8.3610    5.1514   -1.2073 H         1 RES1    0.0000
     29 H8         8.9810    6.4179   -0.6607 H         1 RES1    0.0000
     30 H9         5.9567    5.7427    1.5902 H         1 RES1    0.0000
     31 H10        7.3295    5.3629    0.9473 H         1 RES1    0.0000
     32 H11        6.3735    5.7720   -2.9559 H         1 RES1    0.0000
     33 H12        5.4896    3.7817    0.4055 H         1 RES1    0.0000
     34 H13        8.6190    5.9670   -3.4150 H         1 RES1    0.0000
     35 H14        9.2378    7.2488   -2.8666 H         1 RES1    0.0000
     36 H15        4.0471    6.3560   -2.9666 H         1 RES1    0.0000
     37 H16        5.6865    8.6315   -3.1758 H         1 RES1    0.0000
     38 H17        5.6355    7.5601   -4.2926 H         1 RES1    0.0000
     39 H18       10.9246    5.8399   -3.5971 H         1 RES1    0.0000
     40 H19       11.0709    6.0389   -2.0490 H         1 RES1    0.0000
     41 H20       10.4351    4.7218   -2.6133 H         1 RES1    0.0000
     42 H21        3.4587    9.0694   -3.4669 H         1 RES1    0.0000
     43 H22        3.3842    7.9642   -4.5739 H         1 RES1    0.0000
     44 H23        3.6770    9.7865   -5.8518 H         1 RES1    0.0000
     45 H24        4.5930   10.4862   -4.7893 H         1 RES1    0.0000
     46 H25        5.1662    9.3287   -5.6777 H         1 RES1    0.0000
     47 H26        3.7927    7.6997   -0.6577 H         1 RES1    0.0000
@<TRIPOS>BOND
     1    1    2 1
     2    2    9 1
     3    3   17 1
     4    4    5 ar
     5    5   11 ar
     6    6    7 ar
     7    7   10 1
     8    8    4 ar
     9    9   12 1
    10   10   14 1
    11   11    7 ar
    12   12   16 1
    13   13    2 1
    14   14    9 1
    15   15   10 2
    16   16   19 1
    17   17   14 1
    18   18   17 1
    19   19   39 1
    20   20   18 1
    21   21   20 1
    22   22    4 1
    23   23    5 1
    24   24    6 1
    25   25    8 1
    26   26    9 1
    27   27   11 1
    28   28   12 1
    29   29   12 1
    30   30   13 1
    31   31   13 1
    32   32   14 1
    33   33   15 1
    34   34   16 1
    35   35   16 1
    36   36   17 1
    37   37   18 1
    38   38   18 1
    39   40   19 1
    40   41   19 1
    41   42   20 1
    42   43   20 1
    43   44   21 1
    44   45   21 1
    45   46   21 1
    46   47    3 1
    47    6    8 ar
    48   13   15 1
@<TRIPOS>SUBSTRUCTURE
     1 RES1 1

@<TRIPOS>CRYSIN
   9.4220   17.0347   12.4925  90.0000 111.9739  90.0000  14 1

