# MOL2 file generated by ConQuest
# Please check atom types

@<TRIPOS>MOLECULE
UCOJEC
    54    56     2
SMALL
NO_CHARGES
****
Generated from CSD

@<TRIPOS>ATOM
      1 O1         0.5663    6.8576    2.6973 O.3       1 RES1    0.0000
      2 H1        -0.2901    6.7698    3.0075 H         1 RES1    0.0000
      3 O2        -1.3689    8.4050   -0.9896 O.3       1 RES1    0.0000
      4 H2        -2.0438    8.9670   -1.1181 H         1 RES1    0.0000
      5 O3        -1.8056    6.7272    4.0327 O.3       2 RES2    0.0000
      6 H3        -2.5308    6.7928    3.6909 H         2 RES2    0.0000
      7 O4        -5.5557    6.5659    5.0426 O.3       2 RES2    0.0000
      8 H4        -6.0211    6.6608    4.2662 H         2 RES2    0.0000
      9 N1        -0.8751    8.5561    0.3150 N.2       1 RES1    0.0000
     10 N2        -4.1923    6.5192    4.7652 N.2       2 RES2    0.0000
     11 C1         0.7027    8.1250    2.0115 C.3       1 RES1    0.0000
     12 C2         2.1829    8.4416    1.9675 C.3       1 RES1    0.0000
     13 H5         2.5172    8.5555    2.8925 H         1 RES1    0.0000
     14 H6         2.3163    9.2984    1.4903 H         1 RES1    0.0000
     15 C3         2.9888    7.3628    1.2810 C.3       1 RES1    0.0000
     16 H7         3.8936    7.7148    1.0882 H         1 RES1    0.0000
     17 H8         3.0900    6.5971    1.9008 H         1 RES1    0.0000
     18 C4         2.3782    6.8729    0.0028 C.ar      1 RES1    0.0000
     19 C5         1.0350    7.0692   -0.3107 C.ar      1 RES1    0.0000
     20 C6         0.2068    7.9109    0.5835 C.2       1 RES1    0.0000
     21 C7         3.1866    6.1526   -0.8761 C.ar      1 RES1    0.0000
     22 H9         4.1077    6.0391   -0.6734 H         1 RES1    0.0000
     23 C8         2.6809    5.6082   -2.0232 C.ar      1 RES1    0.0000
     24 H10        3.2488    5.1337   -2.6183 H         1 RES1    0.0000
     25 C9         1.3442    5.7507   -2.3089 C.ar      1 RES1    0.0000
     26 H11        0.9836    5.3543   -3.0928 H         1 RES1    0.0000
     27 C10        0.5254    6.4649   -1.4654 C.ar      1 RES1    0.0000
     28 H12       -0.3985    6.5483   -1.6693 H         1 RES1    0.0000
     29 C11       -0.0294    9.2137    2.7713 C.3       1 RES1    0.0000
     30 H13       -0.9818    8.9907    2.8257 H         1 RES1    0.0000
     31 H14        0.0804   10.0685    2.3043 H         1 RES1    0.0000
     32 H15        0.3415    9.2860    3.6752 H         1 RES1    0.0000
     33 C12       -1.9599    6.4854    5.4393 C.3       2 RES2    0.0000
     34 C13       -1.3421    7.6318    6.2080 C.3       2 RES2    0.0000
     35 H16       -0.3818    7.7035    5.9781 H         2 RES2    0.0000
     36 H17       -1.7839    8.4787    5.9483 H         2 RES2    0.0000
     37 C14       -1.4894    7.4221    7.7121 C.3       2 RES2    0.0000
     38 H18       -0.7644    6.8223    8.0196 H         2 RES2    0.0000
     39 H19       -1.3681    8.2937    8.1660 H         2 RES2    0.0000
     40 C15       -2.8132    6.8358    8.1428 C.ar      2 RES2    0.0000
     41 C16       -3.7667    6.3900    7.2250 C.ar      2 RES2    0.0000
     42 C17       -3.4250    6.4496    5.7849 C.2       2 RES2    0.0000
     43 C18       -3.0937    6.7096    9.4997 C.ar      2 RES2    0.0000
     44 H20       -2.4527    7.0060   10.1350 H         2 RES2    0.0000
     45 C19       -4.2736    6.1677    9.9404 C.ar      2 RES2    0.0000
     46 H21       -4.4404    6.0840   10.8723 H         2 RES2    0.0000
     47 C20       -5.2185    5.7429    9.0307 C.ar      2 RES2    0.0000
     48 H22       -6.0408    5.3764    9.3337 H         2 RES2    0.0000
     49 C21       -4.9674    5.8523    7.6814 C.ar      2 RES2    0.0000
     50 H23       -5.6198    5.5586    7.0564 H         2 RES2    0.0000
     51 C22       -1.2860    5.1552    5.7453 C.3       2 RES2    0.0000
     52 H24       -1.7228    4.4425    5.2337 H         2 RES2    0.0000
     53 H25       -1.3633    4.9630    6.7027 H         2 RES2    0.0000
     54 H26       -0.3393    5.2041    5.4965 H         2 RES2    0.0000
@<TRIPOS>BOND
     1    1    2 1
     2    3    4 1
     3    5    6 1
     4    7    8 1
     5    9    3 1
     6   10    7 1
     7   11    1 1
     8   12   11 1
     9   13   12 1
    10   14   12 1
    11   15   12 1
    12   16   15 1
    13   17   15 1
    14   18   15 1
    15   19   18 ar
    16   20    9 2
    17   21   18 ar
    18   22   21 1
    19   23   21 ar
    20   24   23 1
    21   25   23 ar
    22   26   25 1
    23   27   19 ar
    24   28   27 1
    25   29   11 1
    26   30   29 1
    27   31   29 1
    28   32   29 1
    29   33    5 1
    30   34   33 1
    31   35   34 1
    32   36   34 1
    33   37   34 1
    34   38   37 1
    35   39   37 1
    36   40   37 1
    37   41   40 ar
    38   42   10 2
    39   43   40 ar
    40   44   43 1
    41   45   43 ar
    42   46   45 1
    43   47   45 ar
    44   48   47 1
    45   49   41 ar
    46   50   49 1
    47   51   33 1
    48   52   51 1
    49   53   51 1
    50   54   51 1
    51   11   20 1
    52   19   20 1
    53   25   27 ar
    54   33   42 1
    55   41   42 1
    56   47   49 ar
@<TRIPOS>SUBSTRUCTURE
     1 RES1 1
     2 RES2 5

@<TRIPOS>CRYSIN
   7.3655    9.6851   14.4720  93.3750  99.4760 102.2880   2 1

