# MOL2 file generated by ConQuest
# Please check atom types

@<TRIPOS>MOLECULE
UCOKOP
    13    12     1
SMALL
NO_CHARGES
****
Generated from CSD

@<TRIPOS>ATOM
      1 C1         1.6301    0.9097    4.0519 C.1       1 RES1    0.0000
      2 C2         0.9475    2.2203    4.0449 C.3       1 RES1    0.0000
      3 C3        -1.2615    1.9747    2.7922 C.3       1 RES1    0.0000
      4 N1         2.1391   -0.1093    4.0797 N.1       1 RES1    0.0000
      5 N2         0.1173    2.4040    2.8732 N.pl3     1 RES1    0.0000
      6 N3         0.6877    2.9069    1.7663 N.pl3     1 RES1    0.0000
      7 O1         1.8936    3.1750    1.8063 O.2       1 RES1    0.0000
      8 O2        -0.0297    3.0786    0.7830 O.2       1 RES1    0.0000
      9 H1         0.3705    2.2713    4.8087 H         1 RES1    0.0000
     10 H2         1.6073    2.9028    4.0976 H         1 RES1    0.0000
     11 H3        -1.4827    1.6194    3.6650 H         1 RES1    0.0000
     12 H4        -1.3662    1.3020    2.0936 H         1 RES1    0.0000
     13 H5        -1.8321    2.7019    2.5859 H         1 RES1    0.0000
@<TRIPOS>BOND
     1    1    2 1
     2    2    5 1
     3    3    5 1
     4    4    1 3
     5    5    6 1
     6    6    7 2
     7    8    6 2
     8    9    2 1
     9   10    2 1
    10   11    3 1
    11   12    3 1
    12   13    3 1
@<TRIPOS>SUBSTRUCTURE
     1 RES1 1

@<TRIPOS>CRYSIN
   6.0991   16.8867    5.5884  90.0000 117.1460  90.0000  14 1

