# MOL2 file generated by ConQuest
# Please check atom types

@<TRIPOS>MOLECULE
UCOLAC
    16    15     1
SMALL
USER_CHARGES
****
Generated from CSD

@<TRIPOS>ATOM
      1 O1         0.8849    1.5742    2.0750 O.2       1 RES1    0.0000
      2 O2         3.8248    2.2760    2.6602 O.2       1 RES1    0.0000
      3 O3         4.8097    1.8447    0.7584 O.2       1 RES1    0.0000
      4 N1         0.6379    0.3971    4.0525 N.2       1 RES1    0.0000
      5 N2        -0.4735    0.9821    4.1782 N.1       1 RES1    1.0000
      6 N3        -1.4616    1.4531    4.3655 N.2       1 RES1   -1.0000
      7 N4         3.3634    0.4026    1.5858 N.3       1 RES1    0.0000
      8 N5         4.0377    1.5588    1.6711 N.pl3     1 RES1    0.0000
      9 C1         1.3012    0.7750    2.8595 C.2       1 RES1    0.0000
     10 C2         2.5967    0.0132    2.7444 C.3       1 RES1    0.0000
     11 C3         3.6612   -0.4842    0.4780 C.3       1 RES1    0.0000
     12 H1         3.6326    0.0204   -0.3614 H         1 RES1    0.0000
     13 H2         2.9979   -1.2052    0.4491 H         1 RES1    0.0000
     14 H3         4.5555   -0.8675    0.5974 H         1 RES1    0.0000
     15 H4         2.4151   -0.9254    2.6496 H         1 RES1    0.0000
     16 H5         3.0637    0.1102    3.5300 H         1 RES1    0.0000
@<TRIPOS>BOND
     1    1    9 2
     2    2    8 2
     3    3    8 2
     4    4    5 2
     5    5    6 2
     6    7    8 1
     7    9    4 1
     8   10    7 1
     9   11    7 1
    10   12   11 1
    11   13   11 1
    12   14   11 1
    13   15   10 1
    14   16   10 1
    15    9   10 1
@<TRIPOS>SUBSTRUCTURE
     1 RES1 1

@<TRIPOS>CRYSIN
  11.4947    5.5082   10.8210  90.0000 105.1700  90.0000  14 1

