# MOL2 file generated by ConQuest
# Please check atom types

@<TRIPOS>MOLECULE
UCOLEG
    60    58     2
SMALL
NO_CHARGES
****
Generated from CSD

@<TRIPOS>ATOM
      1 C1         0.9248    3.1888    3.7593 C.2       1 RES1    0.0000
      2 C2         0.6647    4.1326    2.5913 C.3       1 RES1    0.0000
      3 C3        -0.3927    2.7317    0.7735 C.3       1 RES1    0.0000
      4 N1         1.7261    3.6858    4.6903 N.am      1 RES1    0.0000
      5 N2        -0.4954    3.7334    1.8292 N.pl3     1 RES1    0.0000
      6 N3        -1.6843    3.8346    2.4767 N.pl3     1 RES1    0.0000
      7 O1         0.4416    2.0564    3.8061 O.2       1 RES1    0.0000
      8 O2        -1.7111    4.5142    3.5089 O.2       1 RES1    0.0000
      9 O3        -2.6605    3.2801    1.9693 O.2       1 RES1    0.0000
     10 H1         2.0881    4.4757    4.6261 H         1 RES1    0.0000
     11 H2         1.4042    4.0956    2.0005 H         1 RES1    0.0000
     12 H3         0.5660    4.9975    2.9153 H         1 RES1    0.0000
     13 H4        -0.3194    1.8176    1.1242 H         1 RES1    0.0000
     14 H5         0.3703    2.9417    0.3230 H         1 RES1    0.0000
     15 H6        -1.1204    2.7952    0.1563 H         1 RES1    0.0000
     16 C4         2.4904    7.5469    4.2496 C.2       2 RES2    0.0000
     17 C5         1.8145    8.6236    3.4183 C.3       2 RES2    0.0000
     18 C6        -0.3142    7.9193    2.1672 C.3       2 RES2    0.0000
     19 N4         3.6407    7.9028    4.8037 N.am      2 RES2    0.0000
     20 N5         1.1310    8.0504    2.2792 N.pl3     2 RES2    0.0000
     21 N6         1.8964    7.3875    1.3936 N.pl3     2 RES2    0.0000
     22 O4         1.9759    6.4377    4.4104 O.2       2 RES2    0.0000
     23 O5         3.1257    7.4594    1.5437 O.2       2 RES2    0.0000
     24 O6         1.3327    6.7623    0.4906 O.2       2 RES2    0.0000
     25 H7         4.0512    8.6892    4.7407 H         2 RES2    0.0000
     26 H8         2.4384    9.2827    3.1466 H         2 RES2    0.0000
     27 H9         1.1454    9.0473    3.9749 H         2 RES2    0.0000
     28 H10       -0.6018    6.9756    2.4381 H         2 RES2    0.0000
     29 H11       -0.5669    8.0527    1.2816 H         2 RES2    0.0000
     30 H12       -0.7017    8.5544    2.7715 H         2 RES2    0.0000
     31 C1A        2.9467    3.3560    6.6598 C.2       1 RES1    0.0000
     32 C2A        3.2068    2.4122    7.8278 C.3       1 RES1    0.0000
     33 C3A        4.2641    3.8131    9.6456 C.3       1 RES1    0.0000
     34 N1A        2.1454    2.8590    5.7289 N.am      1 RES1    0.0000
     35 N2A        4.3668    2.8114    8.5900 N.pl3     1 RES1    0.0000
     36 N3A        5.5557    2.7102    7.9424 N.pl3     1 RES1    0.0000
     37 O1A        3.4298    4.4884    6.6130 O.2       1 RES1    0.0000
     38 O2A        5.5826    2.0306    6.9103 O.2       1 RES1    0.0000
     39 O3A        6.5319    3.2647    8.4498 O.2       1 RES1    0.0000
     40 H1A        1.7833    2.0691    5.7930 H         1 RES1    0.0000
     41 H2A        2.4672    2.4492    8.4187 H         1 RES1    0.0000
     42 H3A        3.3055    1.5473    7.5039 H         1 RES1    0.0000
     43 H4A        4.1908    4.7273    9.2949 H         1 RES1    0.0000
     44 H5A        3.5012    3.6032   10.0962 H         1 RES1    0.0000
     45 H6A        4.9918    3.7496   10.2629 H         1 RES1    0.0000
     46 C4A        5.4705    7.3478    6.1696 C.2       2 RES2    0.0000
     47 C5A        6.1464    6.2711    7.0008 C.3       2 RES2    0.0000
     48 C6A        8.2751    6.9754    8.2520 C.3       2 RES2    0.0000
     49 N4A        4.3201    6.9920    5.6154 N.am      2 RES2    0.0000
     50 N5A        6.8299    6.8443    8.1400 N.pl3     2 RES2    0.0000
     51 N6A        6.0645    7.5072    9.0256 N.pl3     2 RES2    0.0000
     52 O4A        5.9849    8.4570    6.0087 O.2       2 RES2    0.0000
     53 O5A        4.8352    7.4353    8.8754 O.2       2 RES2    0.0000
     54 O6A        6.6282    8.1324    9.9285 O.2       2 RES2    0.0000
     55 H7A        3.9097    6.2055    5.6784 H         2 RES2    0.0000
     56 H8A        5.5225    5.6120    7.2726 H         2 RES2    0.0000
     57 H9A        6.8154    5.8474    6.4442 H         2 RES2    0.0000
     58 H10A       8.5627    7.9191    7.9811 H         2 RES2    0.0000
     59 H11A       8.5277    6.8420    9.1376 H         2 RES2    0.0000
     60 H12A       8.6625    6.3403    7.6477 H         2 RES2    0.0000
@<TRIPOS>BOND
     1    1    2 1
     2    2    5 1
     3    3    5 1
     4    4    1 1
     5    5    6 1
     6    6    8 2
     7    7    1 2
     8    9    6 2
     9   10    4 1
    10   11    2 1
    11   12    2 1
    12   13    3 1
    13   14    3 1
    14   15    3 1
    15   16   17 1
    16   17   20 1
    17   18   20 1
    18   19   16 1
    19   20   21 1
    20   21   23 2
    21   22   16 2
    22   24   21 2
    23   25   19 1
    24   26   17 1
    25   27   17 1
    26   28   18 1
    27   29   18 1
    28   30   18 1
    29   31   32 1
    30   32   35 1
    31   33   35 1
    32   34    4 1
    33   35   36 1
    34   36   38 2
    35   37   31 2
    36   39   36 2
    37   40   34 1
    38   41   32 1
    39   42   32 1
    40   43   33 1
    41   44   33 1
    42   45   33 1
    43   46   47 1
    44   47   50 1
    45   48   50 1
    46   49   19 1
    47   50   51 1
    48   51   53 2
    49   52   46 2
    50   54   51 2
    51   55   49 1
    52   56   47 1
    53   57   47 1
    54   58   48 1
    55   59   48 1
    56   60   48 1
    57   31   34 1
    58   46   49 1
@<TRIPOS>SUBSTRUCTURE
     1 RES1 1
     2 RES2 16

@<TRIPOS>CRYSIN
   6.3435    8.6488   10.5766  99.1720  91.1810 105.1070   2 1

