# MOL2 file generated by ConQuest
# Please check atom types

@<TRIPOS>MOLECULE
UCOLII
    33    34     1
SMALL
NO_CHARGES
****
Generated from CSD

@<TRIPOS>ATOM
      1 N1         1.9966   17.2112    1.5198 N.ar      1 RES1    0.0000
      2 C1         1.8699   16.9799    2.8300 C.ar      1 RES1    0.0000
      3 C2         2.4162   15.8724    3.4650 C.ar      1 RES1    0.0000
      4 C3         3.1025   14.9392    2.6973 C.ar      1 RES1    0.0000
      5 C4         3.2448   15.1710    1.3322 C.ar      1 RES1    0.0000
      6 C5         2.6917   16.3210    0.7927 C.ar      1 RES1    0.0000
      7 C6         3.6064   13.6568    3.2872 C.2       1 RES1    0.0000
      8 O1         3.6337   12.6045    2.6527 O.2       1 RES1    0.0000
      9 N2         3.9698   13.7402    4.5848 N.am      1 RES1    0.0000
     10 N3         4.4927   12.5686    5.1264 N.am      1 RES1    0.0000
     11 C7         4.4296   12.3883    6.4619 C.2       1 RES1    0.0000
     12 O2         4.0148   13.2461    7.2316 O.2       1 RES1    0.0000
     13 C8         4.9641   11.0783    6.9643 C.ar      1 RES1    0.0000
     14 C9         5.7671   10.2441    6.1818 C.ar      1 RES1    0.0000
     15 C10        6.1858    9.0390    6.7137 C.ar      1 RES1    0.0000
     16 N4         7.0219    8.1595    5.8810 N.pl3     1 RES1    0.0000
     17 O3         7.3865    8.5817    4.7946 O.2       1 RES1    0.0000
     18 O4         7.2993    7.0472    6.3193 O.2       1 RES1    0.0000
     19 C11        5.8453    8.6166    7.9850 C.ar      1 RES1    0.0000
     20 C12        5.0803    9.4859    8.7371 C.ar      1 RES1    0.0000
     21 N5         4.7361    9.0809   10.1080 N.pl3     1 RES1    0.0000
     22 O5         4.8277    7.8947   10.3848 O.2       1 RES1    0.0000
     23 O6         4.3846    9.9591   10.8895 O.2       1 RES1    0.0000
     24 C13        4.6345   10.7133    8.2659 C.ar      1 RES1    0.0000
     25 H1         1.3813   17.6057    3.3531 H         1 RES1    0.0000
     26 H2         2.3225   15.7562    4.4034 H         1 RES1    0.0000
     27 H3         3.7116   14.5542    0.7815 H         1 RES1    0.0000
     28 H4         2.8097   16.4880   -0.1352 H         1 RES1    0.0000
     29 H5         4.3246   14.4899    4.8807 H         1 RES1    0.0000
     30 H6         4.5757   11.9108    4.5475 H         1 RES1    0.0000
     31 H7         6.0200   10.5004    5.3025 H         1 RES1    0.0000
     32 H8         6.1229    7.7728    8.3232 H         1 RES1    0.0000
     33 H9         4.1183   11.2899    8.8174 H         1 RES1    0.0000
@<TRIPOS>BOND
     1    1    2 ar
     2    2    3 ar
     3    3    4 ar
     4    4    5 ar
     5    5    6 ar
     6    6    1 ar
     7    7    4 1
     8    8    7 2
     9    9    7 1
    10   10    9 1
    11   11   10 1
    12   12   11 2
    13   13   11 1
    14   14   13 ar
    15   15   14 ar
    16   16   15 1
    17   17   16 2
    18   18   16 2
    19   19   15 ar
    20   20   19 ar
    21   21   20 1
    22   22   21 2
    23   23   21 2
    24   24   13 ar
    25   25    2 1
    26   26    3 1
    27   27    5 1
    28   28    6 1
    29   29    9 1
    30   30   10 1
    31   31   14 1
    32   32   19 1
    33   33   24 1
    34   20   24 ar
@<TRIPOS>SUBSTRUCTURE
     1 RES1 1

@<TRIPOS>CRYSIN
   7.4534   22.1762    8.1006  90.0000  96.4890  90.0000 231 1

