# MOL2 file generated by ConQuest
# Please check atom types

@<TRIPOS>MOLECULE
UCONIJ01
    13    13     1
SMALL
NO_CHARGES
****
Generated from CSD

@<TRIPOS>ATOM
      1 O1        -0.7480    4.7790   -1.0813 O.2       1 RES1    0.0000
      2 N1        -0.5313    4.7790    0.1510 N.2       1 RES1    0.0000
      3 N2         0.7449    4.7790    0.4482 N.3       1 RES1    0.0000
      4 C1         1.1695    4.7790    1.8542 C.3       1 RES1    0.0000
      5 C2         2.6652    4.7790    1.6915 C.2       1 RES1    0.0000
      6 C3         3.0347    4.7790    0.4318 C.2       1 RES1    0.0000
      7 C4         1.8524    4.7790   -0.5055 C.3       1 RES1    0.0000
      8 H1         0.8638    5.5494    2.2994 H         1 RES1    0.0000
      9 H2         3.2474    4.7790    2.4633 H         1 RES1    0.0000
     10 H3         3.9469    4.7790    0.1252 H         1 RES1    0.0000
     11 H4         1.8486    5.5506   -1.0801 H         1 RES1    0.0000
     12 H1G        0.8638    4.0086    2.2994 H         1 RES1    0.0000
     13 H4G        1.8486    4.0074   -1.0801 H         1 RES1    0.0000
@<TRIPOS>BOND
     1    1    2 2
     2    2    3 1
     3    3    4 1
     4    4    5 1
     5    5    6 2
     6    6    7 1
     7    7    3 1
     8    8    4 1
     9    9    5 1
    10   10    6 1
    11   11    7 1
    12   12    4 1
    13   13    7 1
@<TRIPOS>SUBSTRUCTURE
     1 RES1 1

@<TRIPOS>CRYSIN
  12.7400    6.3720    5.8510  90.0000  90.0000  90.0000  62 1

