# MOL2 file generated by ConQuest
# Please check atom types

@<TRIPOS>MOLECULE
UCONIJ
    13    13     1
SMALL
NO_CHARGES
****
Generated from CSD

@<TRIPOS>ATOM
      1 O1        13.4880   -1.0813    5.4863 O.2       1 RES1    0.0000
      2 N1        13.2713    0.1510    5.4990 N.2       1 RES1    0.0000
      3 N2        11.9951    0.4482    5.4608 N.3       1 RES1    0.0000
      4 C1        11.5705    1.8542    5.4799 C.3       1 RES1    0.0000
      5 C2        10.0748    1.6915    5.5054 C.2       1 RES1    0.0000
      6 C3         9.7053    0.4318    5.4927 C.2       1 RES1    0.0000
      7 C4        10.8876   -0.5055    5.4863 C.3       1 RES1    0.0000
      8 H1        11.8214    2.2351    6.3554 H         1 RES1    0.0000
      9 H2        11.9297    2.3644    4.8147 H         1 RES1    0.0000
     10 H3         9.4926    2.4633    5.5659 H         1 RES1    0.0000
     11 H4         8.7931    0.1252    5.4111 H         1 RES1    0.0000
     12 H5        10.8621   -1.1603    4.7796 H         1 RES1    0.0000
     13 H6        10.9207   -0.9999    6.3229 H         1 RES1    0.0000
@<TRIPOS>BOND
     1    1    2 2
     2    2    3 1
     3    3    4 1
     4    4    5 1
     5    5    6 2
     6    6    7 1
     7    7    3 1
     8    8    4 1
     9    9    4 1
    10   10    5 1
    11   11    6 1
    12   12    7 1
    13   13    7 1
@<TRIPOS>SUBSTRUCTURE
     1 RES1 1

@<TRIPOS>CRYSIN
  12.7400    5.8510    6.3720  90.0000  90.0000  90.0000  33 1

