# MOL2 file generated by ConQuest
# Please check atom types

@<TRIPOS>MOLECULE
UCOPEH
    31    32     1
SMALL
NO_CHARGES
****
Generated from CSD

@<TRIPOS>ATOM
      1 O1         2.9532    1.8232   11.6699 O.2       1 RES1    0.0000
      2 O2        -2.0214    1.0578   10.1498 O.3       1 RES1    0.0000
      3 O3        -1.5457    1.3590    7.9744 O.2       1 RES1    0.0000
      4 O4         1.0768   -0.3956    6.2607 O.3       1 RES1    0.0000
      5 O5        -0.4163   -1.3250    7.6492 O.2       1 RES1    0.0000
      6 N1         3.2398    1.4832   10.5043 N.2       1 RES1    0.0000
      7 N2         2.3669    1.8477    9.5974 N.3       1 RES1    0.0000
      8 C1         2.2555    1.2443    8.2515 C.3       1 RES1    0.0000
      9 C2         1.6611    2.4192    7.4785 C.3       1 RES1    0.0000
     10 C3         0.8433    3.1856    8.5514 C.3       1 RES1    0.0000
     11 C4         0.9590    2.2818    9.7873 C.3       1 RES1    0.0000
     12 C5         0.2302    0.9133    9.5644 C.3       1 RES1    0.0000
     13 C6         1.1912    0.1790    8.5649 C.3       1 RES1    0.0000
     14 C7        -1.1979    1.1237    9.0981 C.2       1 RES1    0.0000
     15 C8        -3.4191    1.3415    9.8902 C.3       1 RES1    0.0000
     16 C9         0.5045   -0.5703    7.4486 C.2       1 RES1    0.0000
     17 C10        0.5313   -1.2165    5.1987 C.3       1 RES1    0.0000
     18 H1         3.0772    0.8863    7.9029 H         1 RES1    0.0000
     19 H2         2.3570    2.9657    7.0919 H         1 RES1    0.0000
     20 H3         1.1005    2.1203    6.7586 H         1 RES1    0.0000
     21 H4         1.2352    4.0580    8.7298 H         1 RES1    0.0000
     22 H5        -0.0581    3.3186    8.2953 H         1 RES1    0.0000
     23 H6         0.7804    2.7071   10.6339 H         1 RES1    0.0000
     24 H7         0.2165    0.4223   10.3973 H         1 RES1    0.0000
     25 H8         1.6421   -0.4976    9.0778 H         1 RES1    0.0000
     26 H9        -3.9190    1.3977   10.7055 H         1 RES1    0.0000
     27 H10       -3.5167    2.1810    9.4293 H         1 RES1    0.0000
     28 H11       -3.8103    0.6598    9.3451 H         1 RES1    0.0000
     29 H12       -0.2061   -1.7353    5.5302 H         1 RES1    0.0000
     30 H13        0.2224   -0.6817    4.4747 H         1 RES1    0.0000
     31 H14        1.1952   -1.8244    4.8705 H         1 RES1    0.0000
@<TRIPOS>BOND
     1    1    6 2
     2    2   14 1
     3    3   14 2
     4    4   16 1
     5    5   16 2
     6    6    7 1
     7    7    8 1
     8    8    9 1
     9    9   10 1
    10   10   11 1
    11   11    7 1
    12   12   11 1
    13   13    8 1
    14   14   12 1
    15   15    2 1
    16   16   13 1
    17   17    4 1
    18   18    8 1
    19   19    9 1
    20   20    9 1
    21   21   10 1
    22   22   10 1
    23   23   11 1
    24   24   12 1
    25   25   13 1
    26   26   15 1
    27   27   15 1
    28   28   15 1
    29   29   17 1
    30   30   17 1
    31   31   17 1
    32   12   13 1
@<TRIPOS>SUBSTRUCTURE
     1 RES1 1

@<TRIPOS>CRYSIN
  13.4601    7.3065   12.1746  90.0000 110.8900  90.0000  14 1

