# MOL2 file generated by ConQuest
# Please check atom types

@<TRIPOS>MOLECULE
UCOPAD
    35    37     1
SMALL
NO_CHARGES
****
Generated from CSD

@<TRIPOS>ATOM
      1 O1        -3.4883   -2.7545    9.3013 O.2       1 RES1    0.0000
      2 O2         0.9583   -0.1884   10.0914 O.3       1 RES1    0.0000
      3 O3         1.0269    0.2670    7.9130 O.2       1 RES1    0.0000
      4 O4        -1.6483    2.4459    6.7653 O.3       1 RES1    0.0000
      5 O5        -0.7426    2.6193    8.7970 O.2       1 RES1    0.0000
      6 N1        -3.1586   -0.7063    9.7182 N.3       1 RES1    0.0000
      7 N2        -3.8799   -1.6113    9.0942 N.2       1 RES1    0.0000
      8 C1        -3.1831    0.7016    9.3091 C.3       1 RES1    0.0000
      9 C2        -2.6970    1.3131   10.5790 C.ar      1 RES1    0.0000
     10 C3        -2.9995    2.5002   11.2301 C.ar      1 RES1    0.0000
     11 C4        -2.3743    2.7499   12.4305 C.ar      1 RES1    0.0000
     12 C5        -1.4412    1.8714   12.9632 C.ar      1 RES1    0.0000
     13 C6        -1.1583    0.6727   12.3302 C.ar      1 RES1    0.0000
     14 C7        -1.8040    0.4092   11.1439 C.ar      1 RES1    0.0000
     15 C8        -1.7511   -0.7906   10.1981 C.3       1 RES1    0.0000
     16 C9        -1.0427   -0.4057    8.8677 C.3       1 RES1    0.0000
     17 C10       -2.0126    0.6589    8.2591 C.3       1 RES1    0.0000
     18 C11        0.4155   -0.0381    8.8883 C.2       1 RES1    0.0000
     19 C12        2.3858   -0.0370   10.1390 C.3       1 RES1    0.0000
     20 C13       -1.3839    2.0113    7.9941 C.2       1 RES1    0.0000
     21 C14       -1.0571    3.7151    6.4063 C.3       1 RES1    0.0000
     22 H1        -4.0352    1.0183    8.9668 H         1 RES1    0.0000
     23 H2        -3.6341    3.1360   10.8428 H         1 RES1    0.0000
     24 H3        -2.5335    3.5798   12.9117 H         1 RES1    0.0000
     25 H4        -0.9793    2.1118   13.7841 H         1 RES1    0.0000
     26 H5        -0.5102    0.0289   12.6724 H         1 RES1    0.0000
     27 H6        -1.4652   -1.6448   10.5970 H         1 RES1    0.0000
     28 H7        -1.1034   -1.1813    8.2990 H         1 RES1    0.0000
     29 H8        -2.3555    0.3294    7.4357 H         1 RES1    0.0000
     30 H9         2.6922   -0.1295   11.0461 H         1 RES1    0.0000
     31 H10        2.8187   -0.6369    9.5857 H         1 RES1    0.0000
     32 H11        2.6156    0.8750    9.8662 H         1 RES1    0.0000
     33 H12       -0.0621    3.6515    6.4784 H         1 RES1    0.0000
     34 H13       -1.2394    3.9670    5.5198 H         1 RES1    0.0000
     35 H14       -1.3087    4.4109    7.0046 H         1 RES1    0.0000
@<TRIPOS>BOND
     1    1    7 2
     2    2   18 1
     3    3   18 2
     4    4   20 1
     5    5   20 2
     6    6    7 1
     7    8    6 1
     8    9    8 1
     9   10    9 ar
    10   11   10 ar
    11   12   11 ar
    12   13   12 ar
    13   14    9 ar
    14   15    6 1
    15   16   15 1
    16   17    8 1
    17   18   16 1
    18   19    2 1
    19   20   17 1
    20   21    4 1
    21   22    8 1
    22   23   10 1
    23   24   11 1
    24   25   12 1
    25   26   13 1
    26   27   15 1
    27   28   16 1
    28   29   17 1
    29   30   19 1
    30   31   19 1
    31   32   19 1
    32   33   21 1
    33   34   21 1
    34   35   21 1
    35   13   14 ar
    36   14   15 1
    37   16   17 1
@<TRIPOS>SUBSTRUCTURE
     1 RES1 1

@<TRIPOS>CRYSIN
   9.1870   11.5590   13.1640  90.0000 102.2000  90.0000  14 2

