# MOL2 file generated by ConQuest
# Please check atom types

@<TRIPOS>MOLECULE
UCUCIG
    48    50     1
SMALL
NO_CHARGES
****
Generated from CSD

@<TRIPOS>ATOM
      1 O1        -2.4953    4.2760   12.0075 O.2       1 RES1    0.0000
      2 O2        -1.1867    5.2944   10.6162 O.2       1 RES1    0.0000
      3 O3        -1.9553    9.6364    9.0548 O.2       1 RES1    0.0000
      4 O4        -3.8636   10.6098    9.3908 O.2       1 RES1    0.0000
      5 O5        -6.9327    1.8329   16.4620 O.3       1 RES1    0.0000
      6 N1        -5.8986    5.4645   13.5103 N.2       1 RES1    0.0000
      7 N2        -4.6776    5.4343   12.8449 N.3       1 RES1    0.0000
      8 N3        -2.2049    5.2612   11.3056 N.pl3     1 RES1    0.0000
      9 N4        -3.0779    9.6756    9.5578 N.pl3     1 RES1    0.0000
     10 C1        -4.3178    6.4290   12.0158 C.ar      1 RES1    0.0000
     11 C2        -3.0910    6.4033   11.2905 C.ar      1 RES1    0.0000
     12 C3        -2.6944    7.4765   10.5023 C.ar      1 RES1    0.0000
     13 C4        -3.5109    8.5685   10.3896 C.ar      1 RES1    0.0000
     14 C5        -4.7584    8.6142   11.0336 C.ar      1 RES1    0.0000
     15 C6        -5.1433    7.5746   11.8297 C.ar      1 RES1    0.0000
     16 C7        -6.1363    4.4457   14.2573 C.2       1 RES1    0.0000
     17 C8        -5.2492    3.2661   14.5406 C.3       1 RES1    0.0000
     18 C9        -5.0050    3.1732   16.0526 C.3       1 RES1    0.0000
     19 C10       -6.3062    3.0770   16.8271 C.3       1 RES1    0.0000
     20 C11       -7.2190    4.2587   16.5097 C.3       1 RES1    0.0000
     21 C12       -7.4399    4.4094   14.9991 C.3       1 RES1    0.0000
     22 C13       -7.6515    1.1864   17.5038 C.3       1 RES1    0.0000
     23 C14       -7.0895   -0.1795   17.8099 C.ar      1 RES1    0.0000
     24 C15       -5.8311   -0.5821   17.3702 C.ar      1 RES1    0.0000
     25 C16       -5.3415   -1.8434   17.7055 C.ar      1 RES1    0.0000
     26 C17       -6.0923   -2.6994   18.4929 C.ar      1 RES1    0.0000
     27 C18       -7.3489   -2.3109   18.9270 C.ar      1 RES1    0.0000
     28 C19       -7.8443   -1.0650   18.5823 C.ar      1 RES1    0.0000
     29 H1        -4.1193    4.7382   12.8879 H         1 RES1    0.0000
     30 H2        -1.9157    7.4530   10.0508 H         1 RES1    0.0000
     31 H3        -5.3431    9.3526   10.9045 H         1 RES1    0.0000
     32 H4        -5.9920    7.5924   12.2760 H         1 RES1    0.0000
     33 H5        -5.7209    2.4419   14.2404 H         1 RES1    0.0000
     34 H6        -4.4173    3.2583   14.0737 H         1 RES1    0.0000
     35 H7        -4.4480    2.3896   16.2340 H         1 RES1    0.0000
     36 H8        -4.5231    3.9817   16.3587 H         1 RES1    0.0000
     37 H9        -6.1262    3.0310   17.8218 H         1 RES1    0.0000
     38 H10       -8.0841    4.1386   16.9617 H         1 RES1    0.0000
     39 H11       -6.8031    5.0971   16.8828 H         1 RES1    0.0000
     40 H12       -7.9551    5.2211   14.7938 H         1 RES1    0.0000
     41 H13       -7.9489    3.6304   14.6475 H         1 RES1    0.0000
     42 H14       -7.6142    1.7145   18.3497 H         1 RES1    0.0000
     43 H15       -8.6137    1.0672   17.2123 H         1 RES1    0.0000
     44 H16       -5.2999   -0.0137   16.8281 H         1 RES1    0.0000
     45 H17       -4.4732   -2.1386   17.3866 H         1 RES1    0.0000
     46 H18       -5.7400   -3.5498   18.7327 H         1 RES1    0.0000
     47 H19       -7.8792   -2.8863   19.4655 H         1 RES1    0.0000
     48 H20       -8.7199   -0.7838   18.8752 H         1 RES1    0.0000
@<TRIPOS>BOND
     1    1    8 2
     2    2    8 2
     3    3    9 2
     4    4    9 2
     5    5   19 1
     6    6    7 1
     7    7   10 1
     8    8   11 1
     9    9   13 1
    10   10   11 ar
    11   11   12 ar
    12   12   13 ar
    13   13   14 ar
    14   14   15 ar
    15   15   10 ar
    16   16    6 2
    17   17   16 1
    18   18   17 1
    19   19   18 1
    20   20   19 1
    21   21   16 1
    22   22    5 1
    23   23   22 1
    24   24   23 ar
    25   25   24 ar
    26   26   25 ar
    27   27   26 ar
    28   28   23 ar
    29   29    7 1
    30   30   12 1
    31   31   14 1
    32   32   15 1
    33   33   17 1
    34   34   17 1
    35   35   18 1
    36   36   18 1
    37   37   19 1
    38   38   20 1
    39   39   20 1
    40   40   21 1
    41   41   21 1
    42   42   22 1
    43   43   22 1
    44   44   24 1
    45   45   25 1
    46   46   26 1
    47   47   27 1
    48   48   28 1
    49   20   21 1
    50   27   28 ar
@<TRIPOS>SUBSTRUCTURE
     1 RES1 1

@<TRIPOS>CRYSIN
   5.9628   11.7329   13.0844 101.2251  94.5613 103.6311   2 1

