# MOL2 file generated by ConQuest
# Please check atom types

@<TRIPOS>MOLECULE
UCUCOM
    58    61     1
SMALL
NO_CHARGES
****
Generated from CSD

@<TRIPOS>ATOM
      1 O1        -0.2349    6.1532    3.4467 O.2       1 RES1    0.0000
      2 O2        -0.3170    7.9020    2.1679 O.2       1 RES1    0.0000
      3 O3         1.6651    7.9751   -2.1021 O.2       1 RES1    0.0000
      4 O4         3.1086    6.4620   -2.6824 O.2       1 RES1    0.0000
      5 O5         1.3821    0.7553    7.2688 O.3       1 RES1    0.0000
      6 N1         2.3714    3.2376    3.3487 N.2       1 RES1    0.0000
      7 N2         1.5671    4.3210    3.0117 N.3       1 RES1    0.0000
      8 N3         0.1194    6.7881    2.4311 N.pl3     1 RES1    0.0000
      9 N4         2.3214    6.9501   -1.8809 N.pl3     1 RES1    0.0000
     10 C1         1.7413    4.9636    1.8425 C.ar      1 RES1    0.0000
     11 C2         1.0699    6.1776    1.5229 C.ar      1 RES1    0.0000
     12 C3         1.2746    6.8278    0.3160 C.ar      1 RES1    0.0000
     13 C4         2.1400    6.2808   -0.5968 C.ar      1 RES1    0.0000
     14 C5         2.8203    5.0849   -0.3384 C.ar      1 RES1    0.0000
     15 C6         2.6251    4.4422    0.8559 C.ar      1 RES1    0.0000
     16 C7         2.0456    2.6170    4.4253 C.2       1 RES1    0.0000
     17 C8         0.8632    2.8983    5.3175 C.3       1 RES1    0.0000
     18 C9         1.3212    3.1378    6.7620 C.3       1 RES1    0.0000
     19 C10        2.1602    1.9674    7.2583 C.3       1 RES1    0.0000
     20 C11        3.3636    1.7214    6.3471 C.3       1 RES1    0.0000
     21 C12        2.9234    1.4738    4.8782 C.3       1 RES1    0.0000
     22 C13        0.4568    0.6618    8.3559 C.3       1 RES1    0.0000
     23 C14        1.1369    0.4663    9.6891 C.ar      1 RES1    0.0000
     24 C15        1.0497    1.4361   10.6860 C.ar      1 RES1    0.0000
     25 C16        1.6575    1.2308   11.9276 C.ar      1 RES1    0.0000
     26 C17        2.3463    0.0510   12.1796 C.ar      1 RES1    0.0000
     27 C18        2.4525   -0.9118   11.1859 C.ar      1 RES1    0.0000
     28 C19        1.8591   -0.7035    9.9501 C.ar      1 RES1    0.0000
     29 C20        4.2371    0.5742    6.8600 C.3       1 RES1    0.0000
     30 C21        5.4338    0.3213    5.9509 C.3       1 RES1    0.0000
     31 C22        4.9818    0.0522    4.5160 C.3       1 RES1    0.0000
     32 C23        4.1369    1.2168    3.9834 C.3       1 RES1    0.0000
     33 H1         0.9359    4.6400    3.5095 H         1 RES1    0.0000
     34 H2         0.8334    7.6270    0.1417 H         1 RES1    0.0000
     35 H3         3.4409    4.7676   -0.9985 H         1 RES1    0.0000
     36 H4         3.0723    3.6308    1.0533 H         1 RES1    0.0000
     37 H5         0.3077    2.0880    5.2871 H         1 RES1    0.0000
     38 H6         0.3125    3.6482    5.0198 H         1 RES1    0.0000
     39 H7         1.8398    3.9556    6.8408 H         1 RES1    0.0000
     40 H8         0.5289    3.2480    7.2932 H         1 RES1    0.0000
     41 H9         2.4520    2.1228    8.1729 H         1 RES1    0.0000
     42 H10        3.9088    2.4998    6.3930 H         1 RES1    0.0000
     43 H11        2.3751    0.6090    4.9261 H         1 RES1    0.0000
     44 H12       -0.0865   -0.1160    8.1683 H         1 RES1    0.0000
     45 H13       -0.1458    1.4674    8.3763 H         1 RES1    0.0000
     46 H14        0.5994    2.2504   10.4738 H         1 RES1    0.0000
     47 H15        1.5594    1.8908   12.5735 H         1 RES1    0.0000
     48 H16        2.8158   -0.0812   13.0168 H         1 RES1    0.0000
     49 H17        2.9344   -1.7284   11.3854 H         1 RES1    0.0000
     50 H18        1.9873   -1.3804    9.2605 H         1 RES1    0.0000
     51 H19        3.7021   -0.2204    6.9162 H         1 RES1    0.0000
     52 H20        4.5531    0.7656    7.7708 H         1 RES1    0.0000
     53 H21        5.9682   -0.4408    6.3085 H         1 RES1    0.0000
     54 H22        6.0484    1.0788    5.9292 H         1 RES1    0.0000
     55 H23        5.7535   -0.0928    3.9642 H         1 RES1    0.0000
     56 H24        4.4169   -0.7656    4.5469 H         1 RES1    0.0000
     57 H25        4.6557    2.0648    3.9688 H         1 RES1    0.0000
     58 H26        3.8111    1.0498    3.1051 H         1 RES1    0.0000
@<TRIPOS>BOND
     1    1    8 2
     2    2    8 2
     3    3    9 2
     4    4    9 2
     5    5   19 1
     6    6    7 1
     7    7   10 1
     8    8   11 1
     9    9   13 1
    10   10   11 ar
    11   11   12 ar
    12   12   13 ar
    13   13   14 ar
    14   14   15 ar
    15   15   10 ar
    16   16    6 2
    17   17   16 1
    18   18   17 1
    19   19   18 1
    20   20   19 1
    21   21   16 1
    22   22    5 1
    23   23   22 1
    24   24   23 ar
    25   25   24 ar
    26   26   25 ar
    27   27   26 ar
    28   28   23 ar
    29   29   20 1
    30   30   29 1
    31   31   30 1
    32   32   21 1
    33   33    7 1
    34   34   12 1
    35   35   14 1
    36   36   15 1
    37   37   17 1
    38   38   17 1
    39   39   18 1
    40   40   18 1
    41   41   19 1
    42   42   20 1
    43   43   21 1
    44   44   22 1
    45   45   22 1
    46   46   24 1
    47   47   25 1
    48   48   26 1
    49   49   27 1
    50   50   28 1
    51   51   29 1
    52   52   29 1
    53   53   30 1
    54   54   30 1
    55   55   31 1
    56   56   31 1
    57   57   32 1
    58   58   32 1
    59   20   21 1
    60   27   28 ar
    61   31   32 1
@<TRIPOS>SUBSTRUCTURE
     1 RES1 1

@<TRIPOS>CRYSIN
  16.0264    5.8000   22.8485  90.0000  90.0000  90.0000  33 1

