# MOL2 file generated by ConQuest
# Please check atom types

@<TRIPOS>MOLECULE
UDACOS
    55    58     1
SMALL
NO_CHARGES
****
Generated from CSD

@<TRIPOS>ATOM
      1 O1         2.7355    5.6261    6.5934 O.3       1 RES1    0.0000
      2 C1         2.4504    6.3769    7.7866 C.3       1 RES1    0.0000
      3 H1         3.1491    7.0536    7.9035 H         1 RES1    0.0000
      4 C2         2.5328    5.3693    8.9709 C.3       1 RES1    0.0000
      5 H2         1.7071    5.4085    9.4984 H         1 RES1    0.0000
      6 C3         3.7221    5.6470    9.8616 C.2       1 RES1    0.0000
      7 C4         4.8798    4.7358    9.8764 C.ar      1 RES1    0.0000
      8 C5         6.1543    5.1783   10.2702 C.ar      1 RES1    0.0000
      9 H3         6.2864    6.0745   10.4805 H         1 RES1    0.0000
     10 C6         7.2038    4.3026   10.3477 C.ar      1 RES1    0.0000
     11 H4         8.0441    4.6025   10.6110 H         1 RES1    0.0000
     12 C7         7.0111    2.9804   10.0355 C.ar      1 RES1    0.0000
     13 H5         7.7228    2.3859   10.1054 H         1 RES1    0.0000
     14 C8         5.7694    2.5157    9.6149 C.ar      1 RES1    0.0000
     15 H6         5.6543    1.6196    9.3947 H         1 RES1    0.0000
     16 C9         4.7021    3.4025    9.5266 C.ar      1 RES1    0.0000
     17 C10        3.3316    2.9416    9.0954 C.3       1 RES1    0.0000
     18 C11        2.6309    4.0152    8.2616 C.3       1 RES1    0.0000
     19 H7         1.7231    3.7060    8.0573 H         1 RES1    0.0000
     20 C12        3.3226    4.3718    6.9564 C.3       1 RES1    0.0000
     21 H8         4.2810    4.4588    7.0833 H         1 RES1    0.0000
     22 H9         3.1535    3.6993    6.2783 H         1 RES1    0.0000
     23 C13        1.1169    7.0844    7.5913 C.3       1 RES1    0.0000
     24 H10        0.9488    7.6416    8.3672 H         1 RES1    0.0000
     25 H11        1.1891    7.6713    6.8223 H         1 RES1    0.0000
     26 C14       -0.0706    6.1775    7.3885 C.2       1 RES1    0.0000
     27 O2        -0.2159    5.0902    7.8557 O.2       1 RES1    0.0000
     28 O3        -0.9895    6.7380    6.6046 O.3       1 RES1    0.0000
     29 C15       -2.2011    5.9545    6.3855 C.3       1 RES1    0.0000
     30 H12       -1.9790    5.1276    5.9311 H         1 RES1    0.0000
     31 H13       -2.6068    5.7325    7.2383 H         1 RES1    0.0000
     32 C16       -3.1398    6.7240    5.5793 C.3       1 RES1    0.0000
     33 H14       -3.9377    6.2095    5.4383 H         1 RES1    0.0000
     34 H15       -2.7391    6.9311    4.7311 H         1 RES1    0.0000
     35 H16       -3.3610    7.5390    6.0360 H         1 RES1    0.0000
     36 N1         3.7929    6.6506   10.6514 N.2       1 RES1    0.0000
     37 O4         2.6700    7.5081   10.5473 O.3       1 RES1    0.0000
     38 H17        2.8399    8.1027   11.2075 H         1 RES1    0.0000
     39 O5         3.4967    1.7426    8.3679 O.3       1 RES1    0.0000
     40 C17        2.2741    1.0377    8.1157 C.3       1 RES1    0.0000
     41 H18        2.4703    0.2080    7.6542 H         1 RES1    0.0000
     42 H19        1.7067    1.5744    7.5400 H         1 RES1    0.0000
     43 C18        1.5330    0.7313    9.4074 C.3       1 RES1    0.0000
     44 C19        1.3517    2.0534   10.1366 C.3       1 RES1    0.0000
     45 H20        0.7525    2.6223    9.6289 H         1 RES1    0.0000
     46 H21        0.9484    1.8902   11.0036 H         1 RES1    0.0000
     47 O6         2.6083    2.7215   10.3139 O.3       1 RES1    0.0000
     48 C20        2.3430   -0.2464   10.2790 C.3       1 RES1    0.0000
     49 H22        1.8631   -0.4252   11.0910 H         1 RES1    0.0000
     50 H23        3.1941    0.1432   10.4898 H         1 RES1    0.0000
     51 H24        2.4762   -1.0669    9.7990 H         1 RES1    0.0000
     52 C21        0.1632    0.1379    9.0743 C.3       1 RES1    0.0000
     53 H25       -0.3324    0.7589    8.5349 H         1 RES1    0.0000
     54 H26       -0.3171   -0.0338    9.8875 H         1 RES1    0.0000
     55 H27        0.2794   -0.6842    8.5920 H         1 RES1    0.0000
@<TRIPOS>BOND
     1    1    2 1
     2    2    3 1
     3    4    2 1
     4    5    4 1
     5    6    4 1
     6    7    6 1
     7    8    7 ar
     8    9    8 1
     9   10    8 ar
    10   11   10 1
    11   12   10 ar
    12   13   12 1
    13   14   12 ar
    14   15   14 1
    15   16    7 ar
    16   17   16 1
    17   18    4 1
    18   19   18 1
    19   20    1 1
    20   21   20 1
    21   22   20 1
    22   23    2 1
    23   24   23 1
    24   25   23 1
    25   26   23 1
    26   27   26 2
    27   28   26 1
    28   29   28 1
    29   30   29 1
    30   31   29 1
    31   32   29 1
    32   33   32 1
    33   34   32 1
    34   35   32 1
    35   36    6 2
    36   37   36 1
    37   38   37 1
    38   39   17 1
    39   40   39 1
    40   41   40 1
    41   42   40 1
    42   43   40 1
    43   44   43 1
    44   45   44 1
    45   46   44 1
    46   47   17 1
    47   48   43 1
    48   49   48 1
    49   50   48 1
    50   51   48 1
    51   52   43 1
    52   53   52 1
    53   54   52 1
    54   55   52 1
    55   14   16 ar
    56   17   18 1
    57   18   20 1
    58   44   47 1
@<TRIPOS>SUBSTRUCTURE
     1 RES1 1

@<TRIPOS>CRYSIN
   9.5017    9.8087   11.8467  92.4250  98.3610 113.2230   2 1

