# MOL2 file generated by ConQuest
# Please check atom types

@<TRIPOS>MOLECULE
UDACIM
   106   114     2
SMALL
NO_CHARGES
****
Generated from CSD

@<TRIPOS>ATOM
      1 N1        12.2960    2.3896   28.5790 N.2       1 RES1    0.0000
      2 N2        12.4711    1.5778   27.4650 N.2       1 RES1    0.0000
      3 C1        13.6311    1.5122   26.9239 C.2       1 RES1    0.0000
      4 C2        14.8520    2.1962   27.5207 C.2       1 RES1    0.0000
      5 O1        15.0712    3.3801   27.3915 O.2       1 RES1    0.0000
      6 C3        15.7493    1.2786   28.3301 C.3       1 RES1    0.0000
      7 H1        15.7362    0.3806   27.9560 H         1 RES1    0.0000
      8 H2        16.6416    1.6438   28.3067 H         1 RES1    0.0000
      9 C4        15.2353    1.1681   29.7824 C.3       1 RES1    0.0000
     10 H3        15.3961    2.0455   30.2149 H         1 RES1    0.0000
     11 C5        13.7216    0.8172   29.8797 C.3       1 RES1    0.0000
     12 H4        13.5670    0.2907   30.7719 H         1 RES1    0.0000
     13 H5        13.4613    0.1427   29.2316 H         1 RES1    0.0000
     14 C6        12.8236    2.0260   29.6968 C.2       1 RES1    0.0000
     15 C7        13.8551    0.6168   25.7690 C.ar      1 RES1    0.0000
     16 C8        12.9394   -0.3821   25.4520 C.ar      1 RES1    0.0000
     17 H6        12.0894   -0.4334   25.9412 H         1 RES1    0.0000
     18 C9        13.2246   -1.2876   24.4363 C.ar      1 RES1    0.0000
     19 H7        12.6340   -1.9715   24.2874 H         1 RES1    0.0000
     20 C10       14.4165   -1.2067   23.7401 C.ar      1 RES1    0.0000
     21 H8        14.6309   -1.9081   22.9775 H         1 RES1    0.0000
     22 C11       15.3288   -0.2162   24.0344 C.ar      1 RES1    0.0000
     23 H9        16.1521   -0.1269   23.5345 H         1 RES1    0.0000
     24 C12       15.0496    0.7046   25.0421 C.ar      1 RES1    0.0000
     25 H10       15.7086    1.4483   25.2501 H         1 RES1    0.0000
     26 C13       12.5269    2.8875   30.8743 C.ar      1 RES1    0.0000
     27 C14       11.4614    3.7871   30.8386 C.ar      1 RES1    0.0000
     28 H11       10.9037    3.8215   30.0155 H         1 RES1    0.0000
     29 C15       11.2252    4.6508   31.9044 C.ar      1 RES1    0.0000
     30 H12       10.4648    5.3120   31.8480 H         1 RES1    0.0000
     31 C16       12.0513    4.6334   33.0184 C.ar      1 RES1    0.0000
     32 H13       11.8435    5.2697   33.7322 H         1 RES1    0.0000
     33 C17       13.0966    3.7316   33.0769 C.ar      1 RES1    0.0000
     34 H14       13.7531    3.6682   33.8250 H         1 RES1    0.0000
     35 C18       13.3328    2.8542   32.0258 C.ar      1 RES1    0.0000
     36 H15       14.0725    2.2675   32.0922 H         1 RES1    0.0000
     37 O2        15.7615    0.0328   31.8367 O.3       1 RES1    0.0000
     38 N3        16.5472   -0.9974   32.3741 N.2       1 RES1    0.0000
     39 C19       17.2591   -1.4625   31.3667 C.2       1 RES1    0.0000
     40 C20       16.9608   -0.7691   30.1534 C.2       1 RES1    0.0000
     41 H16       17.3333   -0.9884   29.2006 H         1 RES1    0.0000
     42 C21       16.0290    0.1438   30.5082 C.2       1 RES1    0.0000
     43 C22       18.2093   -2.5635   31.5843 C.ar      1 RES1    0.0000
     44 C23       19.0816   -2.9610   30.5649 C.ar      1 RES1    0.0000
     45 H17       19.0315   -2.4789   29.7164 H         1 RES1    0.0000
     46 C24       19.9775   -4.0044   30.7805 C.ar      1 RES1    0.0000
     47 H18       20.7043   -4.2126   30.1324 H         1 RES1    0.0000
     48 C25       20.0055   -4.6598   31.9997 C.ar      1 RES1    0.0000
     49 H19       20.6377   -5.3755   32.0990 H         1 RES1    0.0000
     50 C26       19.1484   -4.2687   33.0129 C.ar      1 RES1    0.0000
     51 H20       19.1831   -4.7359   33.8388 H         1 RES1    0.0000
     52 C27       18.2513   -3.2300   32.8076 C.ar      1 RES1    0.0000
     53 H21       17.5838   -2.9441   33.5706 H         1 RES1    0.0000
     54 N4        18.4138    0.2759   22.6725 N.2       2 RES2    0.0000
     55 N5        18.4908    1.1470   23.7525 N.2       2 RES2    0.0000
     56 C28       19.6110    1.3151   24.3500 C.2       2 RES2    0.0000
     57 C29       20.9031    0.7125   23.8377 C.2       2 RES2    0.0000
     58 O3        21.2370   -0.4302   24.0646 O.2       2 RES2    0.0000
     59 C30       21.7352    1.6602   22.9957 C.3       2 RES2    0.0000
     60 H22       21.6143    2.6217   23.2766 H         2 RES2    0.0000
     61 H23       22.6622    1.3690   23.0875 H         2 RES2    0.0000
     62 C31       21.2825    1.6232   21.5197 C.3       2 RES2    0.0000
     63 H24       21.4535    0.7347   21.1759 H         2 RES2    0.0000
     64 C32       19.7615    1.8663   21.3168 C.3       2 RES2    0.0000
     65 H25       19.5669    2.1830   20.4470 H         2 RES2    0.0000
     66 H26       19.4589    2.5635   21.9667 H         2 RES2    0.0000
     67 C33       18.9202    0.6327   21.5379 C.2       2 RES2    0.0000
     68 C34       19.6912    2.2601   25.4860 C.ar      2 RES2    0.0000
     69 C35       18.6969    3.2247   25.6741 C.ar      2 RES2    0.0000
     70 H27       17.9468    3.2136   25.1057 H         2 RES2    0.0000
     71 C36       18.8341    4.1756   26.6753 C.ar      2 RES2    0.0000
     72 H28       18.1353    4.8892   26.8111 H         2 RES2    0.0000
     73 C37       19.9646    4.1783   27.4788 C.ar      2 RES2    0.0000
     74 H29       20.0793    4.8205   28.1829 H         2 RES2    0.0000
     75 C38       20.9525    3.2210   27.3096 C.ar      2 RES2    0.0000
     76 H30       21.7315    3.2401   27.7703 H         2 RES2    0.0000
     77 C39       20.8103    2.2533   26.3150 C.ar      2 RES2    0.0000
     78 H31       21.5132    1.5328   26.2025 H         2 RES2    0.0000
     79 C40       18.6245   -0.2722   20.3930 C.ar      2 RES2    0.0000
     80 C41       17.5219   -1.1353   20.4439 C.ar      2 RES2    0.0000
     81 H32       16.8990   -1.1100   21.1793 H         2 RES2    0.0000
     82 C42       17.2478   -2.0080   19.4059 C.ar      2 RES2    0.0000
     83 H33       16.4739   -2.5952   19.4705 H         2 RES2    0.0000
     84 C43       18.0900   -2.0408   18.2916 C.ar      2 RES2    0.0000
     85 H34       17.9078   -2.6745   17.6036 H         2 RES2    0.0000
     86 C44       19.1721   -1.1930   18.2201 C.ar      2 RES2    0.0000
     87 H35       19.7714   -1.2421   17.4832 H         2 RES2    0.0000
     88 C45       19.4449   -0.2939   19.2556 C.ar      2 RES2    0.0000
     89 H36       20.2471    0.2960   19.1783 H         2 RES2    0.0000
     90 O4        21.8733    2.6148   19.4007 O.3       2 RES2    0.0000
     91 N6        22.6624    3.6249   18.8193 N.2       2 RES2    0.0000
     92 C46       23.2973    4.2052   19.8106 C.2       2 RES2    0.0000
     93 C47       22.9267    3.6201   21.0621 C.2       2 RES2    0.0000
     94 H37       23.2551    3.8479   21.8876 H         2 RES2    0.0000
     95 C48       22.0597    2.6470   20.7454 C.2       2 RES2    0.0000
     96 C49       24.2365    5.2983   19.5438 C.ar      2 RES2    0.0000
     97 C50       24.9259    5.9204   20.5859 C.ar      2 RES2    0.0000
     98 H38       24.8039    5.6556   21.4784 H         2 RES2    0.0000
     99 C51       25.8195    6.9516   20.3304 C.ar      2 RES2    0.0000
    100 H39       26.3297    7.3364   21.1037 H         2 RES2    0.0000
    101 C52       26.0365    7.3808   19.0322 C.ar      2 RES2    0.0000
    102 H40       26.6905    8.1028   18.8482 H         2 RES2    0.0000
    103 C53       25.3418    6.7846   17.9904 C.ar      2 RES2    0.0000
    104 H41       25.4886    7.0668   17.0810 H         2 RES2    0.0000
    105 C54       24.4479    5.7544   18.2379 C.ar      2 RES2    0.0000
    106 H42       24.0272    5.3332   17.5761 H         2 RES2    0.0000
@<TRIPOS>BOND
     1    1    2 1
     2    2    3 2
     3    3    4 1
     4    4    5 2
     5    6    4 1
     6    7    6 1
     7    8    6 1
     8    9    6 1
     9   10    9 1
    10   11    9 1
    11   12   11 1
    12   13   11 1
    13   14    1 2
    14   15    3 1
    15   16   15 ar
    16   17   16 1
    17   18   16 ar
    18   19   18 1
    19   20   18 ar
    20   21   20 1
    21   22   20 ar
    22   23   22 1
    23   24   15 ar
    24   25   24 1
    25   26   14 1
    26   27   26 ar
    27   28   27 1
    28   29   27 ar
    29   30   29 1
    30   31   29 ar
    31   32   31 1
    32   33   31 ar
    33   34   33 1
    34   35   26 ar
    35   36   35 1
    36   37   38 1
    37   38   39 2
    38   39   40 1
    39   40   41 1
    40   42    9 1
    41   43   39 1
    42   44   43 ar
    43   45   44 1
    44   46   44 ar
    45   47   46 1
    46   48   46 ar
    47   49   48 1
    48   50   48 ar
    49   51   50 1
    50   52   43 ar
    51   53   52 1
    52   54   55 1
    53   55   56 2
    54   56   57 1
    55   57   58 2
    56   59   57 1
    57   60   59 1
    58   61   59 1
    59   62   59 1
    60   63   62 1
    61   64   62 1
    62   65   64 1
    63   66   64 1
    64   67   54 2
    65   68   56 1
    66   69   68 ar
    67   70   69 1
    68   71   69 ar
    69   72   71 1
    70   73   71 ar
    71   74   73 1
    72   75   73 ar
    73   76   75 1
    74   77   68 ar
    75   78   77 1
    76   79   67 1
    77   80   79 ar
    78   81   80 1
    79   82   80 ar
    80   83   82 1
    81   84   82 ar
    82   85   84 1
    83   86   84 ar
    84   87   86 1
    85   88   79 ar
    86   89   88 1
    87   90   91 1
    88   91   92 2
    89   92   93 1
    90   93   94 1
    91   95   62 1
    92   96   92 1
    93   97   96 ar
    94   98   97 1
    95   99   97 ar
    96  100   99 1
    97  101   99 ar
    98  102  101 1
    99  103  101 ar
   100  104  103 1
   101  105   96 ar
   102  106  105 1
   103   11   14 1
   104   22   24 ar
   105   33   35 ar
   106   37   42 1
   107   40   42 2
   108   50   52 ar
   109   64   67 1
   110   75   77 ar
   111   86   88 ar
   112   90   95 1
   113   93   95 2
   114  103  105 ar
@<TRIPOS>SUBSTRUCTURE
     1 RES1 1
     2 RES2 54

@<TRIPOS>CRYSIN
  22.9793    5.2856   34.3820  90.0000  90.0000  90.0000  33 1

