# MOL2 file generated by ConQuest
# Please check atom types

@<TRIPOS>MOLECULE
UDADEJ
    32    35     1
SMALL
NO_CHARGES
****
Generated from CSD

@<TRIPOS>ATOM
      1 O1         5.8107    2.3278    8.3481 O.3       1 RES1    0.0000
      2 C1         5.4594    1.0109    8.2332 C.2       1 RES1    0.0000
      3 O2         4.9676    0.4363    9.1437 O.2       1 RES1    0.0000
      4 C2         5.7999    0.5105    6.8597 C.3       1 RES1    0.0000
      5 H1         4.9960    0.3458    6.3434 H         1 RES1    0.0000
      6 H2         6.3141   -0.3102    6.9107 H         1 RES1    0.0000
      7 C3         6.6180    1.6170    6.2376 C.3       1 RES1    0.0000
      8 H3         6.4016    1.7462    5.2896 H         1 RES1    0.0000
      9 O3         8.0217    1.3963    6.4417 O.3       1 RES1    0.0000
     10 C4         8.5568    2.3544    7.3769 C.3       1 RES1    0.0000
     11 H4         9.4635    2.6005    7.1384 H         1 RES1    0.0000
     12 H5         8.5556    1.9943    8.2771 H         1 RES1    0.0000
     13 C5         7.6323    3.5493    7.2746 C.3       1 RES1    0.0000
     14 O4         7.8077    4.2582    6.0436 O.3       1 RES1    0.0000
     15 H6         8.5473    4.7596    6.1695 H         1 RES1    0.0000
     16 C6         7.4892    4.5541    8.4044 C.2       1 RES1    0.0000
     17 N1         8.3392    4.8104    9.3219 N.2       1 RES1    0.0000
     18 O5         9.5037    4.0680    9.2079 O.3       1 RES1    0.0000
     19 H7         9.8832    4.4138    9.9437 H         1 RES1    0.0000
     20 C7         6.2550    5.3820    8.3684 C.ar      1 RES1    0.0000
     21 C8         6.1309    6.5169    9.1714 C.ar      1 RES1    0.0000
     22 H8         6.8047    6.7254    9.7780 H         1 RES1    0.0000
     23 C9         5.0255    7.3346    9.0801 C.ar      1 RES1    0.0000
     24 H9         4.9558    8.0780    9.6331 H         1 RES1    0.0000
     25 C10        4.0195    7.0590    8.1723 C.ar      1 RES1    0.0000
     26 H10        3.2912    7.6326    8.0949 H         1 RES1    0.0000
     27 C11        4.0999    5.9291    7.3821 C.ar      1 RES1    0.0000
     28 H11        3.4118    5.7298    6.7885 H         1 RES1    0.0000
     29 C12        5.2135    5.0799    7.4692 C.ar      1 RES1    0.0000
     30 C13        5.2513    3.8595    6.6341 C.2       1 RES1    0.0000
     31 O6         4.5089    3.6510    5.6863 O.2       1 RES1    0.0000
     32 C14        6.2846    2.8476    7.0699 C.3       1 RES1    0.0000
@<TRIPOS>BOND
     1    1    2 1
     2    2    3 2
     3    4    2 1
     4    5    4 1
     5    6    4 1
     6    7    4 1
     7    8    7 1
     8    9    7 1
     9   10    9 1
    10   11   10 1
    11   12   10 1
    12   13   10 1
    13   14   13 1
    14   15   14 1
    15   16   13 1
    16   17   16 2
    17   18   17 1
    18   19   18 1
    19   20   16 1
    20   21   20 ar
    21   22   21 1
    22   23   21 ar
    23   24   23 1
    24   25   23 ar
    25   26   25 1
    26   27   25 ar
    27   28   27 1
    28   29   20 ar
    29   30   29 1
    30   31   30 2
    31   32    1 1
    32    7   32 1
    33   13   32 1
    34   27   29 ar
    35   30   32 1
@<TRIPOS>SUBSTRUCTURE
     1 RES1 1

@<TRIPOS>CRYSIN
  11.8220   10.1700   20.7030  90.0000  90.0000  90.0000  61 1

