# MOL2 file generated by ConQuest
# Please check atom types

@<TRIPOS>MOLECULE
UDADIO
    64    68     1
SMALL
NO_CHARGES
****
Generated from CSD

@<TRIPOS>ATOM
      1 O1         6.8403    0.1040    4.9136 O.3       1 RES1    0.0000
      2 O2         6.2214   -5.8319    3.8706 O.3       1 RES1    0.0000
      3 O3         6.3829   -5.0780    6.5817 O.3       1 RES1    0.0000
      4 O4         6.7209   -1.2239    2.3077 O.3       1 RES1    0.0000
      5 O5         7.2741   -3.8556    2.3666 O.2       1 RES1    0.0000
      6 C1         4.7377   -5.5525    0.5388 C.ar      1 RES1    0.0000
      7 C2         4.7225   -4.5704   -0.5796 C.2       1 RES1    0.0000
      8 N1         4.5652   -9.7891   -4.4183 N.pl3     1 RES1    0.0000
      9 N2         4.5564   -4.8121   -1.8337 N.2       1 RES1    0.0000
     10 C3         4.9240   -3.1461   -0.2211 C.ar      1 RES1    0.0000
     11 C4         5.4725   -6.1493    2.7806 C.ar      1 RES1    0.0000
     12 O6         3.7081  -10.0119   -5.2730 O.2       1 RES1    0.0000
     13 C5         4.7345   -7.3300    2.6890 C.ar      1 RES1    0.0000
     14 H1         4.7086   -7.9329    3.4230 H         1 RES1    0.0000
     15 C6         5.9938   -1.4779    1.1829 C.ar      1 RES1    0.0000
     16 C7         3.4891   -7.6407   -3.9289 C.ar      1 RES1    0.0000
     17 H2         2.7634   -7.8909   -4.4891 H         1 RES1    0.0000
     18 C8         4.7945   -0.8197   -0.7925 C.ar      1 RES1    0.0000
     19 H3         4.4872   -0.1321   -1.3709 H         1 RES1    0.0000
     20 C9         5.4532   -5.2272    1.7129 C.ar      1 RES1    0.0000
     21 O7         5.4052  -10.6152   -4.0771 O.2       1 RES1    0.0000
     22 C10        5.6874   -2.8302    0.9156 C.ar      1 RES1    0.0000
     23 C11        3.4850   -6.4285   -3.2613 C.ar      1 RES1    0.0000
     24 H4         2.7530   -5.8322   -3.3643 H         1 RES1    0.0000
     25 C12        7.1574   -4.3728    7.5484 C.3       1 RES1    0.0000
     26 H5         8.0559   -4.1804    7.1809 H         1 RES1    0.0000
     27 H6         7.2678   -4.9303    8.3586 H         1 RES1    0.0000
     28 C13        7.0816   -6.1870    6.0419 C.3       1 RES1    0.0000
     29 H7         7.2438   -6.8611    6.7487 H         1 RES1    0.0000
     30 H8         7.9564   -5.8941    5.6840 H         1 RES1    0.0000
     31 C14        4.5544   -6.0811   -2.4368 C.ar      1 RES1    0.0000
     32 C15        5.6690   -8.1513   -2.9685 C.ar      1 RES1    0.0000
     33 H9         6.4027   -8.7478   -2.8764 H         1 RES1    0.0000
     34 C16        5.6645   -6.9346   -2.3170 C.ar      1 RES1    0.0000
     35 H10        6.4099   -6.6744   -1.7888 H         1 RES1    0.0000
     36 C17        4.0385   -7.6231    1.5263 C.ar      1 RES1    0.0000
     37 H11        3.5456   -8.4332    1.4697 H         1 RES1    0.0000
     38 C18        6.2538   -6.7850    4.9461 C.3       1 RES1    0.0000
     39 H12        6.6550   -7.6361    4.6380 H         1 RES1    0.0000
     40 H13        5.3362   -6.9680    5.2705 H         1 RES1    0.0000
     41 C19        5.5458   -0.4845    0.3163 C.ar      1 RES1    0.0000
     42 H14        5.7578    0.4258    0.4880 H         1 RES1    0.0000
     43 C20        4.4792   -2.1385   -1.0797 C.ar      1 RES1    0.0000
     44 H15        3.9678   -2.3545   -1.8503 H         1 RES1    0.0000
     45 C21        6.2346   -3.9569    1.7449 C.2       1 RES1    0.0000
     46 C22        4.5806   -8.4830   -3.7606 C.ar      1 RES1    0.0000
     47 C23        7.8114    0.1566    3.8769 C.3       1 RES1    0.0000
     48 H16        8.4211   -0.6198    3.9439 H         1 RES1    0.0000
     49 H17        8.3484    0.9837    3.9582 H         1 RES1    0.0000
     50 C24        7.0970    0.1355    2.5600 C.3       1 RES1    0.0000
     51 H18        6.2947    0.7132    2.5945 H         1 RES1    0.0000
     52 H19        7.6922    0.4667    1.8417 H         1 RES1    0.0000
     53 C25        6.4707   -3.0845    7.9081 C.3       1 RES1    0.0000
     54 H20        5.5462   -3.2942    8.1941 H         1 RES1    0.0000
     55 H21        6.9389   -2.6901    8.6863 H         1 RES1    0.0000
     56 C26        4.0482   -6.7589    0.4483 C.ar      1 RES1    0.0000
     57 H22        3.5872   -6.9869   -0.3506 H         1 RES1    0.0000
     58 O8         6.4075   -2.1038    6.8808 O.3       1 RES1    0.0000
     59 C27        7.6607   -1.4925    6.5816 C.3       1 RES1    0.0000
     60 H23        8.0986   -1.9738    5.8357 H         1 RES1    0.0000
     61 H24        8.2550   -1.5417    7.3727 H         1 RES1    0.0000
     62 C28        7.4378   -0.0459    6.1978 C.3       1 RES1    0.0000
     63 H25        6.8559    0.3807    6.8761 H         1 RES1    0.0000
     64 H26        8.3075    0.4268    6.2049 H         1 RES1    0.0000
@<TRIPOS>BOND
     1    1   47 1
     2    2   11 1
     3    3   25 1
     4    4   15 1
     5    5   45 2
     6    6    7 1
     7    7    9 2
     8    8   12 2
     9    9   31 1
    10   10    7 1
    11   11   13 ar
    12   13   14 1
    13   15   22 ar
    14   16   17 1
    15   18   19 1
    16   20    6 ar
    17   21    8 2
    18   22   10 ar
    19   23   16 ar
    20   24   23 1
    21   25   26 1
    22   27   25 1
    23   28    3 1
    24   29   28 1
    25   30   28 1
    26   31   23 ar
    27   32   33 1
    28   34   31 ar
    29   35   34 1
    30   36   13 ar
    31   37   36 1
    32   38    2 1
    33   39   38 1
    34   40   38 1
    35   41   15 ar
    36   42   41 1
    37   43   10 ar
    38   44   43 1
    39   45   20 1
    40   46    8 1
    41   47   48 1
    42   49   47 1
    43   50    4 1
    44   51   50 1
    45   52   50 1
    46   53   25 1
    47   54   53 1
    48   55   53 1
    49   56    6 ar
    50   57   56 1
    51   58   53 1
    52   59   58 1
    53   60   59 1
    54   61   59 1
    55   62    1 1
    56   63   62 1
    57   64   62 1
    58   11   20 ar
    59   16   46 ar
    60   18   41 ar
    61   18   43 ar
    62   22   45 1
    63   28   38 1
    64   32   34 ar
    65   32   46 ar
    66   36   56 ar
    67   47   50 1
    68   59   62 1
@<TRIPOS>SUBSTRUCTURE
     1 RES1 1

@<TRIPOS>CRYSIN
   8.2670   10.4877   14.6808  90.0000 102.9000  90.0000   7 1

