# MOL2 file generated by ConQuest
# Please check atom types

@<TRIPOS>MOLECULE
UDEHES
    42    44     1
SMALL
USER_CHARGES
****
Generated from CSD

@<TRIPOS>ATOM
      1 O1         5.0987    2.7891    2.4397 O.2       1 RES1    0.0000
      2 O2         9.2680    0.8246    2.4663 O.2       1 RES1   -1.0000
      3 O3         9.4734    3.3215    3.5063 O.3       1 RES1    0.0000
      4 O4         7.1593   -0.9935    2.1029 O.2       1 RES1    0.0000
      5 O5         5.2121    0.0357    1.7413 O.3       1 RES1    0.0000
      6 O6         6.8480    5.9123    1.7910 O.2       1 RES1    0.0000
      7 O7         7.0212    4.1844    0.3882 O.3       1 RES1    0.0000
      8 N1         8.3152    1.5852    2.4263 N.pl3     1 RES1    1.0000
      9 N2         8.6367    3.0511    2.4154 N.3       1 RES1    0.0000
     10 C1         6.2830    2.5929    2.4730 C.2       1 RES1    0.0000
     11 C2         7.0134    1.3492    2.3016 C.2       1 RES1    0.0000
     12 C3         7.3265    3.7097    2.6704 C.3       1 RES1    0.0000
     13 C4         7.4445    4.3339    4.0804 C.3       1 RES1    0.0000
     14 C5         8.6420    3.5838    4.6843 C.3       1 RES1    0.0000
     15 C6         8.3935    2.3096    5.4850 C.3       1 RES1    0.0000
     16 C7         7.6435    2.5108    6.8127 C.3       1 RES1    0.0000
     17 C8         7.8700    3.8555    7.4595 C.2       1 RES1    0.0000
     18 C9         7.2710    4.9912    7.1627 C.2       1 RES1    0.0000
     19 C10        6.2360    5.2823    6.1210 C.3       1 RES1    0.0000
     20 C11        6.1456    4.3801    4.8781 C.3       1 RES1    0.0000
     21 C12        6.4925   -0.0081    2.0557 C.2       1 RES1    0.0000
     22 C13        4.5773   -1.2327    1.4306 C.3       1 RES1    0.0000
     23 C14        7.0503    4.7517    1.5723 C.2       1 RES1    0.0000
     24 C15        6.6984    5.0332   -0.7474 C.3       1 RES1    0.0000
     25 H1         7.7723    5.2456    3.9672 H         1 RES1    0.0000
     26 H2         9.1135    4.0916    5.2452 H         1 RES1    0.0000
     27 H3         7.8644    1.7310    4.8878 H         1 RES1    0.0000
     28 H4         9.3501    1.9671    5.6631 H         1 RES1    0.0000
     29 H5         6.6855    2.4130    6.6806 H         1 RES1    0.0000
     30 H6         7.8731    1.8097    7.3711 H         1 RES1    0.0000
     31 H7         8.4229    3.8817    8.2251 H         1 RES1    0.0000
     32 H8         7.4564    5.8226    7.6982 H         1 RES1    0.0000
     33 H9         6.4472    6.2160    5.7963 H         1 RES1    0.0000
     34 H10        5.3675    5.3243    6.5837 H         1 RES1    0.0000
     35 H11        5.5124    4.7473    4.2882 H         1 RES1    0.0000
     36 H12        5.8668    3.4359    5.1361 H         1 RES1    0.0000
     37 H13        3.6961   -1.0229    1.1568 H         1 RES1    0.0000
     38 H14        5.2029   -1.7048    0.7450 H         1 RES1    0.0000
     39 H15        4.5389   -1.5737    2.1441 H         1 RES1    0.0000
     40 H16        5.8042    5.3767   -0.5814 H         1 RES1    0.0000
     41 H17        7.1863    5.7177   -0.6420 H         1 RES1    0.0000
     42 H18        7.0923    4.5374   -1.5324 H         1 RES1    0.0000
@<TRIPOS>BOND
     1    1   10 2
     2    2    8 1
     3    3    9 1
     4    4   21 2
     5    5   21 1
     6    6   23 2
     7    7   23 1
     8    8    9 1
     9    9   12 1
    10   10   11 1
    11   11    8 2
    12   12   10 1
    13   13   12 1
    14   14    3 1
    15   15   14 1
    16   16   15 1
    17   17   16 1
    18   18   17 2
    19   19   18 1
    20   20   13 1
    21   21   11 1
    22   22    5 1
    23   23   12 1
    24   24    7 1
    25   25   13 1
    26   26   14 1
    27   27   15 1
    28   28   15 1
    29   29   16 1
    30   30   16 1
    31   31   17 1
    32   32   18 1
    33   33   19 1
    34   34   19 1
    35   35   20 1
    36   36   20 1
    37   37   22 1
    38   38   22 1
    39   39   22 1
    40   40   24 1
    41   41   24 1
    42   42   24 1
    43   13   14 1
    44   19   20 1
@<TRIPOS>SUBSTRUCTURE
     1 RES1 1

@<TRIPOS>CRYSIN
   9.9870   26.2280    7.4790  90.0000 125.9200  90.0000   9 1

