# MOL2 file generated by ConQuest
# Please check atom types

@<TRIPOS>MOLECULE
UDEHAO
    37    39     1
SMALL
USER_CHARGES
****
Generated from CSD

@<TRIPOS>ATOM
      1 O1        26.3239    1.6008   -0.9272 O.2       1 RES1   -1.0000
      2 O2        25.5841   -2.3392    1.3814 O.2       1 RES1    0.0000
      3 O3        24.2503    2.1093    0.5845 O.3       1 RES1    0.0000
      4 O4        27.5046   -2.3476   -0.8387 O.3       1 RES1    0.0000
      5 O5        23.6884   -0.1769    3.7414 O.2       1 RES1    0.0000
      6 O6        25.8611    0.1123    3.3615 O.3       1 RES1    0.0000
      7 O7        28.0714   -0.4036   -1.6584 O.2       1 RES1    0.0000
      8 N1        25.9681    0.7087   -0.1656 N.pl3     1 RES1    1.0000
      9 N2        25.0927    1.0753    0.9330 N.3       1 RES1    0.0000
     10 C1        26.3239   -0.5678   -0.0752 C.2       1 RES1    0.0000
     11 C2        27.4147   -1.0626   -0.9729 C.2       1 RES1    0.0000
     12 C3        25.5387   -1.2056    0.9501 C.2       1 RES1    0.0000
     13 C4        24.5250   -0.1748    1.4670 C.3       1 RES1    0.0000
     14 C5        24.6193   -0.0752    3.0045 C.2       1 RES1    0.0000
     15 C6        23.0202    1.7109   -0.1428 C.3       1 RES1    0.0000
     16 C7        23.3258    1.2893   -1.5413 C.2       1 RES1    0.0000
     17 C8        23.3258    0.0667   -2.0611 C.2       1 RES1    0.0000
     18 C9        23.1287   -1.2035   -1.4423 C.2       1 RES1    0.0000
     19 C10       23.0659   -1.4938   -0.1647 C.2       1 RES1    0.0000
     20 C11       23.0802   -0.5276    0.9882 C.3       1 RES1    0.0000
     21 C12       22.2807    0.7320    0.7140 C.3       1 RES1    0.0000
     22 C13       26.1555    0.2023    4.7848 C.3       1 RES1    0.0000
     23 C14       28.5169   -2.8816   -1.7917 C.3       1 RES1    0.0000
     24 H1        22.0437    1.1336    1.5898 H         1 RES1    0.0000
     25 H2        21.5012    0.5297    0.3427 H         1 RES1    0.0000
     26 H3        22.5006    2.5955   -0.1618 H         1 RES1    0.0000
     27 H4        23.4714    1.9811   -2.0373 H         1 RES1    0.0000
     28 H5        23.4714   -0.0424   -2.9417 H         1 RES1    0.0000
     29 H6        23.0716   -2.3836    0.1523 H         1 RES1    0.0000
     30 H7        22.7004   -0.9535    1.7326 H         1 RES1    0.0000
     31 H8        23.1573   -1.8963   -2.0944 H         1 RES1    0.0000
     32 H9        26.1012   -0.5477    5.1522 H         1 RES1    0.0000
     33 H10       27.2434    0.3507    4.7981 H         1 RES1    0.0000
     34 H11       25.7957    0.8560    5.1779 H         1 RES1    0.0000
     35 H12       28.1657   -3.6020   -2.2867 H         1 RES1    0.0000
     36 H13       28.7567   -2.1728   -2.4105 H         1 RES1    0.0000
     37 H14       29.2993   -3.1464   -1.3318 H         1 RES1    0.0000
@<TRIPOS>BOND
     1    1    8 1
     2    2   12 2
     3    3    9 1
     4    4   11 1
     5    5   14 2
     6    6   14 1
     7    7   11 2
     8    8    9 1
     9    9   13 1
    10   10    8 2
    11   11   10 1
    12   12   10 1
    13   13   12 1
    14   14   13 1
    15   15    3 1
    16   16   15 1
    17   17   16 2
    18   18   17 1
    19   19   18 2
    20   20   13 1
    21   21   15 1
    22   22    6 1
    23   23    4 1
    24   24   21 1
    25   25   21 1
    26   26   15 1
    27   27   16 1
    28   28   17 1
    29   29   19 1
    30   30   20 1
    31   31   18 1
    32   32   22 1
    33   33   22 1
    34   34   22 1
    35   35   23 1
    36   36   23 1
    37   37   23 1
    38   19   20 1
    39   20   21 1
@<TRIPOS>SUBSTRUCTURE
     1 RES1 1

@<TRIPOS>CRYSIN
  28.5540   10.5940    9.5200  90.0000  90.0000  90.0000  61 1

