# MOL2 file generated by ConQuest
# Please check atom types

@<TRIPOS>MOLECULE
UDEKET
    84    88     2
SMALL
NO_CHARGES
****
Generated from CSD

@<TRIPOS>ATOM
      1 C1         2.2193    4.0983    4.0740 C.3       1 RES1    0.0000
      2 C2         1.2262    4.6672    5.1464 C.3       1 RES1    0.0000
      3 C3         1.9523    5.0960    6.3963 C.2       1 RES1    0.0000
      4 C4         3.2078    4.7849    6.6705 C.2       1 RES1    0.0000
      5 C5         4.0890    4.0093    5.7498 C.3       1 RES1    0.0000
      6 C6         4.9043    2.9295    6.4572 C.3       1 RES1    0.0000
      7 C7         5.1416    1.7307    5.5338 C.3       1 RES1    0.0000
      8 C8         5.1671    2.0877    4.0834 C.2       1 RES1    0.0000
      9 O1         4.1699    2.9282    3.6579 O.3       1 RES1    0.0000
     10 N1         3.2521    3.2973    4.7553 N.3       1 RES1    0.0000
     11 C9         1.5105    3.1598    3.1660 C.1       1 RES1    0.0000
     12 N2         0.9625    2.4414    2.4695 N.1       1 RES1    0.0000
     13 C10        2.7978    5.2729    3.2459 C.2       1 RES1    0.0000
     14 O2         3.6117    6.0327    3.6814 O.2       1 RES1    0.0000
     15 O3         2.2471    5.3347    2.0415 O.3       1 RES1    0.0000
     16 C11        2.7501    6.3737    1.1304 C.3       1 RES1    0.0000
     17 C12        3.9522    5.8570    0.3920 C.3       1 RES1    0.0000
     18 C13        0.0905    3.7058    5.4932 C.ar      1 RES1    0.0000
     19 C14       -1.2328    4.1079    5.3093 C.ar      1 RES1    0.0000
     20 C15       -2.2821    3.2623    5.6399 C.ar      1 RES1    0.0000
     21 C16       -2.0178    2.0030    6.1491 C.ar      1 RES1    0.0000
     22 C17       -0.7092    1.5945    6.3283 C.ar      1 RES1    0.0000
     23 C18        0.3371    2.4408    6.0054 C.ar      1 RES1    0.0000
     24 O4         5.9584    1.7243    3.2582 O.2       1 RES1    0.0000
     25 C19       -1.5688    5.4136   11.4011 C.3       2 RES2    0.0000
     26 C20       -0.5831    5.0051   10.2572 C.3       2 RES2    0.0000
     27 C21       -1.3194    4.7843    8.9608 C.2       2 RES2    0.0000
     28 C22       -2.5513    5.1889    8.7253 C.2       2 RES2    0.0000
     29 C23       -3.4222    5.8201    9.7650 C.3       2 RES2    0.0000
     30 C24       -4.1880    7.0450    9.2773 C.3       2 RES2    0.0000
     31 C25       -5.0260    7.6253   10.4293 C.3       2 RES2    0.0000
     32 C26       -4.5717    7.3218   11.8185 C.2       2 RES2    0.0000
     33 O5        -3.4586    6.5512   12.0285 O.3       2 RES2    0.0000
     34 N3        -2.5780    6.3400   10.8615 N.3       2 RES2    0.0000
     35 C27       -0.8325    6.1765   12.4448 C.1       2 RES2    0.0000
     36 N4        -0.2590    6.7708   13.2341 N.1       2 RES2    0.0000
     37 C28       -2.2082    4.1442   12.0202 C.2       2 RES2    0.0000
     38 O6        -2.8746    3.3895   11.3786 O.2       2 RES2    0.0000
     39 O7        -1.8980    4.0182   13.2998 O.3       2 RES2    0.0000
     40 C29       -2.4727    2.8525   13.9786 C.3       2 RES2    0.0000
     41 C30       -1.8648    2.8035   15.3479 C.3       2 RES2    0.0000
     42 C31        0.5554    5.9951   10.0352 C.ar      2 RES2    0.0000
     43 C32        1.8741    5.5981   10.2141 C.ar      2 RES2    0.0000
     44 C33        2.9186    6.4704    9.9412 C.ar      2 RES2    0.0000
     45 C34        2.6547    7.7487    9.4971 C.ar      2 RES2    0.0000
     46 C35        1.3436    8.1591    9.3151 C.ar      2 RES2    0.0000
     47 C36        0.3002    7.2830    9.5779 C.ar      2 RES2    0.0000
     48 O8        -5.1675    7.6527   12.8101 O.2       2 RES2    0.0000
     49 H1         0.8079    5.4867    4.7540 H         1 RES1    0.0000
     50 H2         1.4773    5.6235    7.0282 H         1 RES1    0.0000
     51 H3         3.5694    5.0712    7.5016 H         1 RES1    0.0000
     52 H4         4.7069    4.6354    5.2761 H         1 RES1    0.0000
     53 H5         4.4225    2.6311    7.2687 H         1 RES1    0.0000
     54 H6         5.7761    3.3062    6.7390 H         1 RES1    0.0000
     55 H7         6.0045    1.3076    5.7739 H         1 RES1    0.0000
     56 H8         4.4260    1.0632    5.6856 H         1 RES1    0.0000
     57 H9         2.9963    7.1812    1.6471 H         1 RES1    0.0000
     58 H10        2.0436    6.6238    0.4841 H         1 RES1    0.0000
     59 H11        4.1925    6.4851   -0.3212 H         1 RES1    0.0000
     60 H12        3.7448    4.9828    0.0000 H         1 RES1    0.0000
     61 H13        4.7046    5.7661    1.0138 H         1 RES1    0.0000
     62 H14       -1.4176    4.9688    4.9534 H         1 RES1    0.0000
     63 H15       -3.1791    3.5467    5.5166 H         1 RES1    0.0000
     64 H16       -2.7337    1.4208    6.3752 H         1 RES1    0.0000
     65 H17       -0.5276    0.7286    6.6750 H         1 RES1    0.0000
     66 H18        1.2324    2.1526    6.1362 H         1 RES1    0.0000
     67 H19       -0.1712    4.1321   10.5172 H         2 RES2    0.0000
     68 H20       -0.8643    4.3223    8.2658 H         2 RES2    0.0000
     69 H21       -2.9033    5.0738    7.8502 H         2 RES2    0.0000
     70 H22       -4.0636    5.1425   10.1244 H         2 RES2    0.0000
     71 H23       -4.7816    6.7911    8.5276 H         2 RES2    0.0000
     72 H24       -3.5504    7.7290    8.9493 H         2 RES2    0.0000
     73 H25       -5.0535    8.6090   10.3238 H         2 RES2    0.0000
     74 H26       -5.9542    7.2932   10.3315 H         2 RES2    0.0000
     75 H27       -2.2628    2.0240   13.4795 H         2 RES2    0.0000
     76 H28       -3.4558    2.9409   14.0412 H         2 RES2    0.0000
     77 H29       -2.2197    2.0310   15.8359 H         2 RES2    0.0000
     78 H30       -2.0865    3.6262   15.8328 H         2 RES2    0.0000
     79 H31       -0.8918    2.7220   15.2711 H         2 RES2    0.0000
     80 H32        2.0632    4.7213   10.5263 H         2 RES2    0.0000
     81 H33        3.8171    6.1860   10.0605 H         2 RES2    0.0000
     82 H34        3.3700    8.3469    9.3161 H         2 RES2    0.0000
     83 H35        1.1590    9.0398    9.0102 H         2 RES2    0.0000
     84 H36       -0.5959    7.5661    9.4440 H         2 RES2    0.0000
@<TRIPOS>BOND
     1    1    2 1
     2    2    3 1
     3    3    4 2
     4    4    5 1
     5    5    6 1
     6    6    7 1
     7    7    8 1
     8    8    9 1
     9    9   10 1
    10   10    1 1
    11   11    1 1
    12   12   11 3
    13   13    1 1
    14   14   13 2
    15   15   13 1
    16   16   15 1
    17   17   16 1
    18   18    2 1
    19   19   18 ar
    20   20   19 ar
    21   21   20 ar
    22   22   21 ar
    23   23   18 ar
    24   24    8 2
    25   25   26 1
    26   26   27 1
    27   27   28 2
    28   28   29 1
    29   29   30 1
    30   30   31 1
    31   31   32 1
    32   32   33 1
    33   33   34 1
    34   34   25 1
    35   35   25 1
    36   36   35 3
    37   37   25 1
    38   38   37 2
    39   39   37 1
    40   40   39 1
    41   41   40 1
    42   42   26 1
    43   43   42 ar
    44   44   43 ar
    45   45   44 ar
    46   46   45 ar
    47   47   42 ar
    48   48   32 2
    49   49    2 1
    50   50    3 1
    51   51    4 1
    52   52    5 1
    53   53    6 1
    54   54    6 1
    55   55    7 1
    56   56    7 1
    57   57   16 1
    58   58   16 1
    59   59   17 1
    60   60   17 1
    61   61   17 1
    62   62   19 1
    63   63   20 1
    64   64   21 1
    65   65   22 1
    66   66   23 1
    67   67   26 1
    68   68   27 1
    69   69   28 1
    70   70   29 1
    71   71   30 1
    72   72   30 1
    73   73   31 1
    74   74   31 1
    75   75   40 1
    76   76   40 1
    77   77   41 1
    78   78   41 1
    79   79   41 1
    80   80   43 1
    81   81   44 1
    82   82   45 1
    83   83   46 1
    84   84   47 1
    85    5   10 1
    86   22   23 ar
    87   29   34 1
    88   46   47 ar
@<TRIPOS>SUBSTRUCTURE
     1 RES1 1
     2 RES2 25

