# MOL2 file generated by ConQuest
# Please check atom types

@<TRIPOS>MOLECULE
UDEKAP
    29    30     1
SMALL
NO_CHARGES
****
Generated from CSD

@<TRIPOS>ATOM
      1 C1        14.1494   -0.4394   -0.0432 C.3       1 RES1    0.0000
      2 C2        14.7264   -0.0924    1.2816 C.1       1 RES1    0.0000
      3 N1        15.1414    0.1501    2.3080 N.1       1 RES1    0.0000
      4 C3        14.4433    0.7352   -0.9880 C.2       1 RES1    0.0000
      5 O1        15.1414    1.6520   -0.6897 O.2       1 RES1    0.0000
      6 O2        13.8360    0.5742   -2.1420 O.3       1 RES1    0.0000
      7 C4        14.0003    1.6520   -3.1128 C.3       1 RES1    0.0000
      8 C5        13.2438    1.2790   -4.3195 C.3       1 RES1    0.0000
      9 C6        14.7783   -1.7444   -0.5449 C.3       1 RES1    0.0000
     10 C7        14.2942   -2.8983    0.2695 C.2       1 RES1    0.0000
     11 C8        13.1574   -2.8788    0.9180 C.2       1 RES1    0.0000
     12 C9        12.2043   -1.7325    0.8796 C.3       1 RES1    0.0000
     13 C10       11.8736   -1.0702    2.2063 C.3       1 RES1    0.0000
     14 C11       11.6943    0.3643    1.8475 C.2       1 RES1    0.0000
     15 O3        11.2490    1.2790    2.4701 O.2       1 RES1    0.0000
     16 O4        12.1373    0.5840    0.5669 O.3       1 RES1    0.0000
     17 N2        12.6949   -0.6395   -0.0029 N.3       1 RES1    0.0000
     18 H1        14.9404    1.7684   -3.3286 H         1 RES1    0.0000
     19 H2        13.6631    2.4851   -2.7492 H         1 RES1    0.0000
     20 H3        13.7777    0.6971   -4.8653 H         1 RES1    0.0000
     21 H4        13.0234    2.0707   -4.8164 H         1 RES1    0.0000
     22 H5        12.4355    0.8276   -4.0643 H         1 RES1    0.0000
     23 H6        14.5427   -1.8826   -1.4753 H         1 RES1    0.0000
     24 H7        15.7443   -1.6857   -0.4835 H         1 RES1    0.0000
     25 H8        14.8237   -3.6629    0.3185 H         1 RES1    0.0000
     26 H9        12.9326   -3.6205    1.4312 H         1 RES1    0.0000
     27 H10       11.3636   -2.0620    0.4988 H         1 RES1    0.0000
     28 H11       11.0610   -1.4388    2.5852 H         1 RES1    0.0000
     29 H12       12.5976   -1.1822    2.8413 H         1 RES1    0.0000
@<TRIPOS>BOND
     1    1    2 1
     2    2    3 3
     3    4    1 1
     4    5    4 2
     5    6    4 1
     6    7    6 1
     7    8    7 1
     8    9    1 1
     9   10    9 1
    10   11   10 2
    11   12   11 1
    12   13   12 1
    13   14   13 1
    14   15   14 2
    15   16   14 1
    16   17    1 1
    17   18    7 1
    18   19    7 1
    19   20    8 1
    20   21    8 1
    21   22    8 1
    22   23    9 1
    23   24    9 1
    24   25   10 1
    25   26   11 1
    26   27   12 1
    27   28   13 1
    28   29   13 1
    29   12   17 1
    30   16   17 1
@<TRIPOS>SUBSTRUCTURE
     1 RES1 1

@<TRIPOS>CRYSIN
  21.6120   10.8756    9.5925  90.0000  90.0000  90.0000  61 1

