# MOL2 file generated by ConQuest
# Please check atom types

@<TRIPOS>MOLECULE
UDIDIW
    50    54     2
SMALL
NO_CHARGES
****
Generated from CSD

@<TRIPOS>ATOM
      1 O1        14.2725    0.5851  -18.3119 O.3       1 RES1    0.0000
      2 N1        16.8338   -2.5165  -19.2908 N.ar      1 RES1    0.0000
      3 N2        15.1487   -0.5349  -18.4030 N.2       1 RES1    0.0000
      4 N3        12.5960    2.6762  -18.8004 N.ar      1 RES1    0.0000
      5 N4        14.6774    0.1970  -20.4687 N.2       1 RES1    0.0000
      6 C1        17.6153   -3.4972  -19.7424 C.ar      1 RES1    0.0000
      7 H1        18.0657   -4.0381  -19.1054 H         1 RES1    0.0000
      8 C2        17.8107   -3.7754  -21.0924 C.ar      1 RES1    0.0000
      9 H2        18.3731   -4.4903  -21.3687 H         1 RES1    0.0000
     10 C3        17.1606   -2.9812  -22.0203 C.ar      1 RES1    0.0000
     11 H3        17.2724   -3.1405  -22.9505 H         1 RES1    0.0000
     12 C4        16.3439   -1.9499  -21.5794 C.ar      1 RES1    0.0000
     13 H4        15.8879   -1.3884  -22.1960 H         1 RES1    0.0000
     14 C5        16.2126   -1.7641  -20.2128 C.ar      1 RES1    0.0000
     15 C6        15.3389   -0.6915  -19.6999 C.2       1 RES1    0.0000
     16 C7        14.0479    0.9401  -19.5685 C.2       1 RES1    0.0000
     17 C8        13.1875    2.0986  -19.8650 C.ar      1 RES1    0.0000
     18 C9        13.0547    2.5380  -21.1640 C.ar      1 RES1    0.0000
     19 H5        13.4979    2.0952  -21.8788 H         1 RES1    0.0000
     20 C10       12.2481    3.6558  -21.4002 C.ar      1 RES1    0.0000
     21 H6        12.1423    3.9994  -22.2796 H         1 RES1    0.0000
     22 C11       11.6115    4.2473  -20.3343 C.ar      1 RES1    0.0000
     23 H7        11.0449    4.9993  -20.4664 H         1 RES1    0.0000
     24 C12       11.8078    3.7313  -19.0659 C.ar      1 RES1    0.0000
     25 H8        11.3592    4.1471  -18.3402 H         1 RES1    0.0000
     26 O2         7.9895    1.9031  -16.9344 O.3       2 RES2    0.0000
     27 N5        10.2190    5.3638  -16.5849 N.ar      2 RES2    0.0000
     28 N6         8.8609    3.0296  -17.0527 N.2       2 RES2    0.0000
     29 N7         6.3195   -0.0593  -16.1020 N.ar      2 RES2    0.0000
     30 N8         8.3834    2.6969  -14.8831 N.2       2 RES2    0.0000
     31 C13       11.0003    6.4359  -16.3446 C.ar      2 RES2    0.0000
     32 H9        11.2675    6.9717  -17.0821 H         2 RES2    0.0000
     33 C14       11.4316    6.7940  -15.0837 C.ar      2 RES2    0.0000
     34 H10       11.9792    7.5603  -14.9624 H         2 RES2    0.0000
     35 C15       11.0567    6.0253  -13.9981 C.ar      2 RES2    0.0000
     36 H11       11.3371    6.2536  -13.1191 H         2 RES2    0.0000
     37 C16       10.2590    4.9102  -14.2247 C.ar      2 RES2    0.0000
     38 H12        9.9867    4.3562  -13.5028 H         2 RES2    0.0000
     39 C17        9.8667    4.6196  -15.5226 C.ar      2 RES2    0.0000
     40 C18        9.0352    3.4425  -15.8124 C.2       2 RES2    0.0000
     41 C19        7.7600    1.7879  -15.6268 C.2       2 RES2    0.0000
     42 C20        6.8575    0.7331  -15.1514 C.ar      2 RES2    0.0000
     43 C21        6.5684    0.6179  -13.7988 C.ar      2 RES2    0.0000
     44 H13        6.9885    1.1816  -13.1599 H         2 RES2    0.0000
     45 C22        5.6509   -0.3409  -13.4055 C.ar      2 RES2    0.0000
     46 H14        5.4172   -0.4386  -12.4890 H         2 RES2    0.0000
     47 C23        5.0806   -1.1514  -14.3629 C.ar      2 RES2    0.0000
     48 H15        4.4489   -1.8156  -14.1136 H         2 RES2    0.0000
     49 C24        5.4382   -0.9896  -15.6905 C.ar      2 RES2    0.0000
     50 H16        5.0434   -1.5611  -16.3405 H         2 RES2    0.0000
@<TRIPOS>BOND
     1    1    3 1
     2    2    6 ar
     3    3   15 2
     4    4   17 ar
     5    5   15 1
     6    6    7 1
     7    8    6 ar
     8    9    8 1
     9   10    8 ar
    10   11   10 1
    11   12   10 ar
    12   13   12 1
    13   14    2 ar
    14   15   14 1
    15   16    1 1
    16   17   16 1
    17   18   17 ar
    18   19   18 1
    19   20   18 ar
    20   21   20 1
    21   22   20 ar
    22   23   22 1
    23   24    4 ar
    24   25   24 1
    25   26   28 1
    26   27   31 ar
    27   28   40 2
    28   29   42 ar
    29   30   40 1
    30   31   32 1
    31   33   31 ar
    32   34   33 1
    33   35   33 ar
    34   36   35 1
    35   37   35 ar
    36   38   37 1
    37   39   27 ar
    38   40   39 1
    39   41   26 1
    40   42   41 1
    41   43   42 ar
    42   44   43 1
    43   45   43 ar
    44   46   45 1
    45   47   45 ar
    46   48   47 1
    47   49   29 ar
    48   50   49 1
    49    5   16 2
    50   12   14 ar
    51   22   24 ar
    52   30   41 2
    53   37   39 ar
    54   47   49 ar
@<TRIPOS>SUBSTRUCTURE
     1 RES1 1
     2 RES2 26

@<TRIPOS>CRYSIN
  16.9870   22.7240   21.4330  90.0000  90.0000  90.0000  43 1

