# MOL2 file generated by ConQuest
# Please check atom types

@<TRIPOS>MOLECULE
UDOMUW
    36    36     1
SMALL
NO_CHARGES
****
Generated from CSD

@<TRIPOS>ATOM
      1 O1         5.2680    3.1818    7.4701 O.2       1 RES1    0.0000
      2 O2         3.3670   -2.9194    8.8378 O.2       1 RES1    0.0000
      3 N1         5.4042    1.9306    7.7432 N.3       1 RES1    0.0000
      4 N2         5.4947   -2.2551    8.5038 N.am      1 RES1    0.0000
      5 C1         5.7656    1.0482    6.5922 C.3       1 RES1    0.0000
      6 C2         6.1205   -0.3598    7.0896 C.3       1 RES1    0.0000
      7 C3         5.1350   -0.8880    8.1140 C.3       1 RES1    0.0000
      8 C4         5.1522    0.0324    9.3169 C.3       1 RES1    0.0000
      9 C5         4.7234    1.4620    8.9929 C.3       1 RES1    0.0000
     10 C6         6.9757    1.6565    5.8860 C.3       1 RES1    0.0000
     11 C7         4.5872    1.0103    5.6159 C.3       1 RES1    0.0000
     12 C8         5.1413    2.3902   10.1329 C.3       1 RES1    0.0000
     13 C9         3.1999    1.5398    8.7984 C.3       1 RES1    0.0000
     14 C10        4.5769   -3.1553    8.8623 C.2       1 RES1    0.0000
     15 C11        5.1072   -4.4985    9.2929 C.3       1 RES1    0.0000
     16 H1         7.0482   -0.3631    7.6250 H         1 RES1    0.0000
     17 H2         6.1410   -0.9142    6.1915 H         1 RES1    0.0000
     18 H3         4.1591   -0.9822    7.7761 H         1 RES1    0.0000
     19 H4         6.1517    0.0681    9.6762 H         1 RES1    0.0000
     20 H5         4.5158   -0.3425   10.0318 H         1 RES1    0.0000
     21 H6         7.6854    1.6695    6.5116 H         1 RES1    0.0000
     22 H7         6.7342    2.6096    5.5448 H         1 RES1    0.0000
     23 H8         7.1479    1.0211    5.0459 H         1 RES1    0.0000
     24 H9         4.3707    2.0066    5.2737 H         1 RES1    0.0000
     25 H10        3.7744    0.6451    6.1738 H         1 RES1    0.0000
     26 H11        4.7387    0.3425    4.7848 H         1 RES1    0.0000
     27 H12        6.2089    2.3297   10.3474 H         1 RES1    0.0000
     28 H13        4.9872    3.4103    9.8251 H         1 RES1    0.0000
     29 H14        4.6480    2.1028   10.9363 H         1 RES1    0.0000
     30 H15        2.9099    2.5113    8.4884 H         1 RES1    0.0000
     31 H16        2.7226    1.3334    9.7107 H         1 RES1    0.0000
     32 H17        2.8764    0.9012    8.0105 H         1 RES1    0.0000
     33 H18        6.5425   -2.4486    8.6039 H         1 RES1    0.0000
     34 H19        6.0845   -4.4758    9.3818 H         1 RES1    0.0000
     35 H20        4.9254   -5.1457    8.5595 H         1 RES1    0.0000
     36 H21        4.6989   -4.7567   10.1818 H         1 RES1    0.0000
@<TRIPOS>BOND
     1    1    3 1
     2    2   14 2
     3    3    5 1
     4    4    7 1
     5    5    6 1
     6    6    7 1
     7    7    8 1
     8    8    9 1
     9    9    3 1
    10   10    5 1
    11   11    5 1
    12   12    9 1
    13   13    9 1
    14   14    4 1
    15   15   14 1
    16   16    6 1
    17   17    6 1
    18   18    7 1
    19   19    8 1
    20   20    8 1
    21   21   10 1
    22   22   10 1
    23   23   10 1
    24   24   11 1
    25   25   11 1
    26   26   11 1
    27   27   12 1
    28   28   12 1
    29   29   12 1
    30   30   13 1
    31   31   13 1
    32   32   13 1
    33   33    4 1
    34   34   15 1
    35   35   15 1
    36   36   15 1
@<TRIPOS>SUBSTRUCTURE
     1 RES1 1

@<TRIPOS>CRYSIN
  10.2123   10.8058   11.8824  90.0000 110.7470  90.0000  14 2

