# MOL2 file generated by ConQuest
# Please check atom types

@<TRIPOS>MOLECULE
UDOQEL
    28    29     1
SMALL
NO_CHARGES
****
Generated from CSD

@<TRIPOS>ATOM
      1 O1         3.5364    1.0980    4.8178 O.3       1 RES1    0.0000
      2 N1         4.6802    0.6780    4.0102 N.3       1 RES1    0.0000
      3 H1         4.9646   -0.0849    4.4112 H         1 RES1    0.0000
      4 C1         4.1086    0.2303    2.7485 C.3       1 RES1    0.0000
      5 H2         4.6855   -0.4805    2.3450 H         1 RES1    0.0000
      6 C2         2.7391   -0.3554    3.1211 C.3       1 RES1    0.0000
      7 H3         2.1061   -0.3034    2.3624 H         1 RES1    0.0000
      8 H4         2.8183   -1.2972    3.4147 H         1 RES1    0.0000
      9 C3         2.3051    0.5484    4.2666 C.3       1 RES1    0.0000
     10 H5         1.7584    1.2978    3.8938 H         1 RES1    0.0000
     11 C4         3.9730    1.3940    1.7856 C.2       1 RES1    0.0000
     12 O2         4.1082    2.5435    2.0605 O.2       1 RES1    0.0000
     13 O3         3.6443    0.9537    0.5659 O.3       1 RES1    0.0000
     14 C5         3.4359    1.9832   -0.4392 C.3       1 RES1    0.0000
     15 H6         2.5477    2.3805   -0.3206 H         1 RES1    0.0000
     16 H7         3.4994    1.5853   -1.3328 H         1 RES1    0.0000
     17 H8         4.1203    2.6776   -0.3415 H         1 RES1    0.0000
     18 C6         1.5160   -0.1290    5.3565 C.ar      1 RES1    0.0000
     19 C7         1.9734   -1.2955    5.9678 C.ar      1 RES1    0.0000
     20 H9         2.7965   -1.6843    5.6952 H         1 RES1    0.0000
     21 C8         1.2278   -1.8858    6.9717 C.ar      1 RES1    0.0000
     22 H10        1.5421   -2.6810    7.3869 H         1 RES1    0.0000
     23 C9         0.0209   -1.3266    7.3804 C.ar      1 RES1    0.0000
     24 H11       -0.4843   -1.7364    8.0733 H         1 RES1    0.0000
     25 C10       -0.4380   -0.1811    6.7801 C.ar      1 RES1    0.0000
     26 H12       -1.2634    0.2026    7.0541 H         1 RES1    0.0000
     27 C11        0.3082    0.4171    5.7692 C.ar      1 RES1    0.0000
     28 H13       -0.0131    1.2100    5.3555 H         1 RES1    0.0000
@<TRIPOS>BOND
     1    1    2 1
     2    2    3 1
     3    4    2 1
     4    5    4 1
     5    6    4 1
     6    7    6 1
     7    8    6 1
     8    9    1 1
     9   10    9 1
    10   11    4 1
    11   12   11 2
    12   13   11 1
    13   14   13 1
    14   15   14 1
    15   16   14 1
    16   17   14 1
    17   18    9 1
    18   19   18 ar
    19   20   19 1
    20   21   19 ar
    21   22   21 1
    22   23   21 ar
    23   24   23 1
    24   25   23 ar
    25   26   25 1
    26   27   18 ar
    27   28   27 1
    28    6    9 1
    29   25   27 ar
@<TRIPOS>SUBSTRUCTURE
     1 RES1 1

@<TRIPOS>CRYSIN
  10.3708    5.6597   17.4238  90.0000  90.8610  90.0000  14 1

