# MOL2 file generated by ConQuest
# Please check atom types

@<TRIPOS>MOLECULE
UDOQIP
    70    74     2
SMALL
NO_CHARGES
****
Generated from CSD

@<TRIPOS>ATOM
      1 C1        11.1486    5.1686    4.6171 C.3       1 RES1    0.0000
      2 H1        10.5773    5.9507    4.3670 H         1 RES1    0.0000
      3 C2        11.7119    4.4669    3.3745 C.3       1 RES1    0.0000
      4 H2        11.6389    5.0581    2.5843 H         1 RES1    0.0000
      5 H3        11.2091    3.6340    3.1932 H         1 RES1    0.0000
      6 C3        13.1942    4.1444    3.6679 C.3       1 RES1    0.0000
      7 H4        13.3111    3.1888    3.8985 H         1 RES1    0.0000
      8 H5        13.7652    4.3595    2.8888 H         1 RES1    0.0000
      9 C4        13.5228    5.0277    4.8400 C.ar      1 RES1    0.0000
     10 C5        14.7336    5.3245    5.4504 C.ar      1 RES1    0.0000
     11 H6        15.5435    4.9339    5.1416 H         1 RES1    0.0000
     12 C6        14.7325    6.2003    6.5159 C.ar      1 RES1    0.0000
     13 H7        15.5478    6.4378    6.9428 H         1 RES1    0.0000
     14 C7        13.5279    6.7318    6.9587 C.ar      1 RES1    0.0000
     15 H8        13.5460    7.3356    7.6921 H         1 RES1    0.0000
     16 N1        12.3464    6.4397    6.4092 N.ar      1 RES1    0.0000
     17 C8        12.3764    5.6049    5.3701 C.ar      1 RES1    0.0000
     18 O1        10.4257    4.2392    5.4858 O.3       1 RES1    0.0000
     19 C9         9.1273    4.0422    5.2138 C.2       1 RES1    0.0000
     20 O2         8.5075    4.6110    4.3534 O.2       1 RES1    0.0000
     21 C10        8.5352    3.0204    6.1340 C.ar      1 RES1    0.0000
     22 C11        7.1706    2.7329    6.0341 C.ar      1 RES1    0.0000
     23 H9         6.6230    3.1953    5.4105 H         1 RES1    0.0000
     24 C12        6.6378    1.7638    6.8598 C.ar      1 RES1    0.0000
     25 C13        7.3860    1.0732    7.8040 C.ar      1 RES1    0.0000
     26 H10        7.0014    0.4092    8.3635 H         1 RES1    0.0000
     27 C14        8.7246    1.4092    7.8815 C.ar      1 RES1    0.0000
     28 C15        9.3238    2.3587    7.0758 C.ar      1 RES1    0.0000
     29 H11       10.2497    2.5561    7.1610 H         1 RES1    0.0000
     30 N2         5.2034    1.4432    6.7571 N.pl3     1 RES1    0.0000
     31 O3         4.5131    2.1506    6.0442 O.2       1 RES1    0.0000
     32 O4         4.7811    0.4848    7.3974 O.2       1 RES1    0.0000
     33 N3         9.5655    0.7036    8.8638 N.pl3     1 RES1    0.0000
     34 O5         9.0994   -0.2949    9.4052 O.2       1 RES1    0.0000
     35 O6        10.6781    1.1605    9.0882 O.2       1 RES1    0.0000
     36 C16        2.5599    4.8938    3.8139 C.3       2 RES2    0.0000
     37 H12        3.0840    5.7230    4.0118 H         2 RES2    0.0000
     38 C17        2.0151    4.2308    5.0763 C.3       2 RES2    0.0000
     39 H13        1.8819    4.9017    5.7927 H         2 RES2    0.0000
     40 H14        2.6410    3.5378    5.4037 H         2 RES2    0.0000
     41 C18        0.6646    3.5943    4.6731 C.3       2 RES2    0.0000
     42 H15        0.7750    2.6377    4.4431 H         2 RES2    0.0000
     43 H16        0.0001    3.6778    5.4003 H         2 RES2    0.0000
     44 C19        0.2567    4.3964    3.4717 C.ar      2 RES2    0.0000
     45 C20       -0.9485    4.4743    2.7995 C.ar      2 RES2    0.0000
     46 H17       -1.6825    3.9219    3.0410 H         2 RES2    0.0000
     47 C21       -1.0464    5.3856    1.7628 C.ar      2 RES2    0.0000
     48 H18       -1.8663    5.4906    1.2955 H         2 RES2    0.0000
     49 C22        0.0628    6.1467    1.4095 C.ar      2 RES2    0.0000
     50 H19       -0.0361    6.7812    0.7087 H         2 RES2    0.0000
     51 N4         1.2612    6.0384    1.9976 N.ar      2 RES2    0.0000
     52 C23        1.3133    5.1747    3.0129 C.ar      2 RES2    0.0000
     53 O7         3.3150    3.9326    2.9978 O.3       2 RES2    0.0000
     54 C24        4.6321    3.8449    3.2099 C.2       2 RES2    0.0000
     55 O8         5.2546    4.5065    3.9996 O.2       2 RES2    0.0000
     56 C25        5.2503    2.8281    2.2993 C.ar      2 RES2    0.0000
     57 C26        6.6353    2.6401    2.3690 C.ar      2 RES2    0.0000
     58 H20        7.1657    3.1445    2.9750 H         2 RES2    0.0000
     59 C27        7.2101    1.7008    1.5330 C.ar      2 RES2    0.0000
     60 C28        6.4936    0.9580    0.6107 C.ar      2 RES2    0.0000
     61 H21        6.9130    0.3215    0.0440 H         2 RES2    0.0000
     62 C29        5.1296    1.1973    0.5629 C.ar      2 RES2    0.0000
     63 C30        4.4833    2.1053    1.3872 C.ar      2 RES2    0.0000
     64 H22        3.5434    2.2318    1.3311 H         2 RES2    0.0000
     65 N5         8.6698    1.4829    1.6056 N.pl3     2 RES2    0.0000
     66 O9         9.3290    2.2705    2.2691 O.2       2 RES2    0.0000
     67 O10        9.1423    0.5371    0.9859 O.2       2 RES2    0.0000
     68 N6         4.3310    0.4549   -0.4242 N.pl3     2 RES2    0.0000
     69 O11        4.8658   -0.4853   -1.0041 O.2       2 RES2    0.0000
     70 O12        3.1791    0.8156   -0.6131 O.2       2 RES2    0.0000
@<TRIPOS>BOND
     1    1    2 1
     2    3    1 1
     3    4    3 1
     4    5    3 1
     5    6    3 1
     6    7    6 1
     7    8    6 1
     8    9    6 1
     9   10    9 ar
    10   11   10 1
    11   12   10 ar
    12   13   12 1
    13   14   12 ar
    14   15   14 1
    15   16   14 ar
    16   17    1 1
    17   18    1 1
    18   19   18 1
    19   20   19 2
    20   21   19 1
    21   22   21 ar
    22   23   22 1
    23   24   22 ar
    24   25   24 ar
    25   26   25 1
    26   27   25 ar
    27   28   21 ar
    28   29   28 1
    29   30   24 1
    30   31   30 2
    31   32   30 2
    32   33   27 1
    33   34   33 2
    34   35   33 2
    35   36   37 1
    36   38   36 1
    37   39   38 1
    38   40   38 1
    39   41   38 1
    40   42   41 1
    41   43   41 1
    42   44   41 1
    43   45   44 ar
    44   46   45 1
    45   47   45 ar
    46   48   47 1
    47   49   47 ar
    48   50   49 1
    49   51   49 ar
    50   52   36 1
    51   53   36 1
    52   54   53 1
    53   55   54 2
    54   56   54 1
    55   57   56 ar
    56   58   57 1
    57   59   57 ar
    58   60   59 ar
    59   61   60 1
    60   62   60 ar
    61   63   56 ar
    62   64   63 1
    63   65   59 1
    64   66   65 2
    65   67   65 2
    66   68   62 1
    67   69   68 2
    68   70   68 2
    69    9   17 ar
    70   16   17 ar
    71   27   28 ar
    72   44   52 ar
    73   51   52 ar
    74   62   63 ar
@<TRIPOS>SUBSTRUCTURE
     1 RES1 1
     2 RES2 36

@<TRIPOS>CRYSIN
  17.8786    4.6661   18.6319  90.0000 114.8040  90.0000   4 1

