# MOL2 file generated by ConQuest
# Please check atom types

@<TRIPOS>MOLECULE
UDOYOC
    70    73     1
SMALL
NO_CHARGES
****
Generated from CSD

@<TRIPOS>ATOM
      1 C1         5.4267    0.6238   37.1041 C.ar      1 RES1    0.0000
      2 H1         5.9556    1.1679   37.6750 H         1 RES1    0.0000
      3 C2         5.8124   -0.6709   36.7995 C.ar      1 RES1    0.0000
      4 C3         5.1071   -1.4848   35.9335 C.ar      1 RES1    0.0000
      5 H2         5.3977   -2.3658   35.7267 H         1 RES1    0.0000
      6 C4         3.9582   -0.9513   35.3839 C.ar      1 RES1    0.0000
      7 C5         3.5012    0.3223   35.6758 C.ar      1 RES1    0.0000
      8 H3         2.7003    0.6535   35.2869 H         1 RES1    0.0000
      9 C6         4.2465    1.1052   36.5550 C.ar      1 RES1    0.0000
     10 C7         3.8074    2.4872   36.9278 C.2       1 RES1    0.0000
     11 C8         1.9487    3.9482   36.8542 C.3       1 RES1    0.0000
     12 H4         2.6643    4.5984   37.0667 H         1 RES1    0.0000
     13 H5         1.2487    4.0073   37.5517 H         1 RES1    0.0000
     14 C9         1.3612    4.2410   35.4924 C.3       1 RES1    0.0000
     15 H6         0.5962    3.6188   35.3239 H         1 RES1    0.0000
     16 C10        0.8902    5.6985   35.2594 C.3       1 RES1    0.0000
     17 H7        -0.0916    5.7040   35.0691 H         1 RES1    0.0000
     18 C11        1.6616    6.1260   33.9938 C.3       1 RES1    0.0000
     19 H8         2.5002    6.5853   34.2881 H         1 RES1    0.0000
     20 C12        2.0502    4.7963   33.3818 C.3       1 RES1    0.0000
     21 C13        3.1921    4.7135   32.3793 C.3       1 RES1    0.0000
     22 H9         4.0707    4.6728   32.8331 H         1 RES1    0.0000
     23 H10        3.1822    5.4809   31.7562 H         1 RES1    0.0000
     24 C14        2.8743    3.4018   31.6584 C.3       1 RES1    0.0000
     25 H11        3.2460    2.6272   32.1508 H         1 RES1    0.0000
     26 H12        3.2414    3.4042   30.7409 H         1 RES1    0.0000
     27 C15        1.3356    3.3526   31.6370 C.3       1 RES1    0.0000
     28 C16        0.8015    1.9725   31.9321 C.3       1 RES1    0.0000
     29 H13       -0.1780    1.9988   31.9576 H         1 RES1    0.0000
     30 H14        1.1425    1.6691   32.8002 H         1 RES1    0.0000
     31 H15        1.0932    1.3526   31.2301 H         1 RES1    0.0000
     32 C17        0.7568    3.9401   30.3595 C.3       1 RES1    0.0000
     33 H16       -0.2111    4.0541   30.4614 H         1 RES1    0.0000
     34 H17        0.9378    3.3358   29.6106 H         1 RES1    0.0000
     35 H18        1.1709    4.8107   30.1819 H         1 RES1    0.0000
     36 C18        0.9024    7.0829   33.0850 C.3       1 RES1    0.0000
     37 H19        1.4418    7.2748   32.2905 H         1 RES1    0.0000
     38 H20        0.7215    7.9163   33.5647 H         1 RES1    0.0000
     39 H21        0.0551    6.6716   32.8125 H         1 RES1    0.0000
     40 C19        1.1941    6.6897   36.3667 C.3       1 RES1    0.0000
     41 H22        2.1667    6.6788   36.5529 H         1 RES1    0.0000
     42 H23        0.9552    7.5997   36.0597 H         1 RES1    0.0000
     43 C20       -0.7568    6.9075   37.6816 C.2       1 RES1    0.0000
     44 C21       -2.5791    7.3001   39.3043 C.ar      1 RES1    0.0000
     45 H24       -2.8934    7.9966   38.7396 H         1 RES1    0.0000
     46 C22       -3.2379    6.9887   40.4704 C.ar      1 RES1    0.0000
     47 C23       -2.8430    5.9638   41.3089 C.ar      1 RES1    0.0000
     48 H25       -3.3342    5.7411   42.0895 H         1 RES1    0.0000
     49 C24       -1.6970    5.2796   40.9534 C.ar      1 RES1    0.0000
     50 C25       -0.9784    5.5522   39.8066 C.ar      1 RES1    0.0000
     51 H26       -0.1937    5.0613   39.5945 H         1 RES1    0.0000
     52 C26       -1.4377    6.5701   38.9689 C.ar      1 RES1    0.0000
     53 N1         7.0407   -1.1968   37.4325 N.pl3     1 RES1    0.0000
     54 N2         3.1590   -1.7950   34.4636 N.pl3     1 RES1    0.0000
     55 N3        -4.4181    7.7926   40.8556 N.pl3     1 RES1    0.0000
     56 N4        -1.2005    4.2218   41.8581 N.pl3     1 RES1    0.0000
     57 O1         7.5870   -0.5047   38.2784 O.2       1 RES1    0.0000
     58 O2         7.4594   -2.2870   37.0589 O.2       1 RES1    0.0000
     59 O3         3.5731   -2.9131   34.2195 O.2       1 RES1    0.0000
     60 O4         2.1256   -1.3209   34.0127 O.2       1 RES1    0.0000
     61 O5         2.4886    2.6031   36.7934 O.3       1 RES1    0.0000
     62 O6         4.5608    3.3442   37.3010 O.2       1 RES1    0.0000
     63 O7         2.3889    3.9994   34.5154 O.3       1 RES1    0.0000
     64 O8         0.9303    4.2434   32.7168 O.3       1 RES1    0.0000
     65 O9         0.4698    6.3956   37.5994 O.3       1 RES1    0.0000
     66 O10       -1.2823    7.5827   36.8254 O.2       1 RES1    0.0000
     67 O11       -4.8746    8.5786   40.0380 O.2       1 RES1    0.0000
     68 O12       -4.8792    7.6182   41.9760 O.2       1 RES1    0.0000
     69 O13       -2.0171    3.6844   42.6041 O.2       1 RES1    0.0000
     70 O14       -0.0104    3.9577   41.8215 O.2       1 RES1    0.0000
@<TRIPOS>BOND
     1    1    2 1
     2    3    1 ar
     3    4    3 ar
     4    5    4 1
     5    6    4 ar
     6    7    6 ar
     7    8    7 1
     8    9    1 ar
     9   10    9 1
    10   11   12 1
    11   13   11 1
    12   14   11 1
    13   15   14 1
    14   16   14 1
    15   17   16 1
    16   18   16 1
    17   19   18 1
    18   20   18 1
    19   21   20 1
    20   22   21 1
    21   23   21 1
    22   24   21 1
    23   25   24 1
    24   26   24 1
    25   27   24 1
    26   28   27 1
    27   29   28 1
    28   30   28 1
    29   31   28 1
    30   32   27 1
    31   33   32 1
    32   34   32 1
    33   35   32 1
    34   36   18 1
    35   37   36 1
    36   38   36 1
    37   39   36 1
    38   40   16 1
    39   41   40 1
    40   42   40 1
    41   43   52 1
    42   44   45 1
    43   46   44 ar
    44   47   46 ar
    45   48   47 1
    46   49   47 ar
    47   50   49 ar
    48   51   50 1
    49   52   44 ar
    50   53    3 1
    51   54    6 1
    52   55   46 1
    53   56   49 1
    54   57   53 2
    55   58   53 2
    56   59   54 2
    57   60   54 2
    58   61   10 1
    59   62   10 2
    60   63   14 1
    61   64   20 1
    62   65   40 1
    63   66   43 2
    64   67   55 2
    65   68   55 2
    66   69   56 2
    67   70   56 2
    68    7    9 ar
    69   11   61 1
    70   20   63 1
    71   27   64 1
    72   43   65 1
    73   50   52 ar
@<TRIPOS>SUBSTRUCTURE
     1 RES1 1

@<TRIPOS>CRYSIN
   5.7996   11.9907   41.1030  90.0000  90.0000  90.0000  19 1

