# MOL2 file generated by ConQuest
# Please check atom types

@<TRIPOS>MOLECULE
UDOZOD
    18    18     1
SMALL
USER_CHARGES
****
Generated from CSD

@<TRIPOS>ATOM
      1 N1         5.2723    6.8107   11.0528 N.pl3     1 RES1    1.0000
      2 N2         6.2007    7.1351   10.2110 N.2       1 RES1    0.0000
      3 O1         4.3319    7.7162   11.3957 O.3       1 RES1    0.0000
      4 O2         6.9570    5.9846   10.0815 O.3       1 RES1    0.0000
      5 C1         5.3065    5.5369   11.5431 C.2       1 RES1   -1.0000
      6 C2         6.4271    4.9494   10.9030 C.2       1 RES1    0.0000
      7 O3         6.9565    3.8631   10.9065 O.2       1 RES1    0.0000
      8 C3         4.4709    4.9272   12.5626 C.2       1 RES1    0.0000
      9 O4         4.7037    3.8134   12.9818 O.2       1 RES1    0.0000
     10 O5         3.4602    5.7040   12.9762 O.3       1 RES1    0.0000
     11 C4         2.6788    5.1558   14.0638 C.3       1 RES1    0.0000
     12 H1         1.9677    5.7860   14.3058 H         1 RES1    0.0000
     13 H2         3.2584    5.0054   14.8387 H         1 RES1    0.0000
     14 H3         2.2804    4.3051   13.7839 H         1 RES1    0.0000
     15 C5         4.3861    8.9301   10.5875 C.3       1 RES1    0.0000
     16 H4         3.6820    9.5471   10.8778 H         1 RES1    0.0000
     17 H5         4.2516    8.7001    9.6441 H         1 RES1    0.0000
     18 H6         5.2608    9.3569   10.6989 H         1 RES1    0.0000
@<TRIPOS>BOND
     1    1    2 2
     2    2    4 1
     3    3    1 1
     4    4    6 1
     5    5    1 1
     6    6    5 1
     7    7    6 2
     8    8    5 1
     9    9    8 2
    10   10    8 1
    11   11   10 1
    12   12   11 1
    13   13   11 1
    14   14   11 1
    15   15    3 1
    16   16   15 1
    17   17   15 1
    18   18   15 1
@<TRIPOS>SUBSTRUCTURE
     1 RES1 1

@<TRIPOS>CRYSIN
   5.0184    7.3717   18.4400  90.0000  90.0000  90.0000  19 1

