# MOL2 file generated by ConQuest
# Please check atom types

@<TRIPOS>MOLECULE
UDUDON
    46    49     1
SMALL
NO_CHARGES
****
Generated from CSD

@<TRIPOS>ATOM
      1 N1        -5.2942   16.3464    8.8236 N.2       1 RES1    0.0000
      2 N2        -4.7213   16.9687    7.8926 N.2       1 RES1    0.0000
      3 N3        -3.7092   16.2628    7.3235 N.3       1 RES1    0.0000
      4 N4        -2.5263   13.2615    9.1377 N.am      1 RES1    0.0000
      5 O1        -3.5549   13.3314   10.1684 O.3       1 RES1    0.0000
      6 O2        -0.3074   12.7683    9.0697 O.2       1 RES1    0.0000
      7 O3        -1.7328   11.6013   10.4125 O.3       1 RES1    0.0000
      8 C1        -3.9150   14.7401   10.2079 C.3       1 RES1    0.0000
      9 H1        -4.3634   15.0199   11.0327 H         1 RES1    0.0000
     10 C2        -4.7324   14.9745    8.9337 C.3       1 RES1    0.0000
     11 H2        -5.4187   14.2872    8.8076 H         1 RES1    0.0000
     12 C3        -3.6411   14.9059    7.8439 C.3       1 RES1    0.0000
     13 H3        -3.8141   14.2206    7.1644 H         1 RES1    0.0000
     14 C4        -2.3617   14.6440    8.6593 C.3       1 RES1    0.0000
     15 H4        -1.5199   14.8309    8.1937 H         1 RES1    0.0000
     16 C5        -2.6028   15.4534    9.9353 C.3       1 RES1    0.0000
     17 H5        -1.9332   15.2989   10.6200 H         1 RES1    0.0000
     18 H6        -2.7096   16.4043    9.7719 H         1 RES1    0.0000
     19 C6        -3.2486   16.6405    6.0072 C.3       1 RES1    0.0000
     20 H7        -2.3003   16.4493    5.9460 H         1 RES1    0.0000
     21 H8        -3.3597   17.5979    5.9053 H         1 RES1    0.0000
     22 C7        -3.9545   15.9489    4.8587 C.ar      1 RES1    0.0000
     23 C8        -5.2600   15.4811    4.9675 C.ar      1 RES1    0.0000
     24 H9        -5.7136   15.5636    5.7752 H         1 RES1    0.0000
     25 C9        -5.8920   14.8921    3.8768 C.ar      1 RES1    0.0000
     26 H10       -6.7617   14.5752    3.9620 H         1 RES1    0.0000
     27 C10       -5.2308   14.7767    2.6633 C.ar      1 RES1    0.0000
     28 H11       -5.6566   14.3880    1.9329 H         1 RES1    0.0000
     29 C11       -3.9299   15.2442    2.5463 C.ar      1 RES1    0.0000
     30 H12       -3.4829   15.1747    1.7343 H         1 RES1    0.0000
     31 C12       -3.2951   15.8164    3.6416 C.ar      1 RES1    0.0000
     32 H13       -2.4176   16.1145    3.5596 H         1 RES1    0.0000
     33 C13       -1.3951   12.5585    9.5542 C.2       1 RES1    0.0000
     34 C14       -0.7348   10.6059   10.8673 C.3       1 RES1    0.0000
     35 C15       -0.1590    9.8606    9.6781 C.3       1 RES1    0.0000
     36 H14       -0.8743    9.5434    9.1215 H         1 RES1    0.0000
     37 H15        0.3593    9.1149    9.9887 H         1 RES1    0.0000
     38 H16        0.4030   10.4507    9.1718 H         1 RES1    0.0000
     39 C16       -1.5800    9.6784   11.7228 C.3       1 RES1    0.0000
     40 H17       -1.9198   10.1627   12.4800 H         1 RES1    0.0000
     41 H18       -1.0420    8.9439   12.0273 H         1 RES1    0.0000
     42 H19       -2.3136    9.3436   11.2027 H         1 RES1    0.0000
     43 C17        0.3233   11.3052   11.6938 C.3       1 RES1    0.0000
     44 H20        0.8235   11.9036   11.1333 H         1 RES1    0.0000
     45 H21        0.9151   10.6524   12.0742 H         1 RES1    0.0000
     46 H22       -0.0978   11.8046   12.3976 H         1 RES1    0.0000
@<TRIPOS>BOND
     1    1    2 2
     2    2    3 1
     3    3   12 1
     4    4    5 1
     5    5    8 1
     6    6   33 2
     7    7   33 1
     8    8    9 1
     9   10    1 1
    10   11   10 1
    11   12   10 1
    12   13   12 1
    13   14    4 1
    14   15   14 1
    15   16    8 1
    16   17   16 1
    17   18   16 1
    18   19    3 1
    19   20   19 1
    20   21   19 1
    21   22   19 1
    22   23   22 ar
    23   24   23 1
    24   25   23 ar
    25   26   25 1
    26   27   25 ar
    27   28   27 1
    28   29   27 ar
    29   30   29 1
    30   31   22 ar
    31   32   31 1
    32   33    4 1
    33   34    7 1
    34   35   34 1
    35   36   35 1
    36   37   35 1
    37   38   35 1
    38   39   34 1
    39   40   39 1
    40   41   39 1
    41   42   39 1
    42   43   34 1
    43   44   43 1
    44   45   43 1
    45   46   43 1
    46    8   10 1
    47   12   14 1
    48   14   16 1
    49   29   31 ar
@<TRIPOS>SUBSTRUCTURE
     1 RES1 1

@<TRIPOS>CRYSIN
  10.7307   18.0030    9.4773  90.0000 113.7980  90.0000  14 1

