# MOL2 file generated by ConQuest
# Please check atom types

@<TRIPOS>MOLECULE
UDUDUT
    57    49     2
SMALL
NO_CHARGES
****
Generated from CSD

@<TRIPOS>ATOM
      1 O1         0.0499   -3.6475    9.3468 O.3       1 RES1    0.0000
      2 O2         0.2989   -3.0743    5.8868 O.2       1 RES1    0.0000
      3 O3        -0.8837   -4.5759    7.1123 O.3       1 RES1    0.0000
      4 N1         2.4032   -1.5591   11.3348 N.pl3     1 RES1    0.0000
      5 N2         3.0886   -0.5885   10.6197 N.2       1 RES1    0.0000
      6 N3         2.5730   -0.3336    9.4974 N.2       1 RES1    0.0000
      7 N4         0.1606   -2.8311    8.1298 N.am      1 RES1    0.0000
      8 C1         1.2826   -3.3798   10.0599 C.3       1 RES1    0.0000
      9 H1         1.5126   -4.0644   10.7522 H         1 RES1    0.0000
     10 C2         1.1820   -1.9427   10.6027 C.3       1 RES1    0.0000
     11 H2         0.3380   -1.7631   11.1077 H         1 RES1    0.0000
     12 C3         1.3196   -1.1067    9.3041 C.3       1 RES1    0.0000
     13 H3         0.5276   -0.5184    9.1419 H         1 RES1    0.0000
     14 C4         1.4845   -2.1741    8.2281 C.3       1 RES1    0.0000
     15 H4         1.8668   -1.8515    7.3619 H         1 RES1    0.0000
     16 C5         2.3048   -3.2546    8.9450 C.3       1 RES1    0.0000
     17 H5         2.4073   -4.0837    8.4137 H         1 RES1    0.0000
     18 H6         3.1865   -2.9313    9.2589 H         1 RES1    0.0000
     19 C6         2.3293   -1.2968   12.7775 C.3       1 RES1    0.0000
     20 H7         3.2389   -1.0974   13.1137 H         1 RES1    0.0000
     21 H8         2.0120   -2.1155   13.2352 H         1 RES1    0.0000
     22 C7         1.4115   -0.1467   13.1388 C.ar      1 RES1    0.0000
     23 C8         0.2427   -0.3778   13.8607 C.ar      1 RES1    0.0000
     24 H9         0.0303   -1.2595   14.1447 H         1 RES1    0.0000
     25 C9        -0.6165    0.6756   14.1695 C.ar      1 RES1    0.0000
     26 H10       -1.4059    0.5091   14.6700 H         1 RES1    0.0000
     27 C10       -0.3241    1.9658   13.7490 C.ar      1 RES1    0.0000
     28 H11       -0.9240    2.6779   13.9394 H         1 RES1    0.0000
     29 C11        0.8516    2.2107   13.0477 C.ar      1 RES1    0.0000
     30 H12        1.0634    3.0945   12.7707 H         1 RES1    0.0000
     31 C12        1.7169    1.1649   12.7516 C.ar      1 RES1    0.0000
     32 H13        2.5234    1.3407   12.2821 H         1 RES1    0.0000
     33 C13       -0.0922   -3.5201    6.9363 C.2       1 RES1    0.0000
     34 C14       -1.4389   -5.2422    5.8954 C.3       1 RES1    0.0000
     35 C15       -2.2168   -4.2419    5.0559 C.3       1 RES1    0.0000
     36 H14       -2.7989   -3.7099    5.6382 H         1 RES1    0.0000
     37 H15       -2.7627   -4.7213    4.3984 H         1 RES1    0.0000
     38 H16       -1.5903   -3.6492    4.5899 H         1 RES1    0.0000
     39 C16       -2.3633   -6.2923    6.4839 C.3       1 RES1    0.0000
     40 H17       -1.8554   -6.8742    7.0878 H         1 RES1    0.0000
     41 H18       -2.7496   -6.8297    5.7609 H         1 RES1    0.0000
     42 H19       -3.0821   -5.8520    6.9835 H         1 RES1    0.0000
     43 C17       -0.3158   -5.9127    5.1184 C.3       1 RES1    0.0000
     44 H20        0.2862   -5.2278    4.7585 H         1 RES1    0.0000
     45 H21       -0.6949   -6.4348    4.3812 H         1 RES1    0.0000
     46 H22        0.1852   -6.5062    5.7150 H         1 RES1    0.0000
     47 N5         3.5040   -1.1594    9.4986 Du        2 SUP2    0.0000
     48 N6         0.8658   -3.3795    8.1292 Du        2 SUP2    0.0000
     49 C18        0.5409   -2.4961   10.2028 Du        2 SUP2    0.0000
     50 H23       -0.0480   -2.3334   10.9965 Du        2 SUP2    0.0000
     51 C19        1.9921   -2.6694   10.5836 Du        2 SUP2    0.0000
     52 H24        2.2101   -3.5543   10.9953 Du        2 SUP2    0.0000
     53 C20        2.7060   -2.3927    9.1890 Du        2 SUP2    0.0000
     54 H25        3.2833   -3.1564    8.9011 Du        2 SUP2    0.0000
     55 C21        0.5424   -1.3066    9.2211 Du        2 SUP2    0.0000
     56 H26        0.9810   -0.4937    9.5789 Du        2 SUP2    0.0000
     57 H27       -0.3479   -1.0942    8.8449 Du        2 SUP2    0.0000
@<TRIPOS>BOND
     1    1    7 1
     2    2   33 2
     3    3   33 1
     4    4    5 2
     5    5    6 1
     6    6   12 1
     7    7   14 1
     8    8    1 1
     9    9    8 1
    10   10    4 1
    11   11   10 1
    12   12   10 1
    13   13   12 1
    14   14   12 1
    15   15   14 1
    16   16    8 1
    17   17   16 1
    18   18   16 1
    19   19    4 1
    20   20   19 1
    21   21   19 1
    22   22   19 1
    23   23   22 ar
    24   24   23 1
    25   25   23 ar
    26   26   25 1
    27   27   25 ar
    28   28   27 1
    29   29   27 ar
    30   30   29 1
    31   31   22 ar
    32   32   31 1
    33   33    7 1
    34   34    3 1
    35   35   34 1
    36   36   35 1
    37   37   35 1
    38   38   35 1
    39   39   34 1
    40   40   39 1
    41   41   39 1
    42   42   39 1
    43   43   34 1
    44   44   43 1
    45   45   43 1
    46   46   43 1
    47    8   10 1
    48   14   16 1
    49   29   31 ar
@<TRIPOS>SUBSTRUCTURE
     1 RES1 1
     2 SUP2 47

@<TRIPOS>CRYSIN
   5.6782   12.3245   12.3822 108.0480 102.3260  90.2190   2 1

