# MOL2 file generated by ConQuest
# Please check atom types

@<TRIPOS>MOLECULE
UDUGEI
    44    48     1
SMALL
NO_CHARGES
****
Generated from CSD

@<TRIPOS>ATOM
      1 O1        -5.9477   -5.7607   -3.3757 O.3       1 RES1    0.0000
      2 N1        -5.4187   -3.4808   -3.2871 N.3       1 RES1    0.0000
      3 N2        -5.6933   -6.7191   -2.3023 N.3       1 RES1    0.0000
      4 C1        -5.0566   -2.3673   -4.0244 C.2       1 RES1    0.0000
      5 C2        -4.0880   -2.4209   -5.1347 C.ar      1 RES1    0.0000
      6 C3        -4.8668   -4.8182   -3.4707 C.3       1 RES1    0.0000
      7 H1        -4.4520   -4.8830   -4.3559 H         1 RES1    0.0000
      8 C4        -4.7410   -6.0135   -1.4266 C.3       1 RES1    0.0000
      9 H2        -5.2438   -5.3730   -0.8816 H         1 RES1    0.0000
     10 C5        -3.8579   -5.2217   -2.4049 C.3       1 RES1    0.0000
     11 H3        -3.4634   -4.4453   -1.9778 H         1 RES1    0.0000
     12 H4        -3.1535   -5.7762   -2.7754 H         1 RES1    0.0000
     13 C6        -4.0865   -8.3376   -0.6448 C.ar      1 RES1    0.0000
     14 C7        -4.0052   -6.9490   -0.4963 C.ar      1 RES1    0.0000
     15 C8        -2.7555   -2.8162   -4.9454 C.ar      1 RES1    0.0000
     16 H5        -2.4617   -3.0634   -4.0980 H         1 RES1    0.0000
     17 C9        -5.7846   -1.2964   -3.5525 C.2       1 RES1    0.0000
     18 H6        -5.7432   -0.4228   -3.8690 H         1 RES1    0.0000
     19 C10       -4.5063   -2.0591   -6.4236 C.ar      1 RES1    0.0000
     20 H7        -5.3892   -1.8041   -6.5663 H         1 RES1    0.0000
     21 C11       -6.3616   -3.1100   -2.3504 C.2       1 RES1    0.0000
     22 H8        -6.7609   -3.6733   -1.7276 H         1 RES1    0.0000
     23 C12       -3.2290   -6.3927    0.5236 C.ar      1 RES1    0.0000
     24 H9        -3.1780   -5.4684    0.6136 H         1 RES1    0.0000
     25 C13       -6.6101   -1.7669   -2.4953 C.2       1 RES1    0.0000
     26 H10       -7.2074   -1.2596   -1.9948 H         1 RES1    0.0000
     27 C14       -3.6155   -2.0782   -7.4894 C.ar      1 RES1    0.0000
     28 H11       -3.9021   -1.8301   -8.3387 H         1 RES1    0.0000
     29 C15       -1.8707   -2.8395   -6.0205 C.ar      1 RES1    0.0000
     30 H12       -0.9899   -3.1066   -5.8869 H         1 RES1    0.0000
     31 C16       -2.2923   -2.4684   -7.2872 C.ar      1 RES1    0.0000
     32 H13       -1.6949   -2.4795   -8.0000 H         1 RES1    0.0000
     33 C17       -2.6295   -8.5953    1.2796 C.ar      1 RES1    0.0000
     34 H14       -2.1812   -9.1489    1.8772 H         1 RES1    0.0000
     35 C18       -5.0901   -7.9231   -2.8991 C.3       1 RES1    0.0000
     36 H15       -4.2366   -7.7056   -3.3053 H         1 RES1    0.0000
     37 H16       -5.6733   -8.2880   -3.5827 H         1 RES1    0.0000
     38 C19       -4.8980   -8.9319   -1.7759 C.3       1 RES1    0.0000
     39 H17       -5.7645   -9.2098   -1.4404 H         1 RES1    0.0000
     40 H18       -4.4440   -9.7164   -2.1215 H         1 RES1    0.0000
     41 C20       -3.3930   -9.1461    0.2639 C.ar      1 RES1    0.0000
     42 H19       -3.4462  -10.0710    0.1838 H         1 RES1    0.0000
     43 C21       -2.5337   -7.2108    1.4044 C.ar      1 RES1    0.0000
     44 H20       -2.0071   -6.8368    2.0735 H         1 RES1    0.0000
@<TRIPOS>BOND
     1    1    3 1
     2    2    4 1
     3    3    8 1
     4    4    5 1
     5    5   15 ar
     6    6    1 1
     7    7    6 1
     8    8    9 1
     9   10    6 1
    10   11   10 1
    11   12   10 1
    12   13   14 ar
    13   14    8 1
    14   15   16 1
    15   17    4 2
    16   18   17 1
    17   19    5 ar
    18   20   19 1
    19   21    2 1
    20   22   21 1
    21   23   14 ar
    22   24   23 1
    23   25   17 1
    24   26   25 1
    25   27   19 ar
    26   28   27 1
    27   29   15 ar
    28   30   29 1
    29   31   27 ar
    30   32   31 1
    31   33   34 1
    32   35    3 1
    33   36   35 1
    34   37   35 1
    35   38   13 1
    36   39   38 1
    37   40   38 1
    38   41   13 ar
    39   42   41 1
    40   43   23 ar
    41   44   43 1
    42    2    6 1
    43    8   10 1
    44   21   25 2
    45   29   31 ar
    46   33   41 ar
    47   33   43 ar
    48   35   38 1
@<TRIPOS>SUBSTRUCTURE
     1 RES1 1

@<TRIPOS>CRYSIN
  11.6753   19.6276    7.1724  90.0000  90.0000  90.0000  33 1

