# MOL2 file generated by ConQuest
# Please check atom types

@<TRIPOS>MOLECULE
UFADIQ
    39    40     1
SMALL
NO_CHARGES
****
Generated from CSD

@<TRIPOS>ATOM
      1 C1         2.1020    0.3444    1.2507 C.3       1 RES1    0.0000
      2 C2         4.4342    0.5053    1.7664 C.3       1 RES1    0.0000
      3 H1         5.0663    0.2416    2.4558 H         1 RES1    0.0000
      4 H2         4.4749    1.4512    1.6315 H         1 RES1    0.0000
      5 C3         4.8029   -0.1746    0.4622 C.3       1 RES1    0.0000
      6 C4         3.6668   -0.0084   -0.5393 C.3       1 RES1    0.0000
      7 H3         3.7655   -0.6057   -1.3367 H         1 RES1    0.0000
      8 H4         3.6937    0.9561   -0.8293 H         1 RES1    0.0000
      9 C5         1.8689    1.8309    1.0048 C.3       1 RES1    0.0000
     10 H5         2.6305    2.2943    0.5927 H         1 RES1    0.0000
     11 H6         1.6896    2.2883    1.8732 H         1 RES1    0.0000
     12 H7         1.0286    1.9278    0.4322 H         1 RES1    0.0000
     13 C6         0.8861   -0.3295    1.8351 C.3       1 RES1    0.0000
     14 H8         0.7062    0.0413    2.7697 H         1 RES1    0.0000
     15 H9         0.0702   -0.1758    1.2565 H         1 RES1    0.0000
     16 H10        1.1121   -1.3047    1.9173 H         1 RES1    0.0000
     17 C7         6.1555    0.3097   -0.1160 C.3       1 RES1    0.0000
     18 H11        6.3010   -0.1907   -0.9767 H         1 RES1    0.0000
     19 H12        5.9941    1.2563   -0.3149 H         1 RES1    0.0000
     20 C8         7.3135    0.1477    0.8415 C.ar      1 RES1    0.0000
     21 C9         8.1058   -0.9914    0.8311 C.ar      1 RES1    0.0000
     22 H13        7.9440   -1.6808    0.1133 H         1 RES1    0.0000
     23 C10        9.1163   -1.1941    1.7730 C.ar      1 RES1    0.0000
     24 H14        9.6611   -2.0258    1.7358 H         1 RES1    0.0000
     25 C11        9.3250   -0.2446    2.7573 C.ar      1 RES1    0.0000
     26 C12        8.5572    0.9208    2.7727 C.ar      1 RES1    0.0000
     27 H15        8.7067    1.6025    3.4817 H         1 RES1    0.0000
     28 C13        7.5766    1.1134    1.8244 C.ar      1 RES1    0.0000
     29 H16        7.0432    1.9391    1.8612 H         1 RES1    0.0000
     30 C14       11.0893   -1.4948    3.7685 C.3       1 RES1    0.0000
     31 H17       11.7132   -1.3531    4.5577 H         1 RES1    0.0000
     32 H18       10.5352   -2.3104    3.9059 H         1 RES1    0.0000
     33 H19       11.5698   -1.5833    2.9261 H         1 RES1    0.0000
     34 N1         4.9861   -1.6718    0.7310 N.pl3     1 RES1    0.0000
     35 O1         2.4118   -0.3582    0.0445 O.3       1 RES1    0.0000
     36 O2         3.1434    0.1214    2.2099 O.3       1 RES1    0.0000
     37 O3         4.9572   -2.4288   -0.2286 O.2       1 RES1    0.0000
     38 O4         5.2113   -2.0497    1.8699 O.2       1 RES1    0.0000
     39 O5        10.2699   -0.3354    3.7494 O.3       1 RES1    0.0000
@<TRIPOS>BOND
     1    1    9 1
     2    2    3 1
     3    4    2 1
     4    5    2 1
     5    6    5 1
     6    7    6 1
     7    8    6 1
     8    9   10 1
     9   11    9 1
    10   12    9 1
    11   13    1 1
    12   14   13 1
    13   15   13 1
    14   16   13 1
    15   17    5 1
    16   18   17 1
    17   19   17 1
    18   20   17 1
    19   21   20 ar
    20   22   21 1
    21   23   21 ar
    22   24   23 1
    23   25   23 ar
    24   26   25 ar
    25   27   26 1
    26   28   20 ar
    27   29   28 1
    28   30   31 1
    29   32   30 1
    30   33   30 1
    31   34    5 1
    32   35    1 1
    33   36    1 1
    34   37   34 2
    35   38   34 2
    36   39   25 1
    37    2   36 1
    38    6   35 1
    39   26   28 ar
    40   30   39 1
@<TRIPOS>SUBSTRUCTURE
     1 RES1 1

@<TRIPOS>CRYSIN
  23.3757    5.9794   10.0425  90.0000  93.0870  90.0000  14 1

