# MOL2 file generated by ConQuest
# Please check atom types

@<TRIPOS>MOLECULE
UFAJIV
    50    51     1
SMALL
NO_CHARGES
****
Generated from CSD

@<TRIPOS>ATOM
      1 O1         1.7338    6.1206   14.9897 O.3       1 RES1    0.0000
      2 O2        -0.2153    6.9550   15.7038 O.2       1 RES1    0.0000
      3 O3        -2.5507   10.4836   13.2119 O.2       1 RES1    0.0000
      4 O4        -2.1886   10.7560   11.0207 O.3       1 RES1    0.0000
      5 O5        -2.5434   13.0941    9.3332 O.3       1 RES1    0.0000
      6 O6        -5.2631    7.8554   15.7564 O.2       1 RES1    0.0000
      7 O7        -6.2745    6.2126   14.8206 O.2       1 RES1    0.0000
      8 N1         1.2278    8.2975   11.4355 N.3       1 RES1    0.0000
      9 N2        -5.3053    6.9520   14.9402 N.pl3     1 RES1    0.0000
     10 C1         2.6597    6.6760   12.4819 C.3       1 RES1    0.0000
     11 H1         3.2530    6.9294   13.1930 H         1 RES1    0.0000
     12 H2         3.0959    6.8114   11.6374 H         1 RES1    0.0000
     13 H3         2.4241    5.7502   12.5763 H         1 RES1    0.0000
     14 C2         1.4182    7.5165   12.5439 C.2       1 RES1    0.0000
     15 C3         0.5100    7.5654   13.5568 C.2       1 RES1    0.0000
     16 C4        -0.7750    8.3644   13.4310 C.3       1 RES1    0.0000
     17 H4        -0.8725    8.9082   14.2397 H         1 RES1    0.0000
     18 C5        -0.7540    9.3042   12.2337 C.2       1 RES1    0.0000
     19 C6         0.2119    9.2304   11.2952 C.2       1 RES1    0.0000
     20 C7         0.3966   10.0939   10.0826 C.3       1 RES1    0.0000
     21 H5        -0.2328   10.8186   10.1068 H         1 RES1    0.0000
     22 H6         0.2498    9.5701    9.2915 H         1 RES1    0.0000
     23 H7         1.2902   10.4451   10.0726 H         1 RES1    0.0000
     24 C8         0.6314    6.8652   14.8235 C.2       1 RES1    0.0000
     25 C9         1.8476    5.4569   16.2643 C.3       1 RES1    0.0000
     26 H8         1.7484    6.1000   16.9696 H         1 RES1    0.0000
     27 H9         2.7090    5.0387   16.3318 H         1 RES1    0.0000
     28 H10        1.1618    4.7900   16.3397 H         1 RES1    0.0000
     29 C10       -1.9827    7.4357   13.3408 C.ar      1 RES1    0.0000
     30 C11       -2.0161    6.4142   12.3986 C.ar      1 RES1    0.0000
     31 H11       -1.2917    6.2992   11.8281 H         1 RES1    0.0000
     32 C12       -3.1000    5.5674   12.2909 C.ar      1 RES1    0.0000
     33 H12       -3.1003    4.8931   11.6505 H         1 RES1    0.0000
     34 C13       -4.1858    5.7195   13.1318 C.ar      1 RES1    0.0000
     35 H13       -4.9158    5.1457   13.0799 H         1 RES1    0.0000
     36 C14       -4.1544    6.7483   14.0517 C.ar      1 RES1    0.0000
     37 C15       -3.0787    7.6077   14.1724 C.ar      1 RES1    0.0000
     38 H14       -3.0908    8.2919   14.8025 H         1 RES1    0.0000
     39 C16       -1.8904   10.2383   12.2228 C.2       1 RES1    0.0000
     40 C17       -3.3782   11.5856   10.9628 C.3       1 RES1    0.0000
     41 H15       -3.2985   12.3278   11.5822 H         1 RES1    0.0000
     42 H16       -4.1609   11.0664   11.2048 H         1 RES1    0.0000
     43 C18       -3.5090   12.0939    9.5657 C.3       1 RES1    0.0000
     44 H17       -3.3833   11.3646    8.9391 H         1 RES1    0.0000
     45 H18       -4.3985   12.4586    9.4322 H         1 RES1    0.0000
     46 C19       -2.5727   13.5307    7.9817 C.3       1 RES1    0.0000
     47 H19       -2.3603   12.7955    7.4032 H         1 RES1    0.0000
     48 H20       -1.9293   14.2323    7.8582 H         1 RES1    0.0000
     49 H21       -3.4497   13.8607    7.7714 H         1 RES1    0.0000
     50 H22        1.7979    8.2344   10.7590 H         1 RES1    0.0000
@<TRIPOS>BOND
     1    1   24 1
     2    2   24 2
     3    3   39 2
     4    4   39 1
     5    5   43 1
     6    6    9 2
     7    7    9 2
     8    8   14 1
     9    9   36 1
    10   10   11 1
    11   12   10 1
    12   13   10 1
    13   14   10 1
    14   15   14 2
    15   16   15 1
    16   17   16 1
    17   18   16 1
    18   19    8 1
    19   20   19 1
    20   21   20 1
    21   22   20 1
    22   23   20 1
    23   24   15 1
    24   25    1 1
    25   26   25 1
    26   27   25 1
    27   28   25 1
    28   29   16 1
    29   30   29 ar
    30   31   30 1
    31   32   30 ar
    32   33   32 1
    33   34   32 ar
    34   35   34 1
    35   36   34 ar
    36   37   29 ar
    37   38   37 1
    38   39   18 1
    39   40    4 1
    40   41   40 1
    41   42   40 1
    42   43   40 1
    43   44   43 1
    44   45   43 1
    45   46    5 1
    46   47   46 1
    47   48   46 1
    48   49   46 1
    49   50    8 1
    50   18   19 2
    51   36   37 ar
@<TRIPOS>SUBSTRUCTURE
     1 RES1 1

@<TRIPOS>CRYSIN
  14.5750    9.9090   14.5220  90.0000 115.1100  90.0000  14 1

