# MOL2 file generated by ConQuest
# Please check atom types

@<TRIPOS>MOLECULE
UFALOC
   128   134     2
SMALL
NO_CHARGES
****
Generated from CSD

@<TRIPOS>ATOM
      1 O1         6.1539    6.2214   10.4334 O.3       1 RES1    0.0000
      2 O2         9.6320    6.7364    6.7333 O.2       1 RES1    0.0000
      3 O3        10.1548    4.6897    6.3939 O.2       1 RES1    0.0000
      4 O4        -3.7751   10.0913   20.7601 O.3       1 RES1    0.0000
      5 O5        -4.2416   12.0064   19.7320 O.2       1 RES1    0.0000
      6 O6        -2.2676    6.3597   22.5592 O.3       1 RES1    0.0000
      7 O7        -1.0138    4.6074   22.9326 O.2       1 RES1    0.0000
      8 N1        -2.0070    7.8009   20.0012 N.3       1 RES1    0.0000
      9 N2         1.0832    6.2992   15.5252 N.2       1 RES1    0.0000
     10 N3         1.9427    7.1056   15.1470 N.2       1 RES1    0.0000
     11 N4         5.4113    4.0976   10.4213 N.2       1 RES1    0.0000
     12 N5         9.4602    5.5437    6.9225 N.pl3     1 RES1    0.0000
     13 C1        -1.3018    7.5019   18.8446 C.ar      1 RES1    0.0000
     14 C2        -0.2861    8.3369   18.3500 C.ar      1 RES1    0.0000
     15 H1        -0.1436    9.1528   18.7743 H         1 RES1    0.0000
     16 C3         0.5038    8.0125   17.2807 C.ar      1 RES1    0.0000
     17 H2         1.1664    8.5986   16.9946 H         1 RES1    0.0000
     18 C4         0.3122    6.8095   16.6333 C.ar      1 RES1    0.0000
     19 C5        -0.7225    5.9741   17.0503 C.ar      1 RES1    0.0000
     20 H3        -0.8825    5.1835   16.5872 H         1 RES1    0.0000
     21 C6        -1.5223    6.2960   18.1439 C.ar      1 RES1    0.0000
     22 H4        -2.2004    5.7180   18.4130 H         1 RES1    0.0000
     23 C7         2.7683    6.5520   14.0922 C.ar      1 RES1    0.0000
     24 C8         3.6364    7.4560   13.4836 C.ar      1 RES1    0.0000
     25 H5         3.6412    8.3455   13.7552 H         1 RES1    0.0000
     26 C9         4.4911    7.0421   12.4798 C.ar      1 RES1    0.0000
     27 H6         5.0923    7.6393   12.0967 H         1 RES1    0.0000
     28 C10        4.4420    5.7279   12.0482 C.ar      1 RES1    0.0000
     29 C11        3.5688    4.8259   12.6641 C.ar      1 RES1    0.0000
     30 H7         3.5490    3.9412   12.3804 H         1 RES1    0.0000
     31 C12        2.7438    5.2242   13.6825 C.ar      1 RES1    0.0000
     32 H8         2.1749    4.6141   14.0947 H         1 RES1    0.0000
     33 C13        5.3100    5.2860   10.9693 C.2       1 RES1    0.0000
     34 C14        6.8398    5.5456    9.4684 C.ar      1 RES1    0.0000
     35 C15        7.8090    6.0316    8.6319 C.ar      1 RES1    0.0000
     36 H9         8.0648    6.9260    8.6197 H         1 RES1    0.0000
     37 C16        8.3683    5.0862    7.8147 C.ar      1 RES1    0.0000
     38 C17        7.9757    3.7659    7.7541 C.ar      1 RES1    0.0000
     39 H10        8.3852    3.1832    7.1577 H         1 RES1    0.0000
     40 C18        6.9765    3.3168    8.5834 C.ar      1 RES1    0.0000
     41 H11        6.6936    2.4306    8.5567 H         1 RES1    0.0000
     42 C19        6.4041    4.2225    9.4538 C.ar      1 RES1    0.0000
     43 C20       -1.6913    8.9768   20.8183 C.3       1 RES1    0.0000
     44 H12       -0.7305    9.1128   20.8062 H         1 RES1    0.0000
     45 H13       -1.9506    8.7948   21.7348 H         1 RES1    0.0000
     46 C21       -2.3613   10.2475   20.3722 C.3       1 RES1    0.0000
     47 H14       -1.9674   11.0165   20.8135 H         1 RES1    0.0000
     48 H15       -2.2792   10.3610   19.4120 H         1 RES1    0.0000
     49 C22       -4.6073   11.0948   20.4110 C.2       1 RES1    0.0000
     50 C23       -6.0104   10.8240   20.9056 C.3       1 RES1    0.0000
     51 H16       -6.0164   10.0169   21.4245 H         1 RES1    0.0000
     52 H17       -6.6008   10.7261   20.1539 H         1 RES1    0.0000
     53 H18       -6.3049   11.5569   21.4487 H         1 RES1    0.0000
     54 C24       -3.1103    6.9667   20.4425 C.3       1 RES1    0.0000
     55 H19       -3.5768    6.6314   19.6593 H         1 RES1    0.0000
     56 H20       -3.7340    7.5156   20.9420 H         1 RES1    0.0000
     57 C25       -2.7109    5.8015   21.2960 C.3       1 RES1    0.0000
     58 H21       -3.4653    5.2067   21.4317 H         1 RES1    0.0000
     59 H22       -1.9944    5.3014   20.8741 H         1 RES1    0.0000
     60 C26       -1.4388    5.6428   23.3060 C.2       1 RES1    0.0000
     61 C27       -1.0967    6.3401   24.5644 C.3       1 RES1    0.0000
     62 H23       -1.5830    7.1668   24.6154 H         1 RES1    0.0000
     63 H24       -0.1538    6.5217   24.5838 H         1 RES1    0.0000
     64 H25       -1.3301    5.7849   25.3137 H         1 RES1    0.0000
     65 O8        10.0403    2.8027   10.2976 O.3       2 RES2    0.0000
     66 O9        13.2317    2.9728    6.3357 O.2       2 RES2    0.0000
     67 O10       12.7118    1.1580    5.2543 O.2       2 RES2    0.0000
     68 O11        2.6351    6.3055   21.9312 O.3       2 RES2    0.0000
     69 O12        1.6230    7.9143   22.8065 O.2       2 RES2    0.0000
     70 O13        3.5613    3.0113   22.3483 O.3       2 RES2    0.0000
     71 O14        3.5644    0.8161   22.5616 O.2       2 RES2    0.0000
     72 N6         2.0208    4.0876   20.1297 N.3       2 RES2    0.0000
     73 N7         5.5567    2.8584   15.9568 N.2       2 RES2    0.0000
     74 N8         5.9713    3.7741   15.1955 N.2       2 RES2    0.0000
     75 N9         8.9581    0.7882   10.2491 N.2       2 RES2    0.0000
     76 N10       12.6194    1.9147    6.2145 N.pl3     2 RES2    0.0000
     77 C28        2.9248    3.8439   19.1162 C.ar      2 RES2    0.0000
     78 C29        3.2056    4.7807   18.1366 C.ar      2 RES2    0.0000
     79 H26        2.7872    5.6098   18.1754 H         2 RES2    0.0000
     80 C30        4.0783    4.5271   17.1085 C.ar      2 RES2    0.0000
     81 H27        4.2677    5.1920   16.4878 H         2 RES2    0.0000
     82 C31        4.6808    3.2819   16.9970 C.ar      2 RES2    0.0000
     83 C32        4.4163    2.3507   17.9596 C.ar      2 RES2    0.0000
     84 H28        4.8283    1.5187   17.9038 H         2 RES2    0.0000
     85 C33        3.5588    2.5965   19.0192 C.ar      2 RES2    0.0000
     86 H29        3.4056    1.9410   19.6617 H         2 RES2    0.0000
     87 C34        6.7669    3.2652   14.1141 C.ar      2 RES2    0.0000
     88 C35        7.6393    4.1519   13.5152 C.ar      2 RES2    0.0000
     89 H30        7.7162    5.0229   13.8328 H         2 RES2    0.0000
     90 C36        8.4080    3.7261   12.4265 C.ar      2 RES2    0.0000
     91 H31        8.9784    4.3239   11.9997 H         2 RES2    0.0000
     92 C37        8.3238    2.4318   11.9876 C.ar      2 RES2    0.0000
     93 C38        7.4320    1.5745   12.5889 C.ar      2 RES2    0.0000
     94 H32        7.3569    0.7025   12.2737 H         2 RES2    0.0000
     95 C39        6.6507    1.9720   13.6485 C.ar      2 RES2    0.0000
     96 H33        6.0530    1.3794   14.0413 H         2 RES2    0.0000
     97 C40        9.0925    1.9575   10.8504 C.2       2 RES2    0.0000
     98 C41       10.5086    2.0848    9.2138 C.ar      2 RES2    0.0000
     99 C42       11.4496    2.4904    8.2997 C.ar      2 RES2    0.0000
    100 H34       11.8936    3.3069    8.3457 H         2 RES2    0.0000
    101 C43       11.6677    1.5488    7.2983 C.ar      2 RES2    0.0000
    102 C44       11.0510    0.3470    7.2086 C.ar      2 RES2    0.0000
    103 H35       11.2399   -0.2182    6.4933 H         2 RES2    0.0000
    104 C45       10.1510   -0.0414    8.1615 C.ar      2 RES2    0.0000
    105 H36        9.7416   -0.8746    8.1300 H         2 RES2    0.0000
    106 C46        9.8717    0.8715    9.1920 C.ar      2 RES2    0.0000
    107 C47        1.3069    5.3529   20.1733 C.3       2 RES2    0.0000
    108 H37        0.5358    5.2383   20.7504 H         2 RES2    0.0000
    109 H38        0.9720    5.5375   19.2835 H         2 RES2    0.0000
    110 C48        2.0662    6.5679   20.6461 C.3       2 RES2    0.0000
    111 H39        2.7694    6.7826   20.0133 H         2 RES2    0.0000
    112 H40        1.4665    7.3285   20.7043 H         2 RES2    0.0000
    113 C49        2.3591    7.0096   22.9496 C.2       2 RES2    0.0000
    114 C50        2.9856    6.6268   24.2080 C.3       2 RES2    0.0000
    115 H41        3.5413    5.8570   24.0674 H         2 RES2    0.0000
    116 H42        2.3054    6.4170   24.8530 H         2 RES2    0.0000
    117 H43        3.5212    7.3529   24.5329 H         2 RES2    0.0000
    118 C51        1.5308    3.0372   21.0026 C.3       2 RES2    0.0000
    119 H44        1.7331    2.1766   20.6049 H         2 RES2    0.0000
    120 H45        0.5664    3.1108   21.0729 H         2 RES2    0.0000
    121 C52        2.1255    3.0876   22.3846 C.3       2 RES2    0.0000
    122 H46        1.8608    3.9142   22.8187 H         2 RES2    0.0000
    123 H47        1.7793    2.3503   22.9108 H         2 RES2    0.0000
    124 C53        4.1903    1.8330   22.3871 C.2       2 RES2    0.0000
    125 C54        5.6784    1.9296   22.2586 C.3       2 RES2    0.0000
    126 H48        5.9292    2.8481   22.1325 H         2 RES2    0.0000
    127 H49        5.9691    1.4116   21.5045 H         2 RES2    0.0000
    128 H50        6.0903    1.5927   23.0563 H         2 RES2    0.0000
@<TRIPOS>BOND
     1    1   33 1
     2    2   12 2
     3    3   12 2
     4    4   46 1
     5    5   49 2
     6    6   57 1
     7    7   60 2
     8    8   13 1
     9    9   10 2
    10   10   23 1
    11   11   33 2
    12   12   37 1
    13   13   14 ar
    14   14   15 1
    15   16   14 ar
    16   17   16 1
    17   18    9 1
    18   19   18 ar
    19   20   19 1
    20   21   13 ar
    21   22   21 1
    22   23   24 ar
    23   24   25 1
    24   26   24 ar
    25   27   26 1
    26   28   26 ar
    27   29   28 ar
    28   30   29 1
    29   31   23 ar
    30   32   31 1
    31   33   28 1
    32   34    1 1
    33   35   34 ar
    34   36   35 1
    35   37   35 ar
    36   38   37 ar
    37   39   38 1
    38   40   38 ar
    39   41   40 1
    40   42   11 1
    41   43    8 1
    42   44   43 1
    43   45   43 1
    44   46   43 1
    45   47   46 1
    46   48   46 1
    47   49    4 1
    48   50   49 1
    49   51   50 1
    50   52   50 1
    51   53   50 1
    52   54    8 1
    53   55   54 1
    54   56   54 1
    55   57   54 1
    56   58   57 1
    57   59   57 1
    58   60    6 1
    59   61   60 1
    60   62   61 1
    61   63   61 1
    62   64   61 1
    63   65   97 1
    64   66   76 2
    65   67   76 2
    66   68  110 1
    67   69  113 2
    68   70  121 1
    69   71  124 2
    70   72   77 1
    71   73   74 2
    72   74   87 1
    73   75   97 2
    74   76  101 1
    75   77   78 ar
    76   78   79 1
    77   80   78 ar
    78   81   80 1
    79   82   73 1
    80   83   82 ar
    81   84   83 1
    82   85   77 ar
    83   86   85 1
    84   87   88 ar
    85   88   89 1
    86   90   88 ar
    87   91   90 1
    88   92   90 ar
    89   93   92 ar
    90   94   93 1
    91   95   87 ar
    92   96   95 1
    93   97   92 1
    94   98   65 1
    95   99   98 ar
    96  100   99 1
    97  101   99 ar
    98  102  101 ar
    99  103  102 1
   100  104  102 ar
   101  105  104 1
   102  106   75 1
   103  107   72 1
   104  108  107 1
   105  109  107 1
   106  110  107 1
   107  111  110 1
   108  112  110 1
   109  113   68 1
   110  114  113 1
   111  115  114 1
   112  116  114 1
   113  117  114 1
   114  118   72 1
   115  119  118 1
   116  120  118 1
   117  121  118 1
   118  122  121 1
   119  123  121 1
   120  124   70 1
   121  125  124 1
   122  126  125 1
   123  127  125 1
   124  128  125 1
   125   16   18 ar
   126   19   21 ar
   127   29   31 ar
   128   34   42 ar
   129   40   42 ar
   130   80   82 ar
   131   83   85 ar
   132   93   95 ar
   133   98  106 ar
   134  104  106 ar
@<TRIPOS>SUBSTRUCTURE
     1 RES1 1
     2 RES2 65

@<TRIPOS>CRYSIN
   8.7660   12.3810   24.4980  83.3500  83.9800  78.5900   2 1

