# MOL2 file generated by ConQuest
# Please check atom types

@<TRIPOS>MOLECULE
UFAVUU
    58    37     2
SMALL
NO_CHARGES
****
Generated from CSD

@<TRIPOS>ATOM
      1 O1        10.1843    0.4641    6.8760 O.2       1 RES1    0.0000
      2 O2        12.0112    0.3868    5.7416 O.2       1 RES1    0.0000
      3 N1         8.9836    2.9446    4.0087 N.pl3     1 RES1    0.0000
      4 N2         9.1117    2.1836    5.1229 N.2       1 RES1    0.0000
      5 N3        10.9782    2.0247    3.8483 N.2       1 RES1    0.0000
      6 N4        10.8821    0.7746    5.9334 N.pl3     1 RES1    0.0000
      7 C1         7.7534    3.7285    3.7191 C.3       1 RES1    0.0000
      8 C2         6.8531    3.7860    4.9625 C.3       1 RES1    0.0000
      9 H1         7.3349    4.2073    5.6911 H         1 RES1    0.0000
     10 H2         6.6228    2.8839    5.2360 H         1 RES1    0.0000
     11 C3         5.5621    4.5815    4.6698 C.3       1 RES1    0.0000
     12 H3         4.9986    4.6086    5.4711 H         1 RES1    0.0000
     13 C4         5.9340    5.9654    4.2651 C.3       1 RES1    0.0000
     14 H4         6.4128    6.3940    4.9927 H         1 RES1    0.0000
     15 H5         5.1275    6.4776    4.0965 H         1 RES1    0.0000
     16 C5         6.8042    5.9748    3.0166 C.3       1 RES1    0.0000
     17 H6         7.0340    6.8936    2.7613 H         1 RES1    0.0000
     18 C6         6.0484    5.2828    1.8994 C.3       1 RES1    0.0000
     19 H7         5.2466    5.7888    1.6915 H         1 RES1    0.0000
     20 H8         6.6017    5.2567    1.1031 H         1 RES1    0.0000
     21 C7         5.6673    3.8822    2.2900 C.3       1 RES1    0.0000
     22 H9         5.1744    3.4515    1.5603 H         1 RES1    0.0000
     23 C8         6.9490    3.0804    2.6079 C.3       1 RES1    0.0000
     24 H10        6.7052    2.1794    2.8723 H         1 RES1    0.0000
     25 H11        7.4952    3.0209    1.8096 H         1 RES1    0.0000
     26 C9         8.0612    5.1783    3.3416 C.3       1 RES1    0.0000
     27 H12        8.5263    5.6069    4.0774 H         1 RES1    0.0000
     28 H13        8.6509    5.1877    2.5716 H         1 RES1    0.0000
     29 C10        4.8251    3.8968    3.5485 C.3       1 RES1    0.0000
     30 H14        3.9915    4.3620    3.3759 H         1 RES1    0.0000
     31 H15        4.6144    2.9864    3.8079 H         1 RES1    0.0000
     32 C11       10.3047    1.6850    4.9463 C.2       1 RES1    0.0000
     33 C12       10.0979    2.8202    3.2851 C.2       1 RES1    0.0000
     34 H16       10.2600    3.3135    2.5231 H         1 RES1    0.0000
     35 C13        7.4776    4.5616    4.9120 Du        2 SUP2    0.0000
     36 H17        8.2021    5.1867    5.0705 Du        2 SUP2    0.0000
     37 H18        7.3622    4.0076    5.7002 Du        2 SUP2    0.0000
     38 C14        6.1885    5.2985    4.5729 Du        2 SUP2    0.0000
     39 H19        5.9001    5.8483    5.3319 Du        2 SUP2    0.0000
     40 C15        6.4678    6.1682    3.3689 Du        2 SUP2    0.0000
     41 H20        7.1273    6.8361    3.6121 Du        2 SUP2    0.0000
     42 H21        5.6531    6.6333    3.1226 Du        2 SUP2    0.0000
     43 C16        6.9731    5.3999    2.1658 Du        2 SUP2    0.0000
     44 H22        7.1729    6.0051    1.4210 Du        2 SUP2    0.0000
     45 C17        5.8260    4.4843    1.8227 Du        2 SUP2    0.0000
     46 H23        6.0591    3.9658    1.0335 Du        2 SUP2    0.0000
     47 H24        5.0455    5.0153    1.6077 Du        2 SUP2    0.0000
     48 C18        5.4731    3.5236    2.9490 Du        2 SUP2    0.0000
     49 H25        4.7391    2.9299    2.6856 Du        2 SUP2    0.0000
     50 C19        6.6892    2.7219    3.3840 Du        2 SUP2    0.0000
     51 H26        6.4780    2.1784    4.1591 Du        2 SUP2    0.0000
     52 H27        6.9858    2.1397    2.6664 Du        2 SUP2    0.0000
     53 C20        8.1624    4.5093    2.4737 Du        2 SUP2    0.0000
     54 H28        8.9562    5.0403    2.6452 Du        2 SUP2    0.0000
     55 H29        8.3429    3.9073    1.7339 Du        2 SUP2    0.0000
     56 C21        5.0715    4.3870    4.1319 Du        2 SUP2    0.0000
     57 H30        4.3001    4.9222    3.8896 Du        2 SUP2    0.0000
     58 H31        4.8159    3.8142    4.8726 Du        2 SUP2    0.0000
@<TRIPOS>BOND
     1    1    6 2
     2    2    6 2
     3    3    4 1
     4    4   32 2
     5    5   32 1
     6    6   32 1
     7    7    3 1
     8    8    7 1
     9    9    8 1
    10   10    8 1
    11   11    8 1
    12   12   11 1
    13   13   11 1
    14   14   13 1
    15   15   13 1
    16   16   13 1
    17   17   16 1
    18   18   16 1
    19   19   18 1
    20   20   18 1
    21   21   18 1
    22   22   21 1
    23   23    7 1
    24   24   23 1
    25   25   23 1
    26   26    7 1
    27   27   26 1
    28   28   26 1
    29   29   11 1
    30   30   29 1
    31   31   29 1
    32   33    3 1
    33   34   33 1
    34    5   33 2
    35   16   26 1
    36   21   23 1
    37   21   29 1
@<TRIPOS>SUBSTRUCTURE
     1 RES1 1
     2 SUP2 35

@<TRIPOS>CRYSIN
  11.4984   10.4528   10.9207  90.0000 112.4580  90.0000  14 1

