# MOL2 file generated by ConQuest
# Please check atom types

@<TRIPOS>MOLECULE
UFEDOY
    27    29     1
SMALL
NO_CHARGES
****
Generated from CSD

@<TRIPOS>ATOM
      1 O1         2.0051    6.5892   -1.7654 O.3       1 RES1    0.0000
      2 O2        -2.9006    3.9798   -1.8348 O.2       1 RES1    0.0000
      3 O3        -1.3297    4.6308   -3.1683 O.2       1 RES1    0.0000
      4 N1         0.8534    5.9705   -2.2325 N.2       1 RES1    0.0000
      5 N2         2.0215    6.7076   -0.4074 N.2       1 RES1    0.0000
      6 N3         1.0638    6.5162    2.3867 N.3       1 RES1    0.0000
      7 N4        -1.8213    4.5440   -2.0440 N.pl3     1 RES1    0.0000
      8 C1         0.1624    5.7153   -1.1449 C.2       1 RES1    0.0000
      9 C2         0.8913    6.1788   -0.0089 C.2       1 RES1    0.0000
     10 C3         0.3820    6.0735    1.3374 C.2       1 RES1    0.0000
     11 C4        -0.8854    5.4809    1.4316 C.2       1 RES1    0.0000
     12 H1        -1.2797    5.3986    2.2694 H         1 RES1    0.0000
     13 C5        -1.5705    5.0128    0.3249 C.2       1 RES1    0.0000
     14 H2        -2.4024    4.6193    0.4596 H         1 RES1    0.0000
     15 C6        -1.0954    5.0958   -0.9590 C.2       1 RES1    0.0000
     16 C7         0.5371    6.4962    3.7612 C.3       1 RES1    0.0000
     17 H3         0.4849    5.5900    4.1020 H         1 RES1    0.0000
     18 H4        -0.3430    6.9020    3.8031 H         1 RES1    0.0000
     19 C8         1.5463    7.3078    4.5303 C.3       1 RES1    0.0000
     20 H5         1.3012    8.2463    4.5369 H         1 RES1    0.0000
     21 H6         1.6160    6.9943    5.4447 H         1 RES1    0.0000
     22 C9         2.8215    7.1003    3.8018 C.3       1 RES1    0.0000
     23 H7         3.2450    6.2733    4.0811 H         1 RES1    0.0000
     24 H8         3.4331    7.8351    3.9658 H         1 RES1    0.0000
     25 C10        2.4421    7.0396    2.3598 C.3       1 RES1    0.0000
     26 H9         2.4718    7.9204    1.9536 H         1 RES1    0.0000
     27 H10        3.0313    6.4455    1.8685 H         1 RES1    0.0000
@<TRIPOS>BOND
     1    1    4 1
     2    2    7 2
     3    3    7 2
     4    4    8 2
     5    5    1 1
     6    6   10 1
     7    7   15 1
     8    8    9 1
     9    9    5 2
    10   10    9 1
    11   11   10 2
    12   12   11 1
    13   13   11 1
    14   14   13 1
    15   15    8 1
    16   16    6 1
    17   17   16 1
    18   18   16 1
    19   19   16 1
    20   20   19 1
    21   21   19 1
    22   22   19 1
    23   23   22 1
    24   24   22 1
    25   25    6 1
    26   26   25 1
    27   27   25 1
    28   13   15 2
    29   22   25 1
@<TRIPOS>SUBSTRUCTURE
     1 RES1 1

@<TRIPOS>CRYSIN
   7.0305    7.6860   18.9510  90.0000  93.6900  90.0000  14 1

