# MOL2 file generated by ConQuest
# Please check atom types

@<TRIPOS>MOLECULE
UFEDUE
    30    32     1
SMALL
NO_CHARGES
****
Generated from CSD

@<TRIPOS>ATOM
      1 O1         8.3031    4.1618    3.9728 O.3       1 RES1    0.0000
      2 O2         5.6568    8.7653    2.2959 O.2       1 RES1    0.0000
      3 O3         7.4419    8.1619    3.3685 O.2       1 RES1    0.0000
      4 N1         7.9843    5.5129    3.7638 N.2       1 RES1    0.0000
      5 N2         7.3791    3.3362    3.3941 N.2       1 RES1    0.0000
      6 N3         4.9797    2.4809    1.7724 N.3       1 RES1    0.0000
      7 N4         6.4069    7.9023    2.7456 N.pl3     1 RES1    0.0000
      8 C1         6.8888    5.4810    3.0438 C.2       1 RES1    0.0000
      9 C2         6.5081    4.1171    2.8046 C.2       1 RES1    0.0000
     10 C3         5.3070    3.7469    2.0497 C.2       1 RES1    0.0000
     11 C4         4.5514    4.8660    1.6551 C.2       1 RES1    0.0000
     12 H1         3.7482    4.7192    1.2093 H         1 RES1    0.0000
     13 C5         4.9388    6.1703    1.8959 C.2       1 RES1    0.0000
     14 H2         4.3912    6.8533    1.5806 H         1 RES1    0.0000
     15 C6         6.0764    6.5214    2.5677 C.2       1 RES1    0.0000
     16 C7         3.7320    2.1554    1.0804 C.3       1 RES1    0.0000
     17 H3         3.9306    1.8405    0.1856 H         1 RES1    0.0000
     18 H4         3.1864    2.9554    1.0035 H         1 RES1    0.0000
     19 C8         2.9682    1.0936    1.8338 C.3       1 RES1    0.0000
     20 H5         2.6486    1.4639    2.6718 H         1 RES1    0.0000
     21 H6         2.1957    0.8255    1.3118 H         1 RES1    0.0000
     22 C9         3.8106   -0.1064    2.1149 C.3       1 RES1    0.0000
     23 H7         4.0135   -0.5596    1.2815 H         1 RES1    0.0000
     24 H8         3.3152   -0.7213    2.6772 H         1 RES1    0.0000
     25 C10        5.0945    0.2723    2.8015 C.3       1 RES1    0.0000
     26 H9         5.6511   -0.5149    2.9040 H         1 RES1    0.0000
     27 H10        4.8995    0.6213    3.6854 H         1 RES1    0.0000
     28 C11        5.8350    1.3128    1.9976 C.3       1 RES1    0.0000
     29 H11        6.6360    1.5830    2.4738 H         1 RES1    0.0000
     30 H12        6.1029    0.9383    1.1448 H         1 RES1    0.0000
@<TRIPOS>BOND
     1    1    4 1
     2    2    7 2
     3    3    7 2
     4    4    8 2
     5    5    1 1
     6    6   10 1
     7    7   15 1
     8    8    9 1
     9    9    5 2
    10   10    9 1
    11   11   10 2
    12   12   11 1
    13   13   11 1
    14   14   13 1
    15   15    8 1
    16   16    6 1
    17   17   16 1
    18   18   16 1
    19   19   16 1
    20   20   19 1
    21   21   19 1
    22   22   19 1
    23   23   22 1
    24   24   22 1
    25   25   22 1
    26   26   25 1
    27   27   25 1
    28   28    6 1
    29   29   28 1
    30   30   28 1
    31   13   15 2
    32   25   28 1
@<TRIPOS>SUBSTRUCTURE
     1 RES1 1

@<TRIPOS>CRYSIN
   6.7644   21.2770    7.7880  90.0000  94.2200  90.0000  14 1

