# MOL2 file generated by ConQuest
# Please check atom types

@<TRIPOS>MOLECULE
UFEFUG
    40    44     1
SMALL
NO_CHARGES
****
Generated from CSD

@<TRIPOS>ATOM
      1 O1         0.0000    0.3215    3.3666 O.2       1 RES1    0.0000
      2 N1         0.0000    1.1792    2.5977 N.2       1 RES1    0.0000
      3 N2         0.0000    2.2795    0.5023 N.2       1 RES1    0.0000
      4 C1         0.0000    2.4775    2.7842 C.2       1 RES1    0.0000
      5 C2         0.0000    3.2237    4.0035 C.2       1 RES1    0.0000
      6 C3         0.0000    4.5687    3.9039 C.2       1 RES1    0.0000
      7 C4         0.0000    5.2408    2.6215 C.2       1 RES1    0.0000
      8 C5         0.0000    4.5768    1.4492 C.2       1 RES1    0.0000
      9 C6         0.0000    3.1312    1.4835 C.2       1 RES1    0.0000
     10 C7         0.0000    0.9631    1.1225 C.3       1 RES1    0.0000
     11 C8         1.2606    0.1829    0.7434 C.3       1 RES1    0.0000
     12 H1         0.0000    2.7908    4.8490 H         1 RES1    0.0000
     13 H2         0.0000    5.0895    4.6981 H         1 RES1    0.0000
     14 H3         0.0000    6.1913    2.6065 H         1 RES1    0.0000
     15 H4         0.0000    5.0451    0.6226 H         1 RES1    0.0000
     16 H5         2.0600    0.7303    0.9474 H         1 RES1    0.0000
     17 H6         1.3108   -0.6445    1.2857 H         1 RES1    0.0000
     18 C8L        1.2606   -0.1829   -0.7434 C.3       1 RES1    0.0000
     19 C7L       -0.0000   -0.9631   -1.1225 C.3       1 RES1    0.0000
     20 N1L       -0.0000   -1.1792   -2.5977 N.2       1 RES1    0.0000
     21 O1L       -0.0000   -0.3215   -3.3666 O.2       1 RES1    0.0000
     22 C1L       -0.0000   -2.4775   -2.7842 C.2       1 RES1    0.0000
     23 C2L       -0.0000   -3.2237   -4.0035 C.2       1 RES1    0.0000
     24 C3L       -0.0000   -4.5687   -3.9039 C.2       1 RES1    0.0000
     25 C4L       -0.0000   -5.2408   -2.6215 C.2       1 RES1    0.0000
     26 C5L       -0.0000   -4.5768   -1.4492 C.2       1 RES1    0.0000
     27 C6L       -0.0000   -3.1312   -1.4835 C.2       1 RES1    0.0000
     28 N2L       -0.0000   -2.2795   -0.5023 N.2       1 RES1    0.0000
     29 C8H       -1.2606   -0.1829   -0.7434 C.3       1 RES1    0.0000
     30 C8D       -1.2606    0.1829    0.7434 C.3       1 RES1    0.0000
     31 H5D       -2.0600    0.7303    0.9474 H         1 RES1    0.0000
     32 H6D       -1.3108   -0.6445    1.2857 H         1 RES1    0.0000
     33 H5H       -2.0600   -0.7303   -0.9474 H         1 RES1    0.0000
     34 H6H       -1.3108    0.6445   -1.2857 H         1 RES1    0.0000
     35 H4L       -0.0000   -5.0451   -0.6226 H         1 RES1    0.0000
     36 H3L       -0.0000   -6.1913   -2.6065 H         1 RES1    0.0000
     37 H2L       -0.0000   -5.0895   -4.6981 H         1 RES1    0.0000
     38 H1L       -0.0000   -2.7908   -4.8490 H         1 RES1    0.0000
     39 H5L        2.0600   -0.7303   -0.9474 H         1 RES1    0.0000
     40 H6L        1.3108    0.6445   -1.2857 H         1 RES1    0.0000
@<TRIPOS>BOND
     1    1    2 1
     2    2    4 1
     3    3    9 1
     4    4    5 1
     5    5    6 1
     6    6    7 1
     7    7    8 1
     8    8    9 1
     9    9    4 1
    10   10    2 1
    11   11   10 1
    12   12    5 1
    13   13    6 1
    14   14    7 1
    15   15    8 1
    16   16   11 1
    17   17   11 1
    18   18   11 1
    19   19   18 1
    20   20   19 1
    21   21   20 1
    22   22   20 1
    23   23   22 1
    24   24   23 1
    25   25   24 1
    26   26   25 1
    27   27   22 1
    28   28   19 1
    29   29   19 1
    30   30   10 1
    31   31   30 1
    32   32   30 1
    33   33   29 1
    34   34   29 1
    35   35   26 1
    36   36   25 1
    37   37   24 1
    38   38   23 1
    39   39   18 1
    40   40   18 1
    41    3   10 1
    42   26   27 1
    43   27   28 1
    44   29   30 1
@<TRIPOS>SUBSTRUCTURE
     1 RES1 1

@<TRIPOS>CRYSIN
   6.7740   15.8750   13.4770  90.0000  90.0000  90.0000  64 1

