# MOL2 file generated by ConQuest
# Please check atom types

@<TRIPOS>MOLECULE
UFEGAN
    40    44     1
SMALL
NO_CHARGES
****
Generated from CSD

@<TRIPOS>ATOM
      1 O1        -2.0209    4.3090    3.0048 O.2       1 RES1    0.0000
      2 N1        -1.0785    4.9632    2.4515 N.pl3     1 RES1    0.0000
      3 N2         0.5311    5.5492    0.8487 N.2       1 RES1    0.0000
      4 C1        -0.4308    6.0283    2.8909 C.2       1 RES1    0.0000
      5 C2        -0.5579    6.7693    4.0959 C.2       1 RES1    0.0000
      6 C3         0.3182    7.7626    4.2832 C.2       1 RES1    0.0000
      7 C4         1.3082    8.1142    3.3012 C.2       1 RES1    0.0000
      8 C5         1.4377    7.4543    2.1300 C.2       1 RES1    0.0000
      9 C6         0.5585    6.3487    1.8838 C.2       1 RES1    0.0000
     10 C7        -0.5009    4.5685    1.1181 C.3       1 RES1    0.0000
     11 C8        -1.6102    4.6080    0.0772 C.3       1 RES1    0.0000
     12 C9         0.0934    3.1661    1.2591 C.3       1 RES1    0.0000
     13 H1        -1.2169    6.5744    4.7215 H         1 RES1    0.0000
     14 H2         0.2863    8.2437    5.0778 H         1 RES1    0.0000
     15 H3         1.8814    8.8249    3.4789 H         1 RES1    0.0000
     16 H4         2.0775    7.7079    1.5034 H         1 RES1    0.0000
     17 H5        -2.3683    4.0962    0.3997 H         1 RES1    0.0000
     18 H6        -1.9002    5.5259   -0.0454 H         1 RES1    0.0000
     19 H7         0.8519    3.2002    1.8625 H         1 RES1    0.0000
     20 H8        -0.5703    2.5757    1.6463 H         1 RES1    0.0000
     21 C9A       -1.1596    4.0455   -1.2591 C.3       1 RES1    0.0000
     22 C7A       -0.5654    2.6431   -1.1181 C.3       1 RES1    0.0000
     23 N1A        0.0123    2.2485   -2.4515 N.pl3     1 RES1    0.0000
     24 O1A        0.9547    2.9026   -3.0048 O.2       1 RES1    0.0000
     25 C1A       -0.6354    1.1833   -2.8909 C.2       1 RES1    0.0000
     26 C2A       -0.5083    0.4423   -4.0959 C.2       1 RES1    0.0000
     27 C3A       -1.3844   -0.5510   -4.2832 C.2       1 RES1    0.0000
     28 C4A       -2.3744   -0.9026   -3.3012 C.2       1 RES1    0.0000
     29 C5A       -2.5039   -0.2427   -2.1300 C.2       1 RES1    0.0000
     30 C6A       -1.6247    0.8629   -1.8838 C.2       1 RES1    0.0000
     31 N2A       -1.5973    1.6624   -0.8487 N.2       1 RES1    0.0000
     32 C8A        0.5440    2.6036   -0.0772 C.3       1 RES1    0.0000
     33 H5A        1.3021    3.1154   -0.3997 H         1 RES1    0.0000
     34 H6A        0.8340    1.6857    0.0454 H         1 RES1    0.0000
     35 H4A       -3.1437   -0.4963   -1.5034 H         1 RES1    0.0000
     36 H3A       -2.9476   -1.6133   -3.4789 H         1 RES1    0.0000
     37 H2A       -1.3525   -1.0321   -5.0778 H         1 RES1    0.0000
     38 H1A        0.1507    0.6372   -4.7215 H         1 RES1    0.0000
     39 H7A       -1.9181    4.0114   -1.8625 H         1 RES1    0.0000
     40 H8A       -0.4959    4.6359   -1.6463 H         1 RES1    0.0000
@<TRIPOS>BOND
     1    1    2 1
     2    2    4 2
     3    3    9 2
     4    4    5 1
     5    5    6 2
     6    6    7 1
     7    7    8 2
     8    8    9 1
     9    9    4 1
    10   10    2 1
    11   11   10 1
    12   12   10 1
    13   13    5 1
    14   14    6 1
    15   15    7 1
    16   16    8 1
    17   17   11 1
    18   18   11 1
    19   19   12 1
    20   20   12 1
    21   21   11 1
    22   22   21 1
    23   23   22 1
    24   24   23 1
    25   25   23 2
    26   26   25 1
    27   27   26 2
    28   28   27 1
    29   29   28 2
    30   30   25 1
    31   31   22 1
    32   32   12 1
    33   33   32 1
    34   34   32 1
    35   35   29 1
    36   36   28 1
    37   37   27 1
    38   38   26 1
    39   39   21 1
    40   40   21 1
    41    3   10 1
    42   22   32 1
    43   29   30 1
    44   30   31 2
@<TRIPOS>SUBSTRUCTURE
     1 RES1 1

@<TRIPOS>CRYSIN
   5.4160    7.2900   10.4260 104.3900 104.1500  98.4100   2 1

