# MOL2 file generated by ConQuest
# Please check atom types

@<TRIPOS>MOLECULE
UFEPAW
    34    36     1
SMALL
NO_CHARGES
****
Generated from CSD

@<TRIPOS>ATOM
      1 O1         0.3375   10.5162    6.1907 O.3       1 RES1    0.0000
      2 N1        -0.3135   11.4544    5.3387 N.2       1 RES1    0.0000
      3 C1         0.0875   13.1539    3.6339 C.3       1 RES1    0.0000
      4 C2         0.5113   12.0906    4.6085 C.2       1 RES1    0.0000
      5 C3         2.0132   11.9699    4.5878 C.3       1 RES1    0.0000
      6 C4         2.6027   12.7506    5.7559 C.3       1 RES1    0.0000
      7 C5         2.2917   14.2258    5.8432 C.2       1 RES1    0.0000
      8 C6         1.3152   14.9030    5.2431 C.2       1 RES1    0.0000
      9 C7         0.1736   14.5277    4.3421 C.3       1 RES1    0.0000
     10 C8         1.1303   12.9749    2.5204 C.3       1 RES1    0.0000
     11 C9         2.4239   12.5392    3.2085 C.3       1 RES1    0.0000
     12 C10       -1.3778   13.0870    3.1733 C.3       1 RES1    0.0000
     13 C11       -2.1697   14.0468    4.0159 C.3       1 RES1    0.0000
     14 C12       -1.1802   14.6636    5.0006 C.3       1 RES1    0.0000
     15 C13        3.2377   14.9569    6.7682 C.3       1 RES1    0.0000
     16 H1         2.2788   11.0079    4.6518 H         1 RES1    0.0000
     17 H2         2.2921   12.3236    6.5935 H         1 RES1    0.0000
     18 H3         3.5872   12.6492    5.7239 H         1 RES1    0.0000
     19 H4         1.3476   15.8347    5.4260 H         1 RES1    0.0000
     20 H5         0.1812   15.2049    3.6069 H         1 RES1    0.0000
     21 H6         0.8332   12.2869    1.8744 H         1 RES1    0.0000
     22 H7         1.2671   13.8268    2.0347 H         1 RES1    0.0000
     23 H8         3.0338   13.3113    3.3210 H         1 RES1    0.0000
     24 H9         2.8854   11.8469    2.6718 H         1 RES1    0.0000
     25 H10       -1.4463   13.3351    2.2175 H         1 RES1    0.0000
     26 H11       -1.7278   12.1661    3.2833 H         1 RES1    0.0000
     27 H12       -2.8890   13.5701    4.5004 H         1 RES1    0.0000
     28 H13       -2.5795   14.7477    3.4504 H         1 RES1    0.0000
     29 H14       -1.3958   15.6169    5.1621 H         1 RES1    0.0000
     30 H15       -1.1992   14.1805    5.8646 H         1 RES1    0.0000
     31 H16        2.9482   15.8886    6.8612 H         1 RES1    0.0000
     32 H17        4.1440   14.9332    6.3956 H         1 RES1    0.0000
     33 H18        3.2348   14.5256    7.6479 H         1 RES1    0.0000
     34 H19       -0.3482   10.2553    6.6545 H         1 RES1    0.0000
@<TRIPOS>BOND
     1    1    2 1
     2    2    4 2
     3    3    4 1
     4    4    5 1
     5    5    6 1
     6    6    7 1
     7    7    8 2
     8    8    9 1
     9    9    3 1
    10   10    3 1
    11   11    5 1
    12   12    3 1
    13   13   12 1
    14   14    9 1
    15   15    7 1
    16   16    5 1
    17   17    6 1
    18   18    6 1
    19   19    8 1
    20   20    9 1
    21   21   10 1
    22   22   10 1
    23   23   11 1
    24   24   11 1
    25   25   12 1
    26   26   12 1
    27   27   13 1
    28   28   13 1
    29   29   14 1
    30   30   14 1
    31   31   15 1
    32   32   15 1
    33   33   15 1
    34   34    1 1
    35   10   11 1
    36   13   14 1
@<TRIPOS>SUBSTRUCTURE
     1 RES1 1

@<TRIPOS>CRYSIN
   8.4097   21.5673    6.4084  90.0000 101.3200  90.0000  14 1

