# MOL2 file generated by ConQuest
# Please check atom types

@<TRIPOS>MOLECULE
UFEQIG
    35    36     1
SMALL
NO_CHARGES
****
Generated from CSD

@<TRIPOS>ATOM
      1 N1         0.0461    9.1199    9.8993 N.2       1 RES1    0.0000
      2 O1         5.3240    9.9348    9.8164 O.3       1 RES1    0.0000
      3 H1         6.3084    9.6243    9.9524 H         1 RES1    0.0000
      4 O2         4.7782    8.0214   10.8241 O.2       1 RES1    0.0000
      5 O3         0.8336    8.5396    8.8696 O.3       1 RES1    0.0000
      6 C1         4.4720    9.1140   10.4191 C.2       1 RES1    0.0000
      7 C2         3.0824    9.6989   10.4963 C.3       1 RES1    0.0000
      8 H2         2.7452    9.8409    9.5973 H         1 RES1    0.0000
      9 H3         3.1226   10.5606   10.9389 H         1 RES1    0.0000
     10 C3         2.1160    8.7836   11.2598 C.3       1 RES1    0.0000
     11 H4         2.2154    7.8789   10.8979 H         1 RES1    0.0000
     12 C4         2.4413    8.7208   12.7909 C.3       1 RES1    0.0000
     13 H5         2.5494    7.7927   13.0498 H         1 RES1    0.0000
     14 H6         3.2861    9.1715   12.9497 H         1 RES1    0.0000
     15 C5         1.3722    9.3569   13.6724 C.3       1 RES1    0.0000
     16 H7         1.6020    9.4282   14.6221 H         1 RES1    0.0000
     17 C6        -0.0505    8.7774   13.3729 C.3       1 RES1    0.0000
     18 C7        -0.0703    9.7974   12.1778 C.3       1 RES1    0.0000
     19 H8        -0.9403   10.1982   11.9708 H         1 RES1    0.0000
     20 C8         0.6782    9.2212   11.0170 C.2       1 RES1    0.0000
     21 C9         0.9001   10.6761   13.0060 C.3       1 RES1    0.0000
     22 H9         0.4603   11.2927   13.6114 H         1 RES1    0.0000
     23 H10        1.5814   11.1222   12.4792 H         1 RES1    0.0000
     24 C10       -0.1769    7.3012   13.0559 C.3       1 RES1    0.0000
     25 H11        0.4721    7.0596   12.3912 H         1 RES1    0.0000
     26 H12       -1.0588    7.1202   12.7220 H         1 RES1    0.0000
     27 H13       -0.0245    6.7885   13.8527 H         1 RES1    0.0000
     28 C11       -1.0809    9.1530   14.4345 C.3       1 RES1    0.0000
     29 H14       -1.0035   10.0884   14.6388 H         1 RES1    0.0000
     30 H15       -0.9253    8.6376   15.2291 H         1 RES1    0.0000
     31 H16       -1.9636    8.9703   14.1031 H         1 RES1    0.0000
     32 C12        0.1066    8.6304    7.6323 C.3       1 RES1    0.0000
     33 H17        0.6261    8.2413    6.9263 H         1 RES1    0.0000
     34 H18       -0.0679    9.5524    7.4302 H         1 RES1    0.0000
     35 H19       -0.7256    8.1592    7.7140 H         1 RES1    0.0000
@<TRIPOS>BOND
     1    1    5 1
     2    2    3 1
     3    4    6 2
     4    5   32 1
     5    6    2 1
     6    7    6 1
     7    8    7 1
     8    9    7 1
     9   10    7 1
    10   11   10 1
    11   12   10 1
    12   13   12 1
    13   14   12 1
    14   15   12 1
    15   16   15 1
    16   17   15 1
    17   18   17 1
    18   19   18 1
    19   20    1 2
    20   21   15 1
    21   22   21 1
    22   23   21 1
    23   24   17 1
    24   25   24 1
    25   26   24 1
    26   27   24 1
    27   28   17 1
    28   29   28 1
    29   30   28 1
    30   31   28 1
    31   32   33 1
    32   34   32 1
    33   35   32 1
    34   10   20 1
    35   18   20 1
    36   18   21 1
@<TRIPOS>SUBSTRUCTURE
     1 RES1 1

@<TRIPOS>CRYSIN
   7.8954   10.2670   15.1760  90.0000  90.0000  90.0000  19 1

