# MOL2 file generated by ConQuest
# Please check atom types

@<TRIPOS>MOLECULE
UFEQAX
    31    32     1
SMALL
NO_CHARGES
****
Generated from CSD

@<TRIPOS>ATOM
      1 N1        -1.4063    2.3726    9.1333 N.3       1 RES1    0.0000
      2 C1        -2.7253    1.7609    9.3758 C.3       1 RES1    0.0000
      3 C2        -1.3052    3.0487    7.8554 C.3       1 RES1    0.0000
      4 C3         0.0190    3.7512    7.8707 C.2       1 RES1    0.0000
      5 C4         1.0519    3.2829    8.6287 C.2       1 RES1    0.0000
      6 N2         0.9430    2.1671    9.3430 N.3       1 RES1    0.0000
      7 C5         2.0900    1.5698   10.0333 C.3       1 RES1    0.0000
      8 C6        -0.3189    1.3989    9.2622 C.3       1 RES1    0.0000
      9 C7        -0.3414    0.4671    8.0891 C.2       1 RES1    0.0000
     10 C8        -0.9361    0.8398    6.8986 C.2       1 RES1    0.0000
     11 N3        -1.4080    2.0715    6.7151 N.pl3     1 RES1    0.0000
     12 C9        -2.1358    2.4574    5.5049 C.3       1 RES1    0.0000
     13 N4         0.1651    4.9685    7.1782 N.pl3     1 RES1    0.0000
     14 O1        -0.7961    5.3938    6.5119 O.2       1 RES1    0.0000
     15 O2         1.2559    5.5826    7.2263 O.2       1 RES1    0.0000
     16 N5         0.0778   -0.8554    8.2486 N.pl3     1 RES1    0.0000
     17 O3         0.5247   -1.1970    9.3823 O.2       1 RES1    0.0000
     18 O4         0.0035   -1.6737    7.3180 O.2       1 RES1    0.0000
     19 H1        -3.4237    2.4418    9.2775 H         1 RES1    0.0000
     20 H2        -2.7530    1.3930   10.2823 H         1 RES1    0.0000
     21 H3        -2.8766    1.0429    8.7270 H         1 RES1    0.0000
     22 H4        -2.0381    3.7249    7.7789 H         1 RES1    0.0000
     23 H5         1.8687    3.7667    8.6484 H         1 RES1    0.0000
     24 H6         2.8040    2.2376   10.1163 H         1 RES1    0.0000
     25 H7         2.4185    0.8040    9.5178 H         1 RES1    0.0000
     26 H8         1.8160    1.2711   10.9246 H         1 RES1    0.0000
     27 H9        -0.4417    0.8781   10.1054 H         1 RES1    0.0000
     28 H10       -1.0087    0.2043    6.1974 H         1 RES1    0.0000
     29 H11       -2.0684    1.7406    4.8386 H         1 RES1    0.0000
     30 H12       -1.7486    3.2805    5.1379 H         1 RES1    0.0000
     31 H13       -3.0788    2.6103    5.7255 H         1 RES1    0.0000
@<TRIPOS>BOND
     1    1    2 1
     2    2   19 1
     3    3    1 1
     4    4    3 1
     5    5    4 2
     6    6    5 1
     7    7    6 1
     8    8    1 1
     9    9    8 1
    10   10    9 2
    11   11    3 1
    12   12   11 1
    13   13    4 1
    14   14   13 2
    15   15   13 2
    16   16    9 1
    17   17   16 2
    18   18   16 2
    19   20    2 1
    20   21    2 1
    21   22    3 1
    22   23    5 1
    23   24    7 1
    24   25    7 1
    25   26    7 1
    26   27    8 1
    27   28   10 1
    28   29   12 1
    29   30   12 1
    30   31   12 1
    31    6    8 1
    32   10   11 1
@<TRIPOS>SUBSTRUCTURE
     1 RES1 1

@<TRIPOS>CRYSIN
   8.6435   11.9464   21.8448  90.0000  90.0000  90.0000  61 1

