# MOL2 file generated by ConQuest
# Please check atom types

@<TRIPOS>MOLECULE
UFEWIN
    30    30     1
SMALL
USER_CHARGES
****
Generated from CSD

@<TRIPOS>ATOM
      1 C1         4.1087    1.1119    2.2826 C.ar      1 RES1    0.0000
      2 H1         4.8298    1.5293    2.6941 H         1 RES1    0.0000
      3 C2         4.2969    0.5269    1.0533 C.ar      1 RES1    0.0000
      4 C3         3.2008   -0.0765    0.4510 C.ar      1 RES1    0.0000
      5 H2         3.2851   -0.4657   -0.3891 H         1 RES1    0.0000
      6 C4         1.9927   -0.0964    1.1001 C.ar      1 RES1    0.0000
      7 H3         1.2620   -0.4983    0.6891 H         1 RES1    0.0000
      8 C5         1.8355    0.4679    2.3563 C.ar      1 RES1    0.0000
      9 C6         0.3124   -0.6232    3.9633 C.3       1 RES1    0.0000
     10 C7         0.1359   -1.9171    3.1646 C.3       1 RES1    0.0000
     11 H4         0.9712   -2.1554    2.7536 H         1 RES1    0.0000
     12 H5        -0.5282   -1.7848    2.4833 H         1 RES1    0.0000
     13 H6        -0.1441   -2.6210    3.7534 H         1 RES1    0.0000
     14 C8         1.4505   -0.7946    4.9548 C.3       1 RES1    0.0000
     15 H7         2.2677   -0.9613    4.4776 H         1 RES1    0.0000
     16 H8         1.2611   -1.5357    5.5341 H         1 RES1    0.0000
     17 H9         1.5429    0.0054    5.4774 H         1 RES1    0.0000
     18 C9        -0.9594   -0.2691    4.7213 C.3       1 RES1    0.0000
     19 H10       -1.1714   -0.9748    5.3369 H         1 RES1    0.0000
     20 H11       -1.6824   -0.1595    4.0993 H         1 RES1    0.0000
     21 H12       -0.8263    0.5490    5.2045 H         1 RES1    0.0000
     22 C10        5.6470    0.5717    0.4007 C.3       1 RES1    0.0000
     23 H13        6.0629    1.4179    0.5837 H         1 RES1    0.0000
     24 H14        5.5474    0.4639   -0.5486 H         1 RES1    0.0000
     25 H15        6.1943   -0.1359    0.7485 H         1 RES1    0.0000
     26 N1         2.9058    1.1022    2.9170 N.pl3     1 RES1    1.0000
     27 N2         0.6190    0.5422    3.0684 N.3       1 RES1    0.0000
     28 O1         2.7851    1.7036    4.0825 O.2       1 RES1   -1.0000
     29 O2        -0.4274    0.6208    2.0788 O.3       1 RES1    0.0000
     30 H16       -0.8516    1.3680    2.3293 H         1 RES1    0.0000
@<TRIPOS>BOND
     1    1    2 1
     2    3    1 ar
     3    4    3 ar
     4    5    4 1
     5    6    4 ar
     6    7    6 1
     7    8    6 ar
     8    9   10 1
     9   10   11 1
    10   12   10 1
    11   13   10 1
    12   14    9 1
    13   15   14 1
    14   16   14 1
    15   17   14 1
    16   18    9 1
    17   19   18 1
    18   20   18 1
    19   21   18 1
    20   22    3 1
    21   23   22 1
    22   24   22 1
    23   25   22 1
    24   26    1 ar
    25   27    8 1
    26   28   26 1
    27   29   27 1
    28   30   29 1
    29    8   26 ar
    30    9   27 1
@<TRIPOS>SUBSTRUCTURE
     1 RES1 1

@<TRIPOS>CRYSIN
   9.0599    9.0599   27.0222  90.0000  90.0000  90.0000  96 1

