# MOL2 file generated by ConQuest
# Please check atom types

@<TRIPOS>MOLECULE
UFIMEE
    25    26     1
SMALL
NO_CHARGES
****
Generated from CSD

@<TRIPOS>ATOM
      1 C1         4.1358    7.5722   -2.6800 C.2       1 RES1    0.0000
      2 C2         2.7324    7.0537   -2.7564 C.3       1 RES1    0.0000
      3 H1         2.4645    7.0076   -3.6880 H         1 RES1    0.0000
      4 H2         2.7101    6.1528   -2.3982 H         1 RES1    0.0000
      5 C3         5.1139    7.2323   -1.8386 C.2       1 RES1    0.0000
      6 H3         5.9605    7.5590   -2.0418 H         1 RES1    0.0000
      7 C4         5.0159    6.4103   -0.6380 C.ar      1 RES1    0.0000
      8 C5         3.8091    6.2699    0.0853 C.ar      1 RES1    0.0000
      9 H4         3.0224    6.6752   -0.1983 H         1 RES1    0.0000
     10 C6         3.8511    5.5133    1.2158 C.ar      1 RES1    0.0000
     11 C7         5.0024    4.9025    1.6678 C.ar      1 RES1    0.0000
     12 C8         6.1929    5.0457    1.0083 C.ar      1 RES1    0.0000
     13 H5         6.9733    4.6450    1.3169 H         1 RES1    0.0000
     14 C9         6.1772    5.8194   -0.1468 C.ar      1 RES1    0.0000
     15 H6         6.9731    5.9477   -0.6098 H         1 RES1    0.0000
     16 C10        3.3744    4.4365    3.1165 C.3       1 RES1    0.0000
     17 H7         3.2757    4.8604    3.9835 H         1 RES1    0.0000
     18 H8         2.9077    3.5866    3.1371 H         1 RES1    0.0000
     19 N1         4.4568    8.5742   -3.7004 N.pl3     1 RES1    0.0000
     20 O1         5.6241    8.8504   -3.9515 O.2       1 RES1    0.0000
     21 O2         3.5069    9.1080   -4.2651 O.2       1 RES1    0.0000
     22 O3         1.8060    7.8484   -2.0531 O.3       1 RES1    0.0000
     23 H9         1.7749    8.5952   -2.3898 H         1 RES1    0.0000
     24 O4         2.8255    5.2726    2.0974 O.3       1 RES1    0.0000
     25 O5         4.7513    4.2304    2.8285 O.3       1 RES1    0.0000
@<TRIPOS>BOND
     1    1    2 1
     2    2    3 1
     3    4    2 1
     4    5    1 2
     5    6    5 1
     6    7    5 1
     7    8    7 ar
     8    9    8 1
     9   10    8 ar
    10   11   10 ar
    11   12   11 ar
    12   13   12 1
    13   14    7 ar
    14   15   14 1
    15   16   17 1
    16   18   16 1
    17   19    1 1
    18   20   19 2
    19   21   19 2
    20   22    2 1
    21   23   22 1
    22   24   10 1
    23   25   11 1
    24   12   14 ar
    25   16   24 1
    26   16   25 1
@<TRIPOS>SUBSTRUCTURE
     1 RES1 1

@<TRIPOS>CRYSIN
   6.6540    8.2655    9.4233  83.0150  88.6340  76.3910   2 1

