# MOL2 file generated by ConQuest
# Please check atom types

@<TRIPOS>MOLECULE
UFINEE
    89    97     2
SMALL
NO_CHARGES
****
Generated from CSD

@<TRIPOS>ATOM
      1 C1         5.0661    5.0244   14.1377 C.ar      1 RES1    0.0000
      2 O1         6.4095    5.5594   15.9495 O.2       1 RES1    0.0000
      3 O2         4.8482    4.1098   16.2606 O.2       1 RES1    0.0000
      4 C2         4.2561    4.0087   13.6326 C.ar      1 RES1    0.0000
      5 H1         4.0861    3.2370   14.1584 H         1 RES1    0.0000
      6 C3         3.6952    4.1150   12.3628 C.ar      1 RES1    0.0000
      7 C4         3.9854    5.2935   11.6628 C.ar      1 RES1    0.0000
      8 C5         3.7343    7.0997   10.2831 C.3       1 RES1    0.0000
      9 H2         3.9737    7.2321    9.3205 H         1 RES1    0.0000
     10 C6         2.5560    8.0080   10.6393 C.3       1 RES1    0.0000
     11 H3         2.7240    8.8621   10.1484 H         1 RES1    0.0000
     12 C7         2.5101    8.3907   12.0969 C.2       1 RES1    0.0000
     13 H4         1.6825    8.3823   12.5612 H         1 RES1    0.0000
     14 C8         3.6151    8.7359   12.7274 C.2       1 RES1    0.0000
     15 H5         3.5799    9.0383   13.6270 H         1 RES1    0.0000
     16 C9         6.1643    8.5836   12.9310 C.3       1 RES1    0.0000
     17 H6         6.1565    9.4148   13.4849 H         1 RES1    0.0000
     18 O3         1.3200    7.5251   10.1342 O.3       1 RES1    0.0000
     19 H7         1.2291    6.7367   10.3400 H         1 RES1    0.0000
     20 C10        6.1438    7.3875   13.9106 C.3       1 RES1    0.0000
     21 H8         7.0778    7.1382   14.1244 H         1 RES1    0.0000
     22 H9         5.7119    7.6774   14.7515 H         1 RES1    0.0000
     23 C11        5.4256    6.1621   13.4015 C.ar      1 RES1    0.0000
     24 C12        4.8814    6.2080   12.1247 C.ar      1 RES1    0.0000
     25 C13        4.9752    7.3604   11.1534 C.3       1 RES1    0.0000
     26 C14        4.9302    8.6451   12.0107 C.3       1 RES1    0.0000
     27 H10        5.0201    9.4367   11.4058 H         1 RES1    0.0000
     28 C15        6.2620    7.3291   10.3403 C.3       1 RES1    0.0000
     29 H11        6.3147    6.4719    9.8488 H         1 RES1    0.0000
     30 H12        6.2434    8.0622    9.6758 H         1 RES1    0.0000
     31 C16        7.4941    7.4792   11.2133 C.3       1 RES1    0.0000
     32 H13        7.6064    6.6710   11.7734 H         1 RES1    0.0000
     33 H14        8.2972    7.5741   10.6427 H         1 RES1    0.0000
     34 N1         7.3582    8.6524   12.0681 N.3       1 RES1    0.0000
     35 C17        8.5776    8.9330   12.8074 C.3       1 RES1    0.0000
     36 H15        9.3036    9.1269   12.1781 H         1 RES1    0.0000
     37 H16        8.8160    8.1529   13.3520 H         1 RES1    0.0000
     38 H17        8.4350    9.7068   13.3922 H         1 RES1    0.0000
     39 O4         3.3621    5.6772   10.5037 O.3       1 RES1    0.0000
     40 O5         2.8706    3.2172   11.7647 O.3       1 RES1    0.0000
     41 C18        2.4964    2.0596   12.5442 C.3       1 RES1    0.0000
     42 H18        1.9004    1.4892   12.0144 H         1 RES1    0.0000
     43 H19        2.0342    2.3495   13.3582 H         1 RES1    0.0000
     44 H20        3.3005    1.5559   12.7867 H         1 RES1    0.0000
     45 N2         5.4754    4.8857   15.5396 N.pl3     1 RES1    0.0000
     46 O6         1.4119    3.8512   17.2446 O.2       2 RES2    0.0000
     47 C19        2.9331    2.2650   17.9863 C.ar      2 RES2    0.0000
     48 O7         2.3098    2.5393   15.7731 O.2       2 RES2    0.0000
     49 C20        3.8359    1.2869   17.5649 C.ar      2 RES2    0.0000
     50 H21        3.8936    1.0679   16.6422 H         2 RES2    0.0000
     51 C21        4.6440    0.6351   18.4680 C.ar      2 RES2    0.0000
     52 C22        4.4349    0.9333   19.8149 C.ar      2 RES2    0.0000
     53 C23        4.7935    1.2024   22.0642 C.3       2 RES2    0.0000
     54 H22        4.6195    0.5537   22.8054 H         2 RES2    0.0000
     55 C24        5.9210    2.1472   22.4801 C.3       2 RES2    0.0000
     56 C25        5.8878    3.4362   21.6793 C.2       2 RES2    0.0000
     57 H23        6.6929    3.7949   21.3225 H         2 RES2    0.0000
     58 C26        4.7426    4.0598   21.4766 C.2       2 RES2    0.0000
     59 H24        4.7192    4.8815   21.0012 H         2 RES2    0.0000
     60 C27        2.1525    3.9941   21.4383 C.3       2 RES2    0.0000
     61 H25        2.1359    4.9785   21.6098 H         2 RES2    0.0000
     62 C28        2.0167    3.7918   19.9051 C.3       2 RES2    0.0000
     63 H26        1.0552    3.7010   19.6851 H         2 RES2    0.0000
     64 H27        2.3489    4.6062   19.4504 H         2 RES2    0.0000
     65 C29        2.7475    2.6019   19.3379 C.ar      2 RES2    0.0000
     66 C30        3.4676    1.8093   20.2199 C.ar      2 RES2    0.0000
     67 C31        3.4891    1.9407   21.7253 C.3       2 RES2    0.0000
     68 C32        3.4764    3.4518   22.0120 C.3       2 RES2    0.0000
     69 H28        3.4637    3.5811   23.0031 H         2 RES2    0.0000
     70 C33        2.2775    1.2900   22.4007 C.3       2 RES2    0.0000
     71 H29        2.2433    0.3327   22.1535 H         2 RES2    0.0000
     72 H30        2.3840    1.3473   23.3831 H         2 RES2    0.0000
     73 C34        0.9761    1.9501   22.0052 C.3       2 RES2    0.0000
     74 H31        0.7875    1.7676   21.0506 H         2 RES2    0.0000
     75 H32        0.2355    1.5747   22.5428 H         2 RES2    0.0000
     76 N3         1.0630    3.3944   22.2246 N.3       2 RES2    0.0000
     77 C35       -0.2159    4.0462   21.9870 C.3       2 RES2    0.0000
     78 H33       -0.1241    5.0098   22.1381 H         2 RES2    0.0000
     79 H34       -0.8872    3.6812   22.6015 H         2 RES2    0.0000
     80 H35       -0.4973    3.8846   21.0630 H         2 RES2    0.0000
     81 O8         7.1863    1.5027   22.4652 O.3       2 RES2    0.0000
     82 H36        7.3074    1.1888   21.7673 H         2 RES2    0.0000
     83 O9         5.1950    0.4526   20.8449 O.3       2 RES2    0.0000
     84 O10        5.6161   -0.2795   18.1732 O.3       2 RES2    0.0000
     85 C36        5.9122   -0.4588   16.7815 C.3       2 RES2    0.0000
     86 H37        6.6772   -1.0637   16.6854 H         2 RES2    0.0000
     87 H38        6.1281    0.4078   16.3796 H         2 RES2    0.0000
     88 H39        5.1335   -0.8447   16.3301 H         2 RES2    0.0000
     89 N4         2.1788    2.9304   16.9412 N.pl3     2 RES2    0.0000
@<TRIPOS>BOND
     1    1    4 ar
     2    2   45 2
     3    3   45 2
     4    4    5 1
     5    6    4 ar
     6    7    6 ar
     7    8    9 1
     8   10    8 1
     9   11   10 1
    10   12   10 1
    11   13   12 1
    12   14   12 2
    13   15   14 1
    14   16   17 1
    15   18   10 1
    16   19   18 1
    17   20   16 1
    18   21   20 1
    19   22   20 1
    20   23    1 ar
    21   24    7 ar
    22   25    8 1
    23   26   14 1
    24   27   26 1
    25   28   25 1
    26   29   28 1
    27   30   28 1
    28   31   28 1
    29   32   31 1
    30   33   31 1
    31   34   16 1
    32   35   34 1
    33   36   35 1
    34   37   35 1
    35   38   35 1
    36   39    7 1
    37   40    6 1
    38   41   40 1
    39   42   41 1
    40   43   41 1
    41   44   41 1
    42   45    1 1
    43   46   89 2
    44   47   49 ar
    45   48   89 2
    46   49   50 1
    47   51   49 ar
    48   52   51 ar
    49   53   54 1
    50   55   53 1
    51   56   55 1
    52   57   56 1
    53   58   56 2
    54   59   58 1
    55   60   61 1
    56   62   60 1
    57   63   62 1
    58   64   62 1
    59   65   47 ar
    60   66   52 ar
    61   67   53 1
    62   68   58 1
    63   69   68 1
    64   70   67 1
    65   71   70 1
    66   72   70 1
    67   73   70 1
    68   74   73 1
    69   75   73 1
    70   76   60 1
    71   77   76 1
    72   78   77 1
    73   79   77 1
    74   80   77 1
    75   81   55 1
    76   82   81 1
    77   83   52 1
    78   84   51 1
    79   85   84 1
    80   86   85 1
    81   87   85 1
    82   88   85 1
    83   89   47 1
    84    8   39 1
    85   16   26 1
    86   20   23 1
    87   23   24 ar
    88   24   25 1
    89   25   26 1
    90   31   34 1
    91   53   83 1
    92   60   68 1
    93   62   65 1
    94   65   66 ar
    95   66   67 1
    96   67   68 1
    97   73   76 1
@<TRIPOS>SUBSTRUCTURE
     1 RES1 1
     2 RES2 46

@<TRIPOS>CRYSIN
   9.7706   10.4284   30.8932  90.0000  90.0000  90.0000  19 1

