# MOL2 file generated by ConQuest
# Please check atom types

@<TRIPOS>MOLECULE
UFOCIE
    59    63     1
SMALL
NO_CHARGES
****
Generated from CSD

@<TRIPOS>ATOM
      1 C1         8.4505   -0.6520   16.3417 C.ar      1 RES1    0.0000
      2 C2         7.0880   -0.9001   16.3815 C.ar      1 RES1    0.0000
      3 H1         6.7553   -1.7721   16.5596 H         1 RES1    0.0000
      4 C3         6.2212    0.1621   16.1532 C.ar      1 RES1    0.0000
      5 H2         5.2812    0.0324   16.2053 H         1 RES1    0.0000
      6 C4         6.7402    1.4198   15.8484 C.ar      1 RES1    0.0000
      7 C5         8.1103    1.6538   15.8666 C.ar      1 RES1    0.0000
      8 H3         8.4476    2.5249   15.6984 H         1 RES1    0.0000
      9 C6         8.9852    0.6038   16.1323 C.ar      1 RES1    0.0000
     10 H4         9.9240    0.7476   16.1685 H         1 RES1    0.0000
     11 C7         5.7645    2.5091   15.5174 C.2       1 RES1    0.0000
     12 C8         5.5503    4.7448   14.7133 C.3       1 RES1    0.0000
     13 H5         6.0848    5.5388   14.9653 H         1 RES1    0.0000
     14 H6         4.7637    4.7045   15.3126 H         1 RES1    0.0000
     15 C9         5.0753    4.8921   13.2578 C.3       1 RES1    0.0000
     16 H7         5.8776    4.8763   12.6608 H         1 RES1    0.0000
     17 C10        5.3915    7.3127   13.1305 C.2       1 RES1    0.0000
     18 C11        4.8172    8.6290   13.1389 C.2       1 RES1    0.0000
     19 H8         5.3902    9.3845   13.0782 H         1 RES1    0.0000
     20 C12        3.4787    8.8210   13.2305 C.2       1 RES1    0.0000
     21 H9         3.1302    9.7044   13.2729 H         1 RES1    0.0000
     22 C13        2.5992    7.7176   13.2631 C.2       1 RES1    0.0000
     23 H10        1.6611    7.8560   13.3220 H         1 RES1    0.0000
     24 C14        3.1028    6.4538   13.2091 C.2       1 RES1    0.0000
     25 C15        2.1683    5.2733   13.0053 C.3       1 RES1    0.0000
     26 H11        1.3008    5.4468   13.4711 H         1 RES1    0.0000
     27 C16        2.7694    3.9710   13.5111 C.3       1 RES1    0.0000
     28 H12        2.1687    3.2111   13.3045 H         1 RES1    0.0000
     29 H13        2.9020    4.0104   14.4918 H         1 RES1    0.0000
     30 C17        4.1092    3.7957   12.8002 C.3       1 RES1    0.0000
     31 H14        4.4920    2.9114   13.0659 H         1 RES1    0.0000
     32 C18        3.9041    3.7922   11.2839 C.3       1 RES1    0.0000
     33 H15        4.7846    3.7229   10.8368 H         1 RES1    0.0000
     34 H16        3.3704    2.9982   11.0298 H         1 RES1    0.0000
     35 C19        1.9268    5.1541   11.4910 C.3       1 RES1    0.0000
     36 H17        1.3513    4.3715   11.3016 H         1 RES1    0.0000
     37 H18        1.4690    5.9657   11.1578 H         1 RES1    0.0000
     38 C20        3.1062    5.0472    9.3691 C.3       1 RES1    0.0000
     39 H19        2.4826    5.7737    9.1181 H         1 RES1    0.0000
     40 H20        2.7222    4.1936    9.0462 H         1 RES1    0.0000
     41 C21        4.4402    5.2812    8.6875 C.ar      1 RES1    0.0000
     42 C22        4.7394    4.6309    7.5027 C.ar      1 RES1    0.0000
     43 H21        4.1165    4.0165    7.1328 H         1 RES1    0.0000
     44 C23        5.9514    4.8702    6.8445 C.ar      1 RES1    0.0000
     45 H22        6.1503    4.4162    6.0331 H         1 RES1    0.0000
     46 C24        6.8604    5.7693    7.3774 C.ar      1 RES1    0.0000
     47 H23        7.6845    5.9315    6.9346 H         1 RES1    0.0000
     48 C25        6.5649    6.4301    8.5560 C.ar      1 RES1    0.0000
     49 H24        7.1832    7.0550    8.9164 H         1 RES1    0.0000
     50 C26        5.3629    6.1821    9.2156 C.ar      1 RES1    0.0000
     51 H25        5.1710    6.6300   10.0301 H         1 RES1    0.0000
     52 N1         9.3706   -1.8071   16.4543 N.pl3     1 RES1    0.0000
     53 N2         4.4655    6.2444   13.1885 N.am      1 RES1    0.0000
     54 N3         3.2220    4.9981   10.8197 N.3       1 RES1    0.0000
     55 O1        10.5679   -1.5837   16.5997 O.2       1 RES1    0.0000
     56 O2         8.8867   -2.9351   16.3737 O.2       1 RES1    0.0000
     57 O3         4.5823    2.4495   15.7752 O.2       1 RES1    0.0000
     58 O4         6.3536    3.5485   14.8938 O.3       1 RES1    0.0000
     59 O5         6.6002    7.0655   13.0849 O.2       1 RES1    0.0000
@<TRIPOS>BOND
     1    1    2 ar
     2    2    3 1
     3    4    2 ar
     4    5    4 1
     5    6    4 ar
     6    7    6 ar
     7    8    7 1
     8    9    1 ar
     9   10    9 1
    10   11    6 1
    11   12   13 1
    12   14   12 1
    13   15   12 1
    14   16   15 1
    15   17   18 1
    16   18   19 1
    17   20   18 2
    18   21   20 1
    19   22   20 1
    20   23   22 1
    21   24   22 2
    22   25   24 1
    23   26   25 1
    24   27   25 1
    25   28   27 1
    26   29   27 1
    27   30   15 1
    28   31   30 1
    29   32   30 1
    30   33   32 1
    31   34   32 1
    32   35   25 1
    33   36   35 1
    34   37   35 1
    35   38   39 1
    36   40   38 1
    37   41   38 1
    38   42   41 ar
    39   43   42 1
    40   44   42 ar
    41   45   44 1
    42   46   44 ar
    43   47   46 1
    44   48   46 ar
    45   49   48 1
    46   50   41 ar
    47   51   50 1
    48   52    1 1
    49   53   15 1
    50   54   32 1
    51   55   52 2
    52   56   52 2
    53   57   11 2
    54   58   11 1
    55   59   17 2
    56    7    9 ar
    57   12   58 1
    58   17   53 1
    59   24   53 1
    60   27   30 1
    61   35   54 1
    62   38   54 1
    63   48   50 ar
@<TRIPOS>SUBSTRUCTURE
     1 RES1 1

@<TRIPOS>CRYSIN
   7.1313    8.7640   17.5460  90.0000  91.7100  90.0000   4 1

