# MOL2 file generated by ConQuest
# Please check atom types

@<TRIPOS>MOLECULE
UFOGUT
    53    56     1
SMALL
NO_CHARGES
****
Generated from CSD

@<TRIPOS>ATOM
      1 C1         6.7831   10.5101    3.5005 C.3       1 RES1    0.0000
      2 H1         7.3948   11.2175    3.8558 H         1 RES1    0.0000
      3 C2         5.9740    9.9000    4.6447 C.3       1 RES1    0.0000
      4 H2         5.4744   10.6115    5.1176 H         1 RES1    0.0000
      5 H3         5.3200    9.2510    4.2826 H         1 RES1    0.0000
      6 C3         6.9118    9.1965    5.6181 C.3       1 RES1    0.0000
      7 C4         7.8488    8.1874    4.9027 C.3       1 RES1    0.0000
      8 H4         8.5586    7.9571    5.5679 H         1 RES1    0.0000
      9 C5         5.8946   11.0898    2.4370 C.ar      1 RES1    0.0000
     10 C6         4.9947   10.2913    1.7323 C.ar      1 RES1    0.0000
     11 H5         4.9565    9.3577    1.9044 H         1 RES1    0.0000
     12 C7         4.1557   10.8519    0.7833 C.ar      1 RES1    0.0000
     13 H6         3.5515   10.2992    0.3018 H         1 RES1    0.0000
     14 C8         4.1941   12.2137    0.5349 C.ar      1 RES1    0.0000
     15 H7         3.6139   12.5980   -0.1126 H         1 RES1    0.0000
     16 C9         5.0801   13.0099    1.2315 C.ar      1 RES1    0.0000
     17 H8         5.1075   13.9446    1.0648 H         1 RES1    0.0000
     18 C10        5.9309   12.4532    2.1741 C.ar      1 RES1    0.0000
     19 H9         6.5429   13.0077    2.6440 H         1 RES1    0.0000
     20 C11        7.7883   10.1721    6.4438 C.2       1 RES1    0.0000
     21 C12        7.7543   12.1713    7.7111 C.3       1 RES1    0.0000
     22 H10        8.2955   12.7356    7.1205 H         1 RES1    0.0000
     23 H11        8.3377   11.7199    8.3573 H         1 RES1    0.0000
     24 H12        7.1055   12.7279    8.1900 H         1 RES1    0.0000
     25 C13        7.2515    6.8571    4.4576 C.ar      1 RES1    0.0000
     26 C14        7.2943    5.7956    5.3587 C.ar      1 RES1    0.0000
     27 H13        7.6174    5.9458    6.2386 H         1 RES1    0.0000
     28 C15        6.8744    4.5229    4.9969 C.ar      1 RES1    0.0000
     29 H14        6.8980    3.8154    5.6304 H         1 RES1    0.0000
     30 C16        6.4201    4.2888    3.7078 C.ar      1 RES1    0.0000
     31 H15        6.1398    3.4181    3.4492 H         1 RES1    0.0000
     32 C17        6.3792    5.3278    2.8054 C.ar      1 RES1    0.0000
     33 H16        6.0698    5.1666    1.9216 H         1 RES1    0.0000
     34 C18        6.7835    6.6118    3.1648 C.ar      1 RES1    0.0000
     35 H17        6.7403    7.3186    2.5314 H         1 RES1    0.0000
     36 C19        9.5871    8.3520    3.1903 C.ar      1 RES1    0.0000
     37 C20       10.6724    7.9238    3.9602 C.ar      1 RES1    0.0000
     38 H18       10.6873    8.0900    4.8955 H         1 RES1    0.0000
     39 C21       11.7237    7.2578    3.3575 C.ar      1 RES1    0.0000
     40 H19       12.4474    6.9429    3.8870 H         1 RES1    0.0000
     41 C22       11.7324    7.0449    1.9931 C.ar      1 RES1    0.0000
     42 H20       12.4550    6.5827    1.5855 H         1 RES1    0.0000
     43 C23       10.6811    7.5101    1.2257 C.ar      1 RES1    0.0000
     44 H21       10.6966    7.3866    0.2846 H         1 RES1    0.0000
     45 C24        9.6014    8.1577    1.8162 C.ar      1 RES1    0.0000
     46 H22        8.8783    8.4657    1.2821 H         1 RES1    0.0000
     47 N1         8.5176    9.0129    3.8694 N.3       1 RES1    0.0000
     48 N2         6.0906    8.4499    6.6772 N.pl3     1 RES1    0.0000
     49 O1         7.5531    9.4591    2.8838 O.3       1 RES1    0.0000
     50 O2         8.9616   10.0339    6.6505 O.2       1 RES1    0.0000
     51 O3         7.0441   11.1711    6.9149 O.3       1 RES1    0.0000
     52 O4         4.8928    8.3267    6.5199 O.2       1 RES1    0.0000
     53 O5         6.7116    8.0152    7.6365 O.2       1 RES1    0.0000
@<TRIPOS>BOND
     1    1    2 1
     2    3    1 1
     3    4    3 1
     4    5    3 1
     5    6    3 1
     6    7    6 1
     7    8    7 1
     8    9    1 1
     9   10    9 ar
    10   11   10 1
    11   12   10 ar
    12   13   12 1
    13   14   12 ar
    14   15   14 1
    15   16   14 ar
    16   17   16 1
    17   18    9 ar
    18   19   18 1
    19   20    6 1
    20   21   22 1
    21   23   21 1
    22   24   21 1
    23   25    7 1
    24   26   25 ar
    25   27   26 1
    26   28   26 ar
    27   29   28 1
    28   30   28 ar
    29   31   30 1
    30   32   30 ar
    31   33   32 1
    32   34   25 ar
    33   35   34 1
    34   36   37 ar
    35   37   38 1
    36   39   37 ar
    37   40   39 1
    38   41   39 ar
    39   42   41 1
    40   43   41 ar
    41   44   43 1
    42   45   36 ar
    43   46   45 1
    44   47    7 1
    45   48    6 1
    46   49    1 1
    47   50   20 2
    48   51   20 1
    49   52   48 2
    50   53   48 2
    51   16   18 ar
    52   21   51 1
    53   32   34 ar
    54   36   47 1
    55   43   45 ar
    56   47   49 1
@<TRIPOS>SUBSTRUCTURE
     1 RES1 1

@<TRIPOS>CRYSIN
   8.4338   15.4596   15.6357  90.0000  90.0000  90.0000  19 1

