# MOL2 file generated by ConQuest
# Please check atom types

@<TRIPOS>MOLECULE
UFOWIV
    52    47     2
SMALL
NO_CHARGES
****
Generated from CSD

@<TRIPOS>ATOM
      1 O1         1.0218   -2.4446    3.4092 O.2       1 RES1    0.0000
      2 O2         1.2805    1.9460    4.0884 O.2       1 RES1    0.0000
      3 O3         0.6898    0.4772    2.6756 O.2       1 RES1    0.0000
      4 N1         1.8082   -2.0784    1.2998 N.am      1 RES1    0.0000
      5 N2         1.4935    0.9350    3.4537 N.pl3     1 RES1    0.0000
      6 C1         1.7944   -1.9050    2.6235 C.2       1 RES1    0.0000
      7 C2         2.6688   -1.2778    0.4293 C.3       1 RES1    0.0000
      8 C3         2.1120   -1.4668   -0.9411 C.3       1 RES1    0.0000
      9 C4         1.4993   -2.8907   -0.8683 C.3       1 RES1    0.0000
     10 C5         0.9035   -2.9881    0.5466 C.3       1 RES1    0.0000
     11 C6         0.9265   -4.4198    1.1281 C.3       1 RES1    0.0000
     12 C7        -0.0283   -5.3217    0.3423 C.3       1 RES1    0.0000
     13 C8        -1.4484   -4.7879    0.3901 C.3       1 RES1    0.0000
     14 C9        -1.5105   -3.3601   -0.1554 C.3       1 RES1    0.0000
     15 C10       -0.5257   -2.4446    0.5934 C.3       1 RES1    0.0000
     16 C11        2.3014   -5.0042    1.1824 C.2       1 RES1    0.0000
     17 C12        2.9930   -5.1561    2.2855 C.2       1 RES1    0.0000
     18 C13        2.9188   -1.0538    3.1777 C.ar      1 RES1    0.0000
     19 C14        2.7698    0.2435    3.6439 C.ar      1 RES1    0.0000
     20 C15        3.8060    0.9486    4.2525 C.ar      1 RES1    0.0000
     21 C16        5.0282    0.3409    4.3547 C.ar      1 RES1    0.0000
     22 C17        5.2276   -0.9428    3.8787 C.ar      1 RES1    0.0000
     23 C18        4.1730   -1.6304    3.3103 C.ar      1 RES1    0.0000
     24 C19        2.5817   -2.0122   -0.9672 Du        2 SUP2    0.0000
     25 H1         3.6089   -1.5973    0.4782 H         1 RES1    0.0000
     26 H2         2.6373   -0.3117    0.6955 H         1 RES1    0.0000
     27 H3         2.8305   -1.4220   -1.6302 H         1 RES1    0.0000
     28 H4         1.4104   -0.7792   -1.1411 H         1 RES1    0.0000
     29 H5         2.2089   -3.5841   -0.9998 H         1 RES1    0.0000
     30 H6         0.7836   -2.9998   -1.5649 H         1 RES1    0.0000
     31 H7         0.6150   -4.3633    2.0757 H         1 RES1    0.0000
     32 H8        -0.0098   -6.2333    0.7390 H         1 RES1    0.0000
     33 H9         0.2754   -5.3567   -0.6086 H         1 RES1    0.0000
     34 H10       -1.7721   -4.7918    1.3367 H         1 RES1    0.0000
     35 H11       -2.0347   -5.3762   -0.1630 H         1 RES1    0.0000
     36 H12       -2.4415   -2.9998   -0.0435 H         1 RES1    0.0000
     37 H13       -1.2759   -3.3699   -1.1302 H         1 RES1    0.0000
     38 H14       -0.5430   -1.5388    0.1739 H         1 RES1    0.0000
     39 H15       -0.8098   -2.3764    1.5432 H         1 RES1    0.0000
     40 H16        2.7198   -5.2983    0.3260 H         1 RES1    0.0000
     41 H17        3.9117   -5.5515    2.2496 H         1 RES1    0.0000
     42 H18        2.6065   -4.8697    3.1625 H         1 RES1    0.0000
     43 H19        3.6569    1.8700    4.6079 H         1 RES1    0.0000
     44 H20        5.7901    0.8376    4.7818 H         1 RES1    0.0000
     45 H21        6.1320   -1.3635    3.9450 H         1 RES1    0.0000
     46 H22        4.3208   -2.5712    2.9886 H         1 RES1    0.0000
     47 H23        3.6055   -1.2661    0.7716 Du        2 SUP2    0.0000
     48 H24        2.3324   -0.3311    0.3586 Du        2 SUP2    0.0000
     49 H25        3.4273   -2.5128   -1.1411 Du        2 SUP2    0.0000
     50 H26        2.4262   -1.3441   -1.6954 Du        2 SUP2    0.0000
     51 H27        1.8060   -3.7984   -1.1411 Du        2 SUP2    0.0000
     52 H28        0.7822   -2.5712   -1.4889 Du        2 SUP2    0.0000
@<TRIPOS>BOND
     1    1    6 2
     2    2    5 2
     3    3    5 2
     4    4    6 1
     5    5   19 1
     6    6   18 1
     7    7    4 1
     8    8    7 1
     9    9    8 1
    10   10    4 1
    11   11   10 1
    12   12   11 1
    13   13   12 1
    14   14   13 1
    15   15   10 1
    16   16   11 1
    17   17   16 2
    18   18   19 ar
    19   19   20 ar
    20   20   21 ar
    21   21   22 ar
    22   22   23 ar
    23   23   18 ar
    24   25    7 1
    25   26    7 1
    26   27    8 1
    27   28    8 1
    28   29    9 1
    29   30    9 1
    30   31   11 1
    31   32   12 1
    32   33   12 1
    33   34   13 1
    34   35   13 1
    35   36   14 1
    36   37   14 1
    37   38   15 1
    38   39   15 1
    39   40   16 1
    40   41   17 1
    41   42   17 1
    42   43   20 1
    43   44   21 1
    44   45   22 1
    45   46   23 1
    46    9   10 1
    47   14   15 1
@<TRIPOS>SUBSTRUCTURE
     1 RES1 1
     2 SUP2 24

@<TRIPOS>CRYSIN
   7.7570   19.4790   11.1350  90.0000 102.5800  90.0000  14 1

