# MOL2 file generated by ConQuest
# Please check atom types

@<TRIPOS>MOLECULE
UFUGOS
    38    41     1
SMALL
NO_CHARGES
****
Generated from CSD

@<TRIPOS>ATOM
      1 C1         6.5182    0.7607   17.8494 C.3       1 RES1    0.0000
      2 H1         6.0589    0.1976   17.1616 H         1 RES1    0.0000
      3 N1         6.6103   -0.0273   19.1096 N.3       1 RES1    0.0000
      4 C2         7.4174   -1.2460   18.9286 C.3       1 RES1    0.0000
      5 H2         7.1409   -1.7013   18.1066 H         1 RES1    0.0000
      6 H3         7.2829   -1.8431   19.6946 H         1 RES1    0.0000
      7 H4         8.3649   -1.0039   18.8661 H         1 RES1    0.0000
      8 C3         7.0220    0.6766   20.3608 C.3       1 RES1    0.0000
      9 H5         7.9970    0.8451   20.3289 H         1 RES1    0.0000
     10 H6         6.8437    0.0853   21.1358 H         1 RES1    0.0000
     11 C4         5.3046    4.0132   19.1260 C.ar      1 RES1    0.0000
     12 C5         6.2551    2.8254   19.2652 C.3       1 RES1    0.0000
     13 C6         6.2863    2.0245   20.5781 C.3       1 RES1    0.0000
     14 H7         5.3611    1.8532   20.8856 H         1 RES1    0.0000
     15 H8         6.7523    2.5489   21.2761 H         1 RES1    0.0000
     16 C7         5.0215    5.0997   19.9364 C.ar      1 RES1    0.0000
     17 H9         5.3499    5.1545   20.8273 H         1 RES1    0.0000
     18 C8         4.2226    6.1223   19.3789 C.ar      1 RES1    0.0000
     19 N2         3.9238    7.2967   20.2109 N.pl3     1 RES1    0.0000
     20 O1         3.2271    8.2025   19.7248 O.2       1 RES1    0.0000
     21 O2         4.3742    7.3277   21.3676 O.2       1 RES1    0.0000
     22 C9         3.7403    6.0866   18.0697 C.ar      1 RES1    0.0000
     23 H10        3.2216    6.8076   17.7333 H         1 RES1    0.0000
     24 C10        4.0242    4.9821   17.2504 C.ar      1 RES1    0.0000
     25 H11        3.7053    4.9341   16.3568 H         1 RES1    0.0000
     26 C11        5.5848    1.9047   18.2291 C.3       1 RES1    0.0000
     27 H12        4.7628    1.5130   18.6438 H         1 RES1    0.0000
     28 O3         5.1645    2.8094   17.1333 O.3       1 RES1    0.0000
     29 C12        4.7933    3.9594   17.8043 C.ar      1 RES1    0.0000
     30 C13        7.6715    3.3173   18.7683 C.3       1 RES1    0.0000
     31 H13        7.5318    4.0121   18.0764 H         1 RES1    0.0000
     32 H14        8.1338    3.7478   19.5306 H         1 RES1    0.0000
     33 C14        8.6161    2.2290   18.1793 C.3       1 RES1    0.0000
     34 H15        9.3511    2.6663   17.6815 H         1 RES1    0.0000
     35 H16        9.0152    1.7055   18.9178 H         1 RES1    0.0000
     36 C15        7.8529    1.2842   17.2371 C.3       1 RES1    0.0000
     37 H17        8.4318    0.5116   17.0191 H         1 RES1    0.0000
     38 H18        7.6544    1.7621   16.3934 H         1 RES1    0.0000
@<TRIPOS>BOND
     1    1    2 1
     2    3    1 1
     3    4    3 1
     4    5    4 1
     5    6    4 1
     6    7    4 1
     7    8    3 1
     8    9    8 1
     9   10    8 1
    10   11   12 1
    11   12   13 1
    12   13    8 1
    13   14   13 1
    14   15   13 1
    15   16   11 ar
    16   17   16 1
    17   18   16 ar
    18   19   18 1
    19   20   19 2
    20   21   19 2
    21   22   18 ar
    22   23   22 1
    23   24   22 ar
    24   25   24 1
    25   26    1 1
    26   27   26 1
    27   28   26 1
    28   29   11 ar
    29   30   12 1
    30   31   30 1
    31   32   30 1
    32   33   30 1
    33   34   33 1
    34   35   33 1
    35   36    1 1
    36   37   36 1
    37   38   36 1
    38   12   26 1
    39   24   29 ar
    40   28   29 1
    41   33   36 1
@<TRIPOS>SUBSTRUCTURE
     1 RES1 1

@<TRIPOS>CRYSIN
   7.4315    8.4430   21.5760  90.0000  90.0000  90.0000  19 1

