# MOL2 file generated by ConQuest
# Please check atom types

@<TRIPOS>MOLECULE
UFUXOI
    15    15     1
SMALL
NO_CHARGES
****
Generated from CSD

@<TRIPOS>ATOM
      1 N1         3.3987    1.4681    4.6546 N.pl3     1 RES1    0.0000
      2 H1         3.4762    1.0366    5.3937 H         1 RES1    0.0000
      3 N2         4.1534    1.2623    3.5856 N.2       1 RES1    0.0000
      4 C1         3.6898    2.1385    2.6749 C.2       1 RES1    0.0000
      5 N3         4.2942    2.1735    1.3862 N.pl3     1 RES1    0.0000
      6 O1         3.8609    3.0161    0.6124 O.2       1 RES1    0.0000
      7 O2         5.1827    1.3777    1.1180 O.2       1 RES1    0.0000
      8 C2         2.6218    2.9376    3.1279 C.2       1 RES1    0.0000
      9 N4         1.9328    3.8905    2.4993 N.3       1 RES1    0.0000
     10 H2         1.2972    4.3016    2.9066 H         1 RES1    0.0000
     11 H3         2.1237    4.0934    1.6860 H         1 RES1    0.0000
     12 C3         2.4715    2.4654    4.4270 C.2       1 RES1    0.0000
     13 N5         1.5467    2.8487    5.4026 N.pl3     1 RES1    0.0000
     14 O3         1.5070    2.2185    6.4629 O.2       1 RES1    0.0000
     15 O4         0.8194    3.8025    5.1320 O.2       1 RES1    0.0000
@<TRIPOS>BOND
     1    1    2 1
     2    3    1 1
     3    4    3 2
     4    5    4 1
     5    6    5 2
     6    7    5 2
     7    8    4 1
     8    9    8 1
     9   10    9 1
    10   11    9 1
    11   12    1 1
    12   13   12 1
    13   14   13 2
    14   15   13 2
    15    8   12 2
@<TRIPOS>SUBSTRUCTURE
     1 RES1 1

@<TRIPOS>CRYSIN
   4.7257    4.7312   27.0630  90.0000  90.0000  90.0000  19 1

