# MOL2 file generated by ConQuest
# Please check atom types

@<TRIPOS>MOLECULE
UGARUS
    22    22     1
SMALL
NO_CHARGES
****
Generated from CSD

@<TRIPOS>ATOM
      1 O1         1.4134    2.8320    3.3415 O.2       1 RES1    0.0000
      2 O2         1.0438    5.2775    9.1373 O.3       1 RES1    0.0000
      3 H1         1.4403    4.9647    9.7837 H         1 RES1    0.0000
      4 O3         4.2725   -0.0035    3.1668 O.3       1 RES1    0.0000
      5 N1         3.2686    0.9420    3.1356 N.2       1 RES1    0.0000
      6 C1         1.7599    3.1651    5.6526 C.ar      1 RES1    0.0000
      7 C2         0.8818    4.2549    5.6849 C.ar      1 RES1    0.0000
      8 H2         0.4400    4.5221    4.8870 H         1 RES1    0.0000
      9 C3         0.6490    4.9414    6.8445 C.ar      1 RES1    0.0000
     10 H3         0.0501    5.6779    6.8470 H         1 RES1    0.0000
     11 C4         1.2891    4.5624    8.0264 C.ar      1 RES1    0.0000
     12 C5         2.1491    3.4633    8.0192 C.ar      1 RES1    0.0000
     13 H4         2.5742    3.1876    8.8231 H         1 RES1    0.0000
     14 C6         2.3827    2.7759    6.8455 C.ar      1 RES1    0.0000
     15 H5         2.9720    2.0305    6.8470 H         1 RES1    0.0000
     16 C7         2.0130    2.5044    4.3554 C.2       1 RES1    0.0000
     17 C8         3.0476    1.4381    4.2825 C.2       1 RES1    0.0000
     18 H6         3.5183    1.1440    5.0536 H         1 RES1    0.0000
     19 C9         4.4352   -0.5779    1.8739 C.3       1 RES1    0.0000
     20 H7         5.1492   -1.2491    1.9018 H         1 RES1    0.0000
     21 H8         4.6706    0.1235    1.2323 H         1 RES1    0.0000
     22 H9         3.5965   -1.0048    1.5977 H         1 RES1    0.0000
@<TRIPOS>BOND
     1    1   16 2
     2    2    3 1
     3    4    5 1
     4    5   17 2
     5    6    7 ar
     6    7    8 1
     7    9    7 ar
     8   10    9 1
     9   11    2 1
    10   12   11 ar
    11   13   12 1
    12   14    6 ar
    13   15   14 1
    14   16    6 1
    15   17   16 1
    16   18   17 1
    17   19    4 1
    18   20   19 1
    19   21   19 1
    20   22   19 1
    21    9   11 ar
    22   12   14 ar
@<TRIPOS>SUBSTRUCTURE
     1 RES1 1

@<TRIPOS>CRYSIN
   8.7826   13.1341   16.1714  90.0000  90.0000  90.0000  61 1

