# MOL2 file generated by ConQuest
# Please check atom types

@<TRIPOS>MOLECULE
UGAVOQ
    48    48     2
SMALL
NO_CHARGES
****
Generated from CSD

@<TRIPOS>ATOM
      1 O1         9.1365    2.5219    3.5288 O.2       1 RES1    0.0000
      2 O2         8.3581    2.5312    1.5042 O.2       1 RES1    0.0000
      3 O3         4.8089    5.1854    6.4333 O.2       1 RES1    0.0000
      4 N1         5.2203    2.1164    4.5592 N.2       1 RES1    0.0000
      5 N2         5.5238    3.1000    6.7883 N.3       1 RES1    0.0000
      6 O4         6.8203    4.8725    7.1746 O.2       1 RES1    0.0000
      7 N3         7.3525    2.1560    5.5808 N.3       1 RES1    0.0000
      8 H1         8.2251    2.1595    5.4703 H         1 RES1    0.0000
      9 N4         5.7402    4.4734    6.7772 N.pl3     1 RES1    0.0000
     10 N5         8.2848    2.2853    2.6872 N.pl3     1 RES1    0.0000
     11 O5         8.3343   -0.2768    2.4813 O.2       1 RES1    0.0000
     12 O6         5.6798    2.8354    1.8601 O.2       1 RES1    0.0000
     13 O7         6.8415   -0.6223    4.0141 O.2       1 RES1    0.0000
     14 N6         7.4577    0.0693    3.2429 N.pl3     1 RES1    0.0000
     15 N7         5.9862    1.6922    2.1173 N.pl3     1 RES1    0.0000
     16 C1         6.4862    2.0255    4.5382 C.2       1 RES1    0.0000
     17 O8         5.5422    0.6777    1.6354 O.2       1 RES1    0.0000
     18 C2         6.7316    2.2888    6.8879 C.3       1 RES1    0.0000
     19 H2         7.3678    2.7142    7.5163 H         1 RES1    0.0000
     20 H3         6.5036    1.3927    7.2396 H         1 RES1    0.0000
     21 C3         7.0480    1.5593    3.2025 C.3       1 RES1    0.0000
     22 C4         4.5875    2.5767    5.7911 C.3       1 RES1    0.0000
     23 H4         4.0867    1.8227    6.1917 H         1 RES1    0.0000
     24 H5         3.9348    3.2853    5.5662 H         1 RES1    0.0000
     25 O9        14.6335    1.6275    6.1749 O.2       2 RES2    0.0000
     26 O10       15.0216    2.0243    8.2748 O.2       2 RES2    0.0000
     27 O11        9.9826    3.7992    6.0789 O.2       2 RES2    0.0000
     28 N8        14.9170    3.7538    6.8435 N.3       2 RES2    0.0000
     29 N9        12.7551    4.6016    6.0636 N.2       2 RES2    0.0000
     30 N10       13.3408    4.7036    8.3471 N.3       2 RES2    0.0000
     31 H6        13.0560    4.7286    9.1786 H         2 RES2    0.0000
     32 N11       10.3533    4.4915    8.7491 N.pl3     2 RES2    0.0000
     33 O12       11.8473    7.3764    7.4741 O.2       2 RES2    0.0000
     34 O13        9.8355    5.9465    5.7291 O.2       2 RES2    0.0000
     35 O14        9.1995    4.2036    8.6357 O.2       2 RES2    0.0000
     36 N12       14.8235    2.3751    7.1202 N.pl3     2 RES2    0.0000
     37 O15       11.0325    4.3289    9.7347 O.2       2 RES2    0.0000
     38 N13       10.1979    4.9611    6.3370 N.pl3     2 RES2    0.0000
     39 N14       10.9757    6.6882    7.9292 N.pl3     2 RES2    0.0000
     40 C5        12.4868    4.7618    7.2918 C.2       2 RES2    0.0000
     41 C6        14.1119    4.2164    5.7118 C.3       2 RES2    0.0000
     42 H7        14.5642    4.9920    5.2969 H         2 RES2    0.0000
     43 H8        14.0711    3.4950    5.0349 H         2 RES2    0.0000
     44 O16       10.0495    7.0524    8.6060 O.2       2 RES2    0.0000
     45 C7        14.7586    4.5969    8.0156 C.3       2 RES2    0.0000
     46 H9        15.1299    5.4966    7.8337 H         2 RES2    0.0000
     47 H10       15.2533    4.2065    8.7783 H         2 RES2    0.0000
     48 C8        11.0523    5.1837    7.5796 C.3       2 RES2    0.0000
@<TRIPOS>BOND
     1    1   10 2
     2    2   10 2
     3    3    9 2
     4    4   16 2
     5    5    9 1
     6    6    9 2
     7    7    8 1
     8   10   21 1
     9   11   14 2
    10   12   15 2
    11   13   14 2
    12   14   21 1
    13   15   17 2
    14   16    7 1
    15   18    5 1
    16   19   18 1
    17   20   18 1
    18   21   15 1
    19   22    4 1
    20   23   22 1
    21   24   22 1
    22   25   36 2
    23   26   36 2
    24   27   38 2
    25   28   36 1
    26   29   40 2
    27   30   31 1
    28   32   35 2
    29   33   39 2
    30   34   38 2
    31   37   32 2
    32   38   48 1
    33   39   44 2
    34   40   30 1
    35   41   28 1
    36   42   41 1
    37   43   41 1
    38   45   28 1
    39   46   45 1
    40   47   45 1
    41   48   32 1
    42    5   22 1
    43    7   18 1
    44   16   21 1
    45   29   41 1
    46   30   45 1
    47   39   48 1
    48   40   48 1
@<TRIPOS>SUBSTRUCTURE
     1 RES1 1
     2 RES2 25

@<TRIPOS>CRYSIN
  18.9130    5.8270   18.9140  90.0000 102.7240  90.0000 231 1

