# MOL2 file generated by ConQuest
# Please check atom types

@<TRIPOS>MOLECULE
UGICIX
    59    64     1
SMALL
NO_CHARGES
****
Generated from CSD

@<TRIPOS>ATOM
      1 O1        11.9239    7.5994   -0.1165 O.3       1 RES1    0.0000
      2 O2        13.2291   11.4887   -1.9592 O.3       1 RES1    0.0000
      3 N1        11.1971    8.5183    0.7395 N.3       1 RES1    0.0000
      4 C1        11.6542   13.7775   -2.1972 C.ar      1 RES1    0.0000
      5 H1        12.5525   13.7807   -2.5074 H         1 RES1    0.0000
      6 C2        10.8837   14.9243   -2.3139 C.ar      1 RES1    0.0000
      7 H2        11.2585   15.7057   -2.7016 H         1 RES1    0.0000
      8 C3         9.5798   14.9394   -1.8722 C.ar      1 RES1    0.0000
      9 H3         9.0613   15.7330   -1.9356 H         1 RES1    0.0000
     10 C4         9.0310   13.7947   -1.3361 C.ar      1 RES1    0.0000
     11 H4         8.1261   13.7954   -1.0473 H         1 RES1    0.0000
     12 C5         9.7916   12.6442   -1.2173 C.ar      1 RES1    0.0000
     13 H5         9.4002   11.8599   -0.8501 H         1 RES1    0.0000
     14 C6        11.1259   12.6210   -1.6298 C.ar      1 RES1    0.0000
     15 C7         9.9634    8.4999   -2.3445 C.ar      1 RES1    0.0000
     16 H6        10.8828    8.4849   -2.5824 H         1 RES1    0.0000
     17 C8         9.0263    7.9882   -3.2175 C.ar      1 RES1    0.0000
     18 H7         9.3060    7.6170   -4.0455 H         1 RES1    0.0000
     19 C9         7.6831    8.0117   -2.8947 C.ar      1 RES1    0.0000
     20 H8         7.0382    7.6674   -3.5012 H         1 RES1    0.0000
     21 C10        7.2887    8.5403   -1.6814 C.ar      1 RES1    0.0000
     22 H9         6.3675    8.5595   -1.4525 H         1 RES1    0.0000
     23 C11        8.2282    9.0413   -0.7986 C.ar      1 RES1    0.0000
     24 H10        7.9466    9.3917    0.0382 H         1 RES1    0.0000
     25 C12        9.5785    9.0384   -1.1201 C.ar      1 RES1    0.0000
     26 C13        9.6752    8.4092    2.6033 C.ar      1 RES1    0.0000
     27 H11        9.8550    9.3276    2.7689 H         1 RES1    0.0000
     28 C14        8.8300    7.7073    3.4431 C.ar      1 RES1    0.0000
     29 H12        8.4243    8.1486    4.1801 H         1 RES1    0.0000
     30 C15        8.5723    6.3760    3.2188 C.ar      1 RES1    0.0000
     31 H13        8.0082    5.8916    3.8116 H         1 RES1    0.0000
     32 C16        9.1331    5.7493    2.1348 C.ar      1 RES1    0.0000
     33 H14        8.9459    4.8314    1.9738 H         1 RES1    0.0000
     34 C17        9.9690    6.4417    1.2724 C.ar      1 RES1    0.0000
     35 H15       10.3405    6.0040    0.5152 H         1 RES1    0.0000
     36 C18       10.2605    7.7704    1.5176 C.ar      1 RES1    0.0000
     37 C19       13.8548    6.8551   -2.3304 C.ar      1 RES1    0.0000
     38 H16       13.0643    7.1546   -2.7628 H         1 RES1    0.0000
     39 C20       14.7379    6.0266   -3.0008 C.ar      1 RES1    0.0000
     40 H17       14.5421    5.7466   -3.8865 H         1 RES1    0.0000
     41 C21       15.8982    5.6068   -2.3903 C.ar      1 RES1    0.0000
     42 H18       16.5082    5.0479   -2.8576 H         1 RES1    0.0000
     43 C22       16.1709    5.9972   -1.1059 C.ar      1 RES1    0.0000
     44 H19       16.9723    5.7119   -0.6819 H         1 RES1    0.0000
     45 C23       15.2814    6.8055   -0.4281 C.ar      1 RES1    0.0000
     46 H20       15.4694    7.0611    0.4679 H         1 RES1    0.0000
     47 C24       14.1234    7.2474   -1.0299 C.ar      1 RES1    0.0000
     48 C25       10.6073    9.5758   -0.1397 C.3       1 RES1    0.0000
     49 H21       10.1607   10.2544    0.4434 H         1 RES1    0.0000
     50 C26       11.7893   10.2327   -0.8112 C.2       1 RES1    0.0000
     51 C27       13.0291    9.5298   -0.9294 C.2       1 RES1    0.0000
     52 C28       13.2323    8.1918   -0.2757 C.3       1 RES1    0.0000
     53 H22       13.6252    8.3399    0.6314 H         1 RES1    0.0000
     54 C29       11.9457   11.4273   -1.4421 C.2       1 RES1    0.0000
     55 C30       13.8718   10.3124   -1.6353 C.2       1 RES1    0.0000
     56 C31       15.2543   10.1461   -2.1512 C.3       1 RES1    0.0000
     57 H23       15.6080    9.2793   -1.8622 H         1 RES1    0.0000
     58 H24       15.8216   10.8638   -1.8011 H         1 RES1    0.0000
     59 H25       15.2441   10.1861   -3.1297 H         1 RES1    0.0000
@<TRIPOS>BOND
     1    1    3 1
     2    2   54 1
     3    3   36 1
     4    4    5 1
     5    6    4 ar
     6    7    6 1
     7    8    6 ar
     8    9    8 1
     9   10    8 ar
    10   11   10 1
    11   12   10 ar
    12   13   12 1
    13   14    4 ar
    14   15   16 1
    15   17   15 ar
    16   18   17 1
    17   19   17 ar
    18   20   19 1
    19   21   19 ar
    20   22   21 1
    21   23   21 ar
    22   24   23 1
    23   25   15 ar
    24   26   27 1
    25   28   26 ar
    26   29   28 1
    27   30   28 ar
    28   31   30 1
    29   32   30 ar
    30   33   32 1
    31   34   32 ar
    32   35   34 1
    33   36   26 ar
    34   37   38 1
    35   39   37 ar
    36   40   39 1
    37   41   39 ar
    38   42   41 1
    39   43   41 ar
    40   44   43 1
    41   45   43 ar
    42   46   45 1
    43   47   37 ar
    44   48    3 1
    45   49   48 1
    46   50   48 1
    47   51   50 1
    48   52    1 1
    49   53   52 1
    50   54   14 1
    51   55    2 1
    52   56   55 1
    53   57   56 1
    54   58   56 1
    55   59   56 1
    56   12   14 ar
    57   23   25 ar
    58   25   48 1
    59   34   36 ar
    60   45   47 ar
    61   47   52 1
    62   50   54 2
    63   51   52 1
    64   51   55 2
@<TRIPOS>SUBSTRUCTURE
     1 RES1 1

@<TRIPOS>CRYSIN
  14.6442   10.5076   15.9170  90.0000 106.1450  90.0000 231 1

