# MOL2 file generated by ConQuest
# Please check atom types

@<TRIPOS>MOLECULE
UGIROT
    75    79     1
SMALL
NO_CHARGES
****
Generated from CSD

@<TRIPOS>ATOM
      1 O1         4.4034   -1.9815  -20.4357 O.3       1 RES1    0.0000
      2 O2         2.6133   -1.5028  -19.3601 O.2       1 RES1    0.0000
      3 C1         3.2411   -1.6357  -26.0554 C.3       1 RES1    0.0000
      4 H1         2.3057   -1.4953  -25.8002 H         1 RES1    0.0000
      5 N1         2.1649    1.2010  -32.2924 N.3       1 RES1    0.0000
      6 N2         5.6163    5.4733  -32.9867 N.pl3     1 RES1    0.0000
      7 C2         3.9721   -3.0944  -22.5368 C.3       1 RES1    0.0000
      8 H2         3.5348   -3.8391  -22.0959 H         1 RES1    0.0000
      9 H3         4.9223   -3.2856  -22.5819 H         1 RES1    0.0000
     10 C3         4.0164   -1.7485  -24.7222 C.3       1 RES1    0.0000
     11 C4         2.8327   -0.2883  -28.2356 C.3       1 RES1    0.0000
     12 H4         1.9076   -0.0724  -28.0412 H         1 RES1    0.0000
     13 H5         3.2041    0.4354  -28.7633 H         1 RES1    0.0000
     14 O3         6.7358    5.4053  -32.5198 O.2       1 RES1    0.0000
     15 O4         5.2005    6.4921  -33.5543 O.2       1 RES1    0.0000
     16 N3         2.4006    0.2300  -31.3262 N.2       1 RES1    0.0000
     17 C5         2.8925   -1.5909  -29.0411 C.3       1 RES1    0.0000
     18 C6         5.1404    3.2386  -32.1240 C.ar      1 RES1    0.0000
     19 H6         5.9969    3.2236  -31.7612 H         1 RES1    0.0000
     20 C7         3.6195   -0.4138  -26.9112 C.3       1 RES1    0.0000
     21 H7         4.5673   -0.4608  -27.1177 H         1 RES1    0.0000
     22 H8         3.4742    0.3891  -26.3869 H         1 RES1    0.0000
     23 C8         2.7287   -4.0960  -26.0884 C.3       1 RES1    0.0000
     24 H9         2.8338   -4.9153  -26.5970 H         1 RES1    0.0000
     25 H10        1.7811   -3.9675  -25.9269 H         1 RES1    0.0000
     26 C9         4.7284    4.3358  -32.8702 C.ar      1 RES1    0.0000
     27 C10        4.3035    2.1839  -31.9191 C.ar      1 RES1    0.0000
     28 H11        4.5807    1.4527  -31.4175 H         1 RES1    0.0000
     29 C11        3.2476   -2.9435  -26.9042 C.3       1 RES1    0.0000
     30 H12        4.1659   -3.1392  -27.1837 H         1 RES1    0.0000
     31 C12        3.4750    4.3634  -33.4410 C.ar      1 RES1    0.0000
     32 H13        3.2038    5.0931  -33.9501 H         1 RES1    0.0000
     33 C13        2.3957   -2.6963  -28.1384 C.3       1 RES1    0.0000
     34 H14        1.5380   -2.3714  -27.7930 H         1 RES1    0.0000
     35 C14        3.4153   -2.9413  -23.9515 C.3       1 RES1    0.0000
     36 H15        2.4670   -2.7232  -23.8352 H         1 RES1    0.0000
     37 C15        3.7471   -1.8292  -21.7383 C.3       1 RES1    0.0000
     38 H16        2.7861   -1.6880  -21.6081 H         1 RES1    0.0000
     39 C16        5.5332   -1.9524  -24.9843 C.3       1 RES1    0.0000
     40 H17        5.9963   -2.0211  -24.1459 H         1 RES1    0.0000
     41 H18        5.8758   -1.2040  -25.4791 H         1 RES1    0.0000
     42 H19        5.6646   -2.7576  -25.4895 H         1 RES1    0.0000
     43 C17        3.8279   -0.5027  -23.8664 C.3       1 RES1    0.0000
     44 H20        2.8837   -0.2831  -23.8421 H         1 RES1    0.0000
     45 H21        4.2892    0.2383  -24.2900 H         1 RES1    0.0000
     46 C18        4.3411   -0.6431  -22.4222 C.3       1 RES1    0.0000
     47 H22        5.3066   -0.7290  -22.4309 H         1 RES1    0.0000
     48 H23        4.1171    0.1591  -21.9223 H         1 RES1    0.0000
     49 C19        3.0345    2.2161  -32.4680 C.ar      1 RES1    0.0000
     50 C20        2.0239   -3.8211  -29.1244 C.3       1 RES1    0.0000
     51 H24        2.8002   -4.3432  -29.3813 H         1 RES1    0.0000
     52 H25        1.3458   -4.4090  -28.7581 H         1 RES1    0.0000
     53 C21        1.6460   -0.7775  -31.2925 C.2       1 RES1    0.0000
     54 C22        1.9316   -1.7492  -30.2510 C.2       1 RES1    0.0000
     55 C23        4.3317   -1.8232  -29.5427 C.3       1 RES1    0.0000
     56 H26        4.9455   -1.7253  -28.8119 H         1 RES1    0.0000
     57 H27        4.5405   -1.1794  -30.2249 H         1 RES1    0.0000
     58 H28        4.4057   -2.7083  -29.9073 H         1 RES1    0.0000
     59 C24        2.6432    3.3132  -33.2488 C.ar      1 RES1    0.0000
     60 H29        1.7996    3.3192  -33.6394 H         1 RES1    0.0000
     61 C25        3.4351   -4.2454  -24.7639 C.3       1 RES1    0.0000
     62 H30        4.3557   -4.5098  -24.9219 H         1 RES1    0.0000
     63 H31        3.0076   -4.9482  -24.2501 H         1 RES1    0.0000
     64 C26        1.5012   -3.0197  -30.2649 C.2       1 RES1    0.0000
     65 H32        0.9356   -3.3633  -30.9175 H         1 RES1    0.0000
     66 C27        3.7661   -1.8030  -19.3410 C.2       1 RES1    0.0000
     67 C28        0.5337   -1.0838  -32.2819 C.3       1 RES1    0.0000
     68 H33        0.4354   -0.3488  -32.8912 H         1 RES1    0.0000
     69 H34       -0.2903   -1.2174  -31.8063 H         1 RES1    0.0000
     70 H35        0.7515   -1.8792  -32.7732 H         1 RES1    0.0000
     71 C29        4.5713   -2.0241  -18.1120 C.3       1 RES1    0.0000
     72 H36        4.0226   -1.8717  -17.3378 H         1 RES1    0.0000
     73 H37        5.3144   -1.4169  -18.1016 H         1 RES1    0.0000
     74 H38        4.8959   -2.9278  -18.0999 H         1 RES1    0.0000
     75 H39        1.4443    1.3818  -32.6170 H         1 RES1    0.0000
@<TRIPOS>BOND
     1    1   37 1
     2    2   66 2
     3    3    4 1
     4    5   16 1
     5    6   14 2
     6    7    8 1
     7    9    7 1
     8   10    3 1
     9   11   12 1
    10   13   11 1
    11   15    6 2
    12   16   53 2
    13   17   11 1
    14   18   19 1
    15   20    3 1
    16   21   20 1
    17   22   20 1
    18   23   24 1
    19   25   23 1
    20   26    6 1
    21   27   18 ar
    22   28   27 1
    23   29    3 1
    24   30   29 1
    25   31   26 ar
    26   32   31 1
    27   33   17 1
    28   34   33 1
    29   35    7 1
    30   36   35 1
    31   37    7 1
    32   38   37 1
    33   39   10 1
    34   40   39 1
    35   41   39 1
    36   42   39 1
    37   43   10 1
    38   44   43 1
    39   45   43 1
    40   46   37 1
    41   47   46 1
    42   48   46 1
    43   49    5 1
    44   50   33 1
    45   51   50 1
    46   52   50 1
    47   53   54 1
    48   54   17 1
    49   55   17 1
    50   56   55 1
    51   57   55 1
    52   58   55 1
    53   59   31 ar
    54   60   59 1
    55   61   23 1
    56   62   61 1
    57   63   61 1
    58   64   50 1
    59   65   64 1
    60   66    1 1
    61   67   53 1
    62   68   67 1
    63   69   67 1
    64   70   67 1
    65   71   66 1
    66   72   71 1
    67   73   71 1
    68   74   71 1
    69   75    5 1
    70   10   35 1
    71   11   20 1
    72   18   26 ar
    73   23   29 1
    74   27   49 ar
    75   29   33 1
    76   35   61 1
    77   43   46 1
    78   49   59 ar
    79   54   64 2
@<TRIPOS>SUBSTRUCTURE
     1 RES1 1

@<TRIPOS>CRYSIN
  10.4270    7.4690   17.8410  90.0000 103.3530  90.0000   4 1

