# MOL2 file generated by ConQuest
# Please check atom types

@<TRIPOS>MOLECULE
UGIRIM
    91   100     1
SMALL
NO_CHARGES
****
Generated from CSD

@<TRIPOS>ATOM
      1 C1         4.1552    9.8053   21.6801 C.2       1 RES1    0.0000
      2 H1         4.8180    9.3281   22.1456 H         1 RES1    0.0000
      3 C2         2.7472    9.6501   21.9088 C.2       1 RES1    0.0000
      4 C3         2.1284   10.5178   20.9660 C.2       1 RES1    0.0000
      5 C4         3.1770   11.2263   20.3102 C.2       1 RES1    0.0000
      6 C5         3.1604   12.3352   19.4377 C.2       1 RES1    0.0000
      7 C6         2.1405   13.3013   19.4198 C.2       1 RES1    0.0000
      8 C7         1.9603   14.4001   18.5307 C.2       1 RES1    0.0000
      9 H2         2.5022   14.6008   17.7905 H         1 RES1    0.0000
     10 C8         0.8735   15.1102   18.9323 C.2       1 RES1    0.0000
     11 H3         0.5335   15.8819   18.5159 H         1 RES1    0.0000
     12 C9         0.3412   14.4862   20.0892 C.2       1 RES1    0.0000
     13 C10       -0.7800   14.8574   20.8490 C.2       1 RES1    0.0000
     14 C11       -1.3034   14.1429   21.9383 C.2       1 RES1    0.0000
     15 C12       -2.4502   14.6047   22.6996 C.2       1 RES1    0.0000
     16 H4        -2.8943   15.4275   22.6002 H         1 RES1    0.0000
     17 C13       -2.7537   13.6396   23.5667 C.2       1 RES1    0.0000
     18 H5        -3.4519   13.6504   24.1962 H         1 RES1    0.0000
     19 C14       -1.7976   12.5662   23.3520 C.2       1 RES1    0.0000
     20 C15       -1.8954   11.3341   24.0330 C.2       1 RES1    0.0000
     21 C16       -0.9380   10.3148   24.0262 C.2       1 RES1    0.0000
     22 C17       -1.0029    9.0240   24.6252 C.2       1 RES1    0.0000
     23 H6        -1.7301    8.6772   25.1103 H         1 RES1    0.0000
     24 C18        0.1683    8.3798   24.3756 C.2       1 RES1    0.0000
     25 H7         0.4011    7.5237   24.6847 H         1 RES1    0.0000
     26 C19        0.9812    9.2165   23.5692 C.2       1 RES1    0.0000
     27 C20        2.2273    8.9213   22.9910 C.2       1 RES1    0.0000
     28 N1         4.4115   10.6860   20.7476 N.2       1 RES1    0.0000
     29 N2         1.1313   13.4063   20.3431 N.pl3     1 RES1    0.0000
     30 H8         1.0120   12.8550   21.0042 H         1 RES1    0.0000
     31 N3        -0.8884   12.9178   22.3973 N.2       1 RES1    0.0000
     32 N4         0.2734   10.3825   23.4001 N.pl3     1 RES1    0.0000
     33 H9         0.5591   11.0727   22.9532 H         1 RES1    0.0000
     34 C21        4.3427   12.5413   18.5580 C.ar      1 RES1    0.0000
     35 C22        4.8455   11.4864   17.8115 C.ar      1 RES1    0.0000
     36 H10        4.4354   10.6417   17.8654 H         1 RES1    0.0000
     37 C23        5.9467   11.6645   16.9871 C.ar      1 RES1    0.0000
     38 H11        6.2762   10.9386   16.4871 H         1 RES1    0.0000
     39 C24        6.5594   12.8832   16.8924 C.ar      1 RES1    0.0000
     40 H12        7.3012   12.9982   16.3275 H         1 RES1    0.0000
     41 C25        6.0830   13.9364   17.6292 C.ar      1 RES1    0.0000
     42 H13        6.5036   14.7753   17.5728 H         1 RES1    0.0000
     43 C26        4.9856   13.7660   18.4533 C.ar      1 RES1    0.0000
     44 H14        4.6681   14.4954   18.9536 H         1 RES1    0.0000
     45 C27       -1.4725   16.1114   20.4125 C.ar      1 RES1    0.0000
     46 C28       -2.7628   16.0666   19.8909 C.ar      1 RES1    0.0000
     47 H15       -3.2051   15.2413   19.8096 H         1 RES1    0.0000
     48 C29       -3.4005   17.2343   19.4914 C.ar      1 RES1    0.0000
     49 H16       -4.2714   17.1968   19.1398 H         1 RES1    0.0000
     50 C30       -2.7589   18.4481   19.6087 C.ar      1 RES1    0.0000
     51 H17       -3.1943   19.2369   19.3405 H         1 RES1    0.0000
     52 C31       -1.4829   18.5081   20.1146 C.ar      1 RES1    0.0000
     53 H18       -1.0468   19.3371   20.1941 H         1 RES1    0.0000
     54 C32       -0.8411   17.3447   20.5068 C.ar      1 RES1    0.0000
     55 H19        0.0354   17.3908   20.8422 H         1 RES1    0.0000
     56 C33       -3.1637   11.0565   24.7683 C.ar      1 RES1    0.0000
     57 C34       -4.3776   11.1108   24.0915 C.ar      1 RES1    0.0000
     58 H20       -4.3902   11.3304   23.1781 H         1 RES1    0.0000
     59 C35       -5.5631   10.8468   24.7427 C.ar      1 RES1    0.0000
     60 H21       -6.3764   10.8956   24.2736 H         1 RES1    0.0000
     61 C36       -5.5608   10.5128   26.0785 C.ar      1 RES1    0.0000
     62 H22       -6.3697   10.3384   26.5249 H         1 RES1    0.0000
     63 C37       -4.3733   10.4368   26.7529 C.ar      1 RES1    0.0000
     64 H23       -4.3698   10.1926   27.6614 H         1 RES1    0.0000
     65 C38       -3.1767   10.7157   26.1143 C.ar      1 RES1    0.0000
     66 H24       -2.3694   10.6743   26.5950 H         1 RES1    0.0000
     67 C39        3.0175    7.8002   23.5416 C.ar      1 RES1    0.0000
     68 C40        3.6587    6.9210   22.6703 C.ar      1 RES1    0.0000
     69 H25        3.5857    7.0524   21.7417 H         1 RES1    0.0000
     70 C41        4.3984    5.8614   23.1523 C.ar      1 RES1    0.0000
     71 H26        4.8224    5.2766   22.5518 H         1 RES1    0.0000
     72 C42        4.5187    5.6555   24.5084 C.ar      1 RES1    0.0000
     73 H27        5.0175    4.9290   24.8346 H         1 RES1    0.0000
     74 C43        3.9044    6.5194   25.3825 C.ar      1 RES1    0.0000
     75 H28        3.9955    6.3884   26.3097 H         1 RES1    0.0000
     76 C44        3.1543    7.5781   24.9098 C.ar      1 RES1    0.0000
     77 H29        2.7305    8.1564   25.5189 H         1 RES1    0.0000
     78 N5         0.8136   10.7158   20.5943 N.2       1 RES1    0.0000
     79 N6        -0.0241    9.7442   20.6657 N.pl3     1 RES1    0.0000
     80 C45       -1.4067   10.1128   20.4154 C.ar      1 RES1    0.0000
     81 C46       -1.7052   11.2729   19.7349 C.ar      1 RES1    0.0000
     82 H30       -1.0202   11.8147   19.3864 H         1 RES1    0.0000
     83 C47       -3.0322   11.6249   19.5743 C.ar      1 RES1    0.0000
     84 H31       -3.2551   12.4071   19.1035 H         1 RES1    0.0000
     85 C48       -4.0346   10.8310   20.1030 C.ar      1 RES1    0.0000
     86 H32       -4.9351   11.0844   20.0079 H         1 RES1    0.0000
     87 C49       -3.7111    9.6736   20.7660 C.ar      1 RES1    0.0000
     88 H33       -4.3953    9.1302   21.1106 H         1 RES1    0.0000
     89 C50       -2.3918    9.2971   20.9324 C.ar      1 RES1    0.0000
     90 H34       -2.1705    8.5040   21.3863 H         1 RES1    0.0000
     91 O1         0.2395    8.5480   20.9631 O.2       1 RES1    0.0000
@<TRIPOS>BOND
     1    1    2 1
     2    3    1 1
     3    4    3 1
     4    5    4 2
     5    6    5 1
     6    7    6 2
     7    8    7 1
     8    9    8 1
     9   10    8 2
    10   11   10 1
    11   12   10 1
    12   13   12 2
    13   14   13 1
    14   15   14 1
    15   16   15 1
    16   17   15 2
    17   18   17 1
    18   19   17 1
    19   20   19 2
    20   21   20 1
    21   22   21 2
    22   23   22 1
    23   24   22 1
    24   25   24 1
    25   26   24 2
    26   27    3 2
    27   28    1 2
    28   29    7 1
    29   30   29 1
    30   31   14 2
    31   32   21 1
    32   33   32 1
    33   34    6 1
    34   35   34 ar
    35   36   35 1
    36   37   35 ar
    37   38   37 1
    38   39   37 ar
    39   40   39 1
    40   41   39 ar
    41   42   41 1
    42   43   34 ar
    43   44   43 1
    44   45   13 1
    45   46   45 ar
    46   47   46 1
    47   48   46 ar
    48   49   48 1
    49   50   48 ar
    50   51   50 1
    51   52   50 ar
    52   53   52 1
    53   54   45 ar
    54   55   54 1
    55   56   20 1
    56   57   56 ar
    57   58   57 1
    58   59   57 ar
    59   60   59 1
    60   61   59 ar
    61   62   61 1
    62   63   61 ar
    63   64   63 1
    64   65   56 ar
    65   66   65 1
    66   67   27 1
    67   68   67 ar
    68   69   68 1
    69   70   68 ar
    70   71   70 1
    71   72   70 ar
    72   73   72 1
    73   74   72 ar
    74   75   74 1
    75   76   67 ar
    76   77   76 1
    77   78    4 1
    78   79   78 2
    79   80   79 1
    80   81   80 ar
    81   82   81 1
    82   83   81 ar
    83   84   83 1
    84   85   83 ar
    85   86   85 1
    86   87   85 ar
    87   88   87 1
    88   89   80 ar
    89   90   89 1
    90   91   79 1
    91    5   28 1
    92   12   29 1
    93   19   31 1
    94   26   27 1
    95   26   32 1
    96   41   43 ar
    97   52   54 ar
    98   63   65 ar
    99   74   76 ar
   100   87   89 ar
@<TRIPOS>SUBSTRUCTURE
     1 RES1 1

@<TRIPOS>CRYSIN
  11.8120   13.0190   24.8800  90.0000 103.6070  90.0000 231 1

