# MOL2 file generated by ConQuest
# Please check atom types

@<TRIPOS>MOLECULE
UGIXUF
    17    17     1
SMALL
NO_CHARGES
****
Generated from CSD

@<TRIPOS>ATOM
      1 O1         0.5566    4.9639   -1.8075 O.2       1 RES1    0.0000
      2 O2         2.2504    4.7450   -3.0937 O.2       1 RES1    0.0000
      3 O3         3.6811    0.6767    1.4269 O.3       1 RES1    0.0000
      4 O4         4.7498    1.9170   -3.2351 O.2       1 RES1    0.0000
      5 N1         1.6130    4.4349   -2.1011 N.pl3     1 RES1    0.0000
      6 C1         2.1368    3.4058   -1.2138 C.ar      1 RES1    0.0000
      7 C2         1.6151    3.3346    0.0629 C.ar      1 RES1    0.0000
      8 H1         0.9243    3.9064    0.3124 H         1 RES1    0.0000
      9 C3         2.1062    2.4308    0.9632 C.ar      1 RES1    0.0000
     10 H2         1.7493    2.3885    1.8214 H         1 RES1    0.0000
     11 C4         3.1311    1.5805    0.5980 C.ar      1 RES1    0.0000
     12 C5         3.6426    1.6456   -0.6902 C.ar      1 RES1    0.0000
     13 H3         4.3230    1.0621   -0.9372 H         1 RES1    0.0000
     14 C6         3.1671    2.5520   -1.6142 C.ar      1 RES1    0.0000
     15 C7         3.7498    2.4725   -2.9749 C.2       1 RES1    0.0000
     16 H4         3.2927    2.8906   -3.6686 H         1 RES1    0.0000
     17 H5         3.3245    0.7128    2.2356 H         1 RES1    0.0000
@<TRIPOS>BOND
     1    1    5 2
     2    2    5 2
     3    3   11 1
     4    4   15 2
     5    5    6 1
     6    6    7 ar
     7    7    8 1
     8    9    7 ar
     9   10    9 1
    10   11    9 ar
    11   12   11 ar
    12   13   12 1
    13   14    6 ar
    14   15   14 1
    15   16   15 1
    16   17    3 1
    17   12   14 ar
@<TRIPOS>SUBSTRUCTURE
     1 RES1 1

@<TRIPOS>CRYSIN
   9.6648    5.0917   14.9200  90.0000 106.1590  90.0000  14 1

