# MOL2 file generated by ConQuest
# Please check atom types

@<TRIPOS>MOLECULE
UGOCAV
    45    46     2
SMALL
NO_CHARGES
****
Generated from CSD

@<TRIPOS>ATOM
      1 O1        -1.1952   -0.0998    8.9453 O.2       1 RES1    0.0000
      2 H1        -0.5134   -0.1092    9.3997 Du        2 SUP2    0.0000
      3 O2        -1.6429    4.8883    4.9334 O.3       1 RES1    0.0000
      4 N1        -2.1189    1.7350    8.0588 N.am      1 RES1    0.0000
      5 H2        -2.7810    1.6102    8.5937 H         1 RES1    0.0000
      6 O3         0.0531    5.2482    6.3331 O.2       1 RES1    0.0000
      7 C1        -2.4665    4.1431    8.0648 C.ar      1 RES1    0.0000
      8 C2        -0.9667    3.0773    6.2638 C.3       1 RES1    0.0000
      9 H3        -1.1444    2.5753    5.4416 H         1 RES1    0.0000
     10 C3        -3.3509    5.1704    7.7339 C.ar      1 RES1    0.0000
     11 N2        -4.2700    5.0778    6.5896 N.pl3     1 RES1    0.0000
     12 C4        -1.7134    4.3302    9.2088 C.ar      1 RES1    0.0000
     13 H4        -1.1189    3.6655    9.4715 H         1 RES1    0.0000
     14 C5        -2.2247    2.9099    7.1909 C.3       1 RES1    0.0000
     15 H5        -3.0090    2.7901    6.6151 H         1 RES1    0.0000
     16 C6        -0.7654    4.5161    5.8706 C.2       1 RES1    0.0000
     17 C7        -0.0114    0.9917    7.1575 C.3       1 RES1    0.0000
     18 H6        -0.2954    0.5915    6.3090 H         1 RES1    0.0000
     19 C8         0.2531    2.4643    6.9052 C.3       1 RES1    0.0000
     20 H7         0.4161    2.9082    7.7632 H         1 RES1    0.0000
     21 C9        -1.1361    0.8260    8.1373 C.2       1 RES1    0.0000
     22 O4        -4.8023    3.9863    6.3619 O.2       1 RES1    0.0000
     23 O5        -4.5060    6.0692    5.9575 O.2       1 RES1    0.0000
     24 C10        1.5591    2.4519    6.0964 C.3       1 RES1    0.0000
     25 H8         2.0794    3.2528    6.2665 H         1 RES1    0.0000
     26 H9         1.3767    2.3922    5.1458 H         1 RES1    0.0000
     27 C11       -2.6867    6.4843    9.6000 C.ar      1 RES1    0.0000
     28 H10       -2.7494    7.2626   10.1055 H         1 RES1    0.0000
     29 C12       -1.8214    5.4858    9.9799 C.ar      1 RES1    0.0000
     30 H11       -1.3079    5.5809   10.7499 H         1 RES1    0.0000
     31 C13        1.3573    0.4224    7.4995 C.3       1 RES1    0.0000
     32 H12        1.3953   -0.5283    7.3125 H         1 RES1    0.0000
     33 H13        1.5724    0.5707    8.4331 H         1 RES1    0.0000
     34 C14        2.3063    1.1961    6.5915 C.3       1 RES1    0.0000
     35 H14        2.5726    0.6452    5.8384 H         1 RES1    0.0000
     36 H15        3.1037    1.4519    7.0819 H         1 RES1    0.0000
     37 C15       -3.4577    6.3349    8.4794 C.ar      1 RES1    0.0000
     38 H16       -4.0467    7.0070    8.2214 H         1 RES1    0.0000
     39 C16       -1.5649    6.2725    4.4835 C.3       1 RES1    0.0000
     40 H17       -1.2743    6.8352    5.2176 H         1 RES1    0.0000
     41 H18       -2.4451    6.5716    4.2057 H         1 RES1    0.0000
     42 C17       -0.6206    6.4091    3.3562 C.3       1 RES1    0.0000
     43 H19       -0.6004    7.3241    3.0633 H         1 RES1    0.0000
     44 H20       -0.9033    5.8475    2.6306 H         1 RES1    0.0000
     45 H21        0.2576    6.1456    3.6406 H         1 RES1    0.0000
@<TRIPOS>BOND
     1    1   21 2
     2    3   16 1
     3    4    5 1
     4    6   16 2
     5    7   10 ar
     6    8    9 1
     7   10   11 1
     8   11   22 2
     9   12    7 ar
    10   13   12 1
    11   14    4 1
    12   15   14 1
    13   16    8 1
    14   17   18 1
    15   19    8 1
    16   20   19 1
    17   21    4 1
    18   23   11 2
    19   24   19 1
    20   25   24 1
    21   26   24 1
    22   27   28 1
    23   29   12 ar
    24   30   29 1
    25   31   17 1
    26   32   31 1
    27   33   31 1
    28   34   24 1
    29   35   34 1
    30   36   34 1
    31   37   10 ar
    32   38   37 1
    33   39    3 1
    34   40   39 1
    35   41   39 1
    36   42   39 1
    37   43   42 1
    38   44   42 1
    39   45   42 1
    40    7   14 1
    41    8   14 1
    42   17   19 1
    43   17   21 1
    44   27   29 ar
    45   27   37 ar
    46   31   34 1
@<TRIPOS>SUBSTRUCTURE
     1 RES1 1
     2 SUP2 2

@<TRIPOS>CRYSIN
   9.5950   10.0190   10.3050 109.2690  95.1940 111.1050   2 1

