# MOL2 file generated by ConQuest
# Please check atom types

@<TRIPOS>MOLECULE
UGOQOX
    43    46     1
SMALL
NO_CHARGES
****
Generated from CSD

@<TRIPOS>ATOM
      1 O1         5.8202    6.5746    2.3780 O.3       1 RES1    0.0000
      2 N1         4.8283    7.4593    2.9266 N.3       1 RES1    0.0000
      3 C1         3.7636    6.5210    3.2903 C.3       1 RES1    0.0000
      4 H1         3.1653    6.9292    3.9503 H         1 RES1    0.0000
      5 C2         4.4974    5.3474    3.9095 C.3       1 RES1    0.0000
      6 H2         4.6592    5.4953    4.8539 H         1 RES1    0.0000
      7 H3         3.9968    4.5248    3.7975 H         1 RES1    0.0000
      8 C3         5.7953    5.3030    3.1353 C.3       1 RES1    0.0000
      9 C4         6.0485    4.1916    2.1547 C.3       1 RES1    0.0000
     10 H4         5.6611    4.3961    1.2896 H         1 RES1    0.0000
     11 H5         5.6783    3.3543    2.4765 H         1 RES1    0.0000
     12 C5         7.5486    4.1218    2.0708 C.3       1 RES1    0.0000
     13 H6         7.8414    3.2026    1.9705 H         1 RES1    0.0000
     14 H7         7.8708    4.6358    1.3152 H         1 RES1    0.0000
     15 O2         8.0406    4.6810    3.3148 O.3       1 RES1    0.0000
     16 C6         7.0620    5.2915    3.9911 C.2       1 RES1    0.0000
     17 O3         7.2148    5.7435    5.0754 O.2       1 RES1    0.0000
     18 C7         5.3524    8.3394    3.9258 C.ar      1 RES1    0.0000
     19 C8         6.6933    8.6589    3.9468 C.ar      1 RES1    0.0000
     20 H8         7.2777    8.2544    3.3486 H         1 RES1    0.0000
     21 C9         7.1596    9.5781    4.8539 C.ar      1 RES1    0.0000
     22 H9         8.0681    9.7811    4.8702 H         1 RES1    0.0000
     23 C10        6.3131   10.2024    5.7377 C.ar      1 RES1    0.0000
     24 H10        6.6408   10.8182    6.3533 H         1 RES1    0.0000
     25 C11        4.9858    9.9021    5.6934 C.ar      1 RES1    0.0000
     26 H11        4.4010   10.3287    6.2775 H         1 RES1    0.0000
     27 C12        4.4912    8.9745    4.7979 C.ar      1 RES1    0.0000
     28 H12        3.5820    8.7784    4.7816 H         1 RES1    0.0000
     29 C13        2.9860    6.1510    2.0381 C.2       1 RES1    0.0000
     30 O4         2.8317    5.0081    1.7315 O.2       1 RES1    0.0000
     31 C14        2.4379    7.2502    1.1671 C.ar      1 RES1    0.0000
     32 C15        1.9709    6.9231   -0.0886 C.ar      1 RES1    0.0000
     33 H13        2.0023    6.0376   -0.3719 H         1 RES1    0.0000
     34 C16        1.4558    7.8829   -0.9304 C.ar      1 RES1    0.0000
     35 H14        1.1442    7.6615   -1.7781 H         1 RES1    0.0000
     36 C17        1.4169    9.1790   -0.4757 C.ar      1 RES1    0.0000
     37 C18        1.8508    9.5444    0.7590 C.ar      1 RES1    0.0000
     38 H15        1.8009   10.4291    1.0412 H         1 RES1    0.0000
     39 C19        2.3669    8.5692    1.5810 C.ar      1 RES1    0.0000
     40 H16        2.6722    8.7998    2.4287 H         1 RES1    0.0000
     41 N2         0.8831   10.1978   -1.3863 N.pl3     1 RES1    0.0000
     42 O5         0.2239    9.8370   -2.3436 O.2       1 RES1    0.0000
     43 O6         1.1539   11.3628   -1.1811 O.2       1 RES1    0.0000
@<TRIPOS>BOND
     1    1    2 1
     2    2    3 1
     3    3    4 1
     4    5    3 1
     5    6    5 1
     6    7    5 1
     7    8    1 1
     8    9    8 1
     9   10    9 1
    10   11    9 1
    11   12    9 1
    12   13   12 1
    13   14   12 1
    14   15   12 1
    15   16    8 1
    16   17   16 2
    17   18    2 1
    18   19   18 ar
    19   20   19 1
    20   21   19 ar
    21   22   21 1
    22   23   21 ar
    23   24   23 1
    24   25   23 ar
    25   26   25 1
    26   27   18 ar
    27   28   27 1
    28   29    3 1
    29   30   29 2
    30   31   29 1
    31   32   31 ar
    32   33   32 1
    33   34   32 ar
    34   35   34 1
    35   36   34 ar
    36   37   36 ar
    37   38   37 1
    38   39   31 ar
    39   40   39 1
    40   41   36 1
    41   42   41 2
    42   43   41 2
    43    5    8 1
    44   15   16 1
    45   25   27 ar
    46   37   39 ar
@<TRIPOS>SUBSTRUCTURE
     1 RES1 1

@<TRIPOS>CRYSIN
  18.5760    7.6600   11.7230  90.0000  95.9600  90.0000  14 1

