# MOL2 file generated by ConQuest
# Please check atom types

@<TRIPOS>MOLECULE
UGOQUD
    42    45     1
SMALL
NO_CHARGES
****
Generated from CSD

@<TRIPOS>ATOM
      1 O1         1.4296    0.3742    8.3851 O.3       1 RES1    0.0000
      2 N1         1.9036   -0.6924    9.2553 N.3       1 RES1    0.0000
      3 C1         2.3626   -1.6902    8.2916 C.3       1 RES1    0.0000
      4 H1         2.9900   -2.3142    8.7134 H         1 RES1    0.0000
      5 C2         3.0553   -0.8877    7.2059 C.3       1 RES1    0.0000
      6 H2         3.0132   -1.3434    6.3505 H         1 RES1    0.0000
      7 H3         3.9836   -0.7165    7.4325 H         1 RES1    0.0000
      8 C3         2.2407    0.4081    7.1857 C.3       1 RES1    0.0000
      9 C4         1.3435    0.6484    5.9830 C.3       1 RES1    0.0000
     10 H4         1.3070   -0.1415    5.4206 H         1 RES1    0.0000
     11 H5         0.4440    0.8713    6.2675 H         1 RES1    0.0000
     12 C5         1.9537    1.7813    5.2496 C.2       1 RES1    0.0000
     13 O2         2.9617    2.3533    6.0323 O.3       1 RES1    0.0000
     14 C6         3.1234    1.6508    7.2068 C.2       1 RES1    0.0000
     15 O3         3.8488    2.0444    8.0555 O.2       1 RES1    0.0000
     16 C7         2.8462   -0.1724   10.2063 C.ar      1 RES1    0.0000
     17 C8         2.4514    0.9365   10.9329 C.ar      1 RES1    0.0000
     18 H6         1.6203    1.3224   10.7720 H         1 RES1    0.0000
     19 C9         3.2809    1.4761   11.8936 C.ar      1 RES1    0.0000
     20 H7         3.0186    2.2313   12.3674 H         1 RES1    0.0000
     21 C10        4.5003    0.8868   12.1457 C.ar      1 RES1    0.0000
     22 H8         5.0686    1.2483   12.7857 H         1 RES1    0.0000
     23 C11        4.8715   -0.2300   11.4515 C.ar      1 RES1    0.0000
     24 H9         5.6899   -0.6314   11.6345 H         1 RES1    0.0000
     25 C12        4.0527   -0.7707   10.4837 C.ar      1 RES1    0.0000
     26 H10        4.3149   -1.5336   10.0218 H         1 RES1    0.0000
     27 C13        1.1181   -2.4272    7.7961 C.2       1 RES1    0.0000
     28 O4         0.7735   -2.3453    6.6392 O.2       1 RES1    0.0000
     29 C14        0.3414   -3.2637    8.7623 C.ar      1 RES1    0.0000
     30 C15       -0.8481   -3.8387    8.3198 C.ar      1 RES1    0.0000
     31 H11       -1.1494   -3.6632    7.4585 H         1 RES1    0.0000
     32 C16       -1.5813   -4.6605    9.1381 C.ar      1 RES1    0.0000
     33 H12       -2.3759   -5.0420    8.8413 H         1 RES1    0.0000
     34 C17       -1.1133   -4.9052   10.4032 C.ar      1 RES1    0.0000
     35 C18        0.0498   -4.3587   10.8807 C.ar      1 RES1    0.0000
     36 H13        0.3420   -4.5411   11.7452 H         1 RES1    0.0000
     37 C19        0.7779   -3.5320   10.0507 C.ar      1 RES1    0.0000
     38 H14        1.5684   -3.1512   10.3572 H         1 RES1    0.0000
     39 N2        -1.8892   -5.7973   11.2824 N.pl3     1 RES1    0.0000
     40 O5        -2.8888   -6.3257   10.8242 O.2       1 RES1    0.0000
     41 O6        -1.4855   -5.9911   12.4148 O.2       1 RES1    0.0000
     42 O7         1.7003    2.2474    4.1926 O.2       1 RES1    0.0000
@<TRIPOS>BOND
     1    1    2 1
     2    2    3 1
     3    3    4 1
     4    5    3 1
     5    6    5 1
     6    7    5 1
     7    8    1 1
     8    9    8 1
     9   10    9 1
    10   11    9 1
    11   12    9 1
    12   13   12 1
    13   14    8 1
    14   15   14 2
    15   16    2 1
    16   17   16 ar
    17   18   17 1
    18   19   17 ar
    19   20   19 1
    20   21   19 ar
    21   22   21 1
    22   23   21 ar
    23   24   23 1
    24   25   16 ar
    25   26   25 1
    26   27    3 1
    27   28   27 2
    28   29   27 1
    29   30   29 ar
    30   31   30 1
    31   32   30 ar
    32   33   32 1
    33   34   32 ar
    34   35   34 ar
    35   36   35 1
    36   37   29 ar
    37   38   37 1
    38   39   34 1
    39   40   39 2
    40   41   39 2
    41   42   12 2
    42    5    8 1
    43   13   14 1
    44   23   25 ar
    45   35   37 ar
@<TRIPOS>SUBSTRUCTURE
     1 RES1 1

@<TRIPOS>CRYSIN
  17.9040   11.0570   17.2850  90.0000  90.0000  90.0000  60 1

