# MOL2 file generated by ConQuest
# Please check atom types

@<TRIPOS>MOLECULE
UGORIS
    55    61     1
SMALL
NO_CHARGES
****
Generated from CSD

@<TRIPOS>ATOM
      1 O1         0.2217    3.8744    3.7230 O.3       1 RES1    0.0000
      2 O2         9.2763    3.5322    4.3580 O.3       1 RES1    0.0000
      3 O3        -3.0073    4.8198    7.0327 O.3       1 RES1    0.0000
      4 O4         4.0023    4.4602    4.3872 O.3       1 RES1    0.0000
      5 O5         9.7633    4.7850    2.5694 O.3       1 RES1    0.0000
      6 O6         6.6195    3.9266    5.8652 O.3       1 RES1    0.0000
      7 O7        -2.4484    3.5670    5.0983 O.3       1 RES1    0.0000
      8 N1         2.7480    4.4718    5.1807 N.3       1 RES1    0.0000
      9 N2         2.6572    6.8382    4.9944 N.3       1 RES1    0.0000
     10 N3         4.0296    6.8962    4.4937 N.3       1 RES1    0.0000
     11 C1         8.1761    4.4138    4.0589 C.ar      1 RES1    0.0000
     12 C2         6.3675    6.3278    3.1132 C.ar      1 RES1    0.0000
     13 C3         6.0656    5.5680    4.2072 C.ar      1 RES1    0.0000
     14 C4         0.6081    5.4810    5.3493 C.ar      1 RES1    0.0000
     15 C5         6.9444    4.6226    4.7193 C.ar      1 RES1    0.0000
     16 C6         1.2637    7.4124    6.8869 C.3       1 RES1    0.0000
     17 H1         0.9781    8.2517    6.4914 H         1 RES1    0.0000
     18 H2         1.2430    7.5162    7.8515 H         1 RES1    0.0000
     19 C7         5.4902    7.3602    2.6062 C.3       1 RES1    0.0000
     20 H3         5.5230    7.3463    1.6365 H         1 RES1    0.0000
     21 H4         5.8238    8.2215    2.9003 H         1 RES1    0.0000
     22 C8         7.7087    6.0900    2.4401 C.ar      1 RES1    0.0000
     23 H5         7.9678    6.5853    1.6973 H         1 RES1    0.0000
     24 C9         4.0584    7.2210    3.0448 C.3       1 RES1    0.0000
     25 H6         3.5798    8.0458    2.8813 H         1 RES1    0.0000
     26 H7         3.6258    6.5111    2.5403 H         1 RES1    0.0000
     27 C10       -1.7496    5.1620    6.5320 C.ar      1 RES1    0.0000
     28 C11       -0.2751    4.5182    4.8207 C.ar      1 RES1    0.0000
     29 C12        8.4878    5.1678    2.9345 C.ar      1 RES1    0.0000
     30 C13       -0.8990    6.0900    7.0479 C.ar      1 RES1    0.0000
     31 H8        -1.1379    6.5813    7.7983 H         1 RES1    0.0000
     32 C14        2.7134    7.1108    6.4420 C.3       1 RES1    0.0000
     33 H9         3.2889    7.8700    6.6232 H         1 RES1    0.0000
     34 H10        3.0598    6.3394    6.9173 H         1 RES1    0.0000
     35 C15       -1.4441    4.3732    5.4342 C.ar      1 RES1    0.0000
     36 C16        0.2627    6.2756    6.4660 C.ar      1 RES1    0.0000
     37 C17       10.1712    3.6482    3.3465 C.3       1 RES1    0.0000
     38 H11       10.1742    2.8484    2.8014 H         1 RES1    0.0000
     39 H12       11.0648    3.7868    3.7001 H         1 RES1    0.0000
     40 C18        4.7521    5.5854    4.8549 C.3       1 RES1    0.0000
     41 H13        4.8607    5.5233    5.8272 H         1 RES1    0.0000
     42 C19       -0.2532    2.6042    3.4606 C.3       1 RES1    0.0000
     43 H14        0.2369    2.2243    2.7228 H         1 RES1    0.0000
     44 H15       -1.1858    2.6506    3.2286 H         1 RES1    0.0000
     45 H16       -0.1422    2.0503    4.2338 H         1 RES1    0.0000
     46 C20       -3.3432    3.7004    6.2873 C.3       1 RES1    0.0000
     47 H17       -4.2649    3.7712    5.9958 H         1 RES1    0.0000
     48 H18       -3.2639    2.9070    6.8425 H         1 RES1    0.0000
     49 C21        6.9906    2.7202    6.1986 C.3       1 RES1    0.0000
     50 H19        6.7789    2.5648    7.1265 H         1 RES1    0.0000
     51 H20        7.9359    2.6233    6.0680 H         1 RES1    0.0000
     52 H21        6.5228    2.0787    5.6573 H         1 RES1    0.0000
     53 C22        2.0184    5.6492    4.7320 C.3       1 RES1    0.0000
     54 H22        1.9234    5.5784    3.7597 H         1 RES1    0.0000
     55 H23        2.2844    3.6650    4.9880 H         1 RES1    0.0000
@<TRIPOS>BOND
     1    1   28 1
     2    2   11 1
     3    3   27 1
     4    4    8 1
     5    5   29 1
     6    6   15 1
     7    7   35 1
     8    8   53 1
     9    9   10 1
    10   10   24 1
    11   11   15 ar
    12   12   13 ar
    13   13   15 ar
    14   14   28 ar
    15   16   17 1
    16   18   16 1
    17   19   12 1
    18   20   19 1
    19   21   19 1
    20   22   12 ar
    21   23   22 1
    22   24   19 1
    23   25   24 1
    24   26   24 1
    25   27   30 ar
    26   28   35 ar
    27   29   11 ar
    28   30   31 1
    29   32    9 1
    30   33   32 1
    31   34   32 1
    32   35   27 ar
    33   36   14 ar
    34   37    2 1
    35   38   37 1
    36   39   37 1
    37   40    4 1
    38   41   40 1
    39   42    1 1
    40   43   42 1
    41   44   42 1
    42   45   42 1
    43   46    3 1
    44   47   46 1
    45   48   46 1
    46   49    6 1
    47   50   49 1
    48   51   49 1
    49   52   49 1
    50   53    9 1
    51   54   53 1
    52   55    8 1
    53    5   37 1
    54    7   46 1
    55   10   40 1
    56   13   40 1
    57   14   53 1
    58   16   32 1
    59   16   36 1
    60   22   29 ar
    61   30   36 ar
@<TRIPOS>SUBSTRUCTURE
     1 RES1 1

@<TRIPOS>CRYSIN
  27.3200    5.8000   13.0100  90.0000 103.0100  90.0000   9 1

