# MOL2 file generated by ConQuest
# Please check atom types

@<TRIPOS>MOLECULE
UGOXAQ
    57    60     1
SMALL
NO_CHARGES
****
Generated from CSD

@<TRIPOS>ATOM
      1 O1         2.8893   14.5554    7.2882 O.3       1 RES1    0.0000
      2 H1         2.6179   15.2624    7.2159 H         1 RES1    0.0000
      3 O2         2.7384   15.7545   12.3001 O.2       1 RES1    0.0000
      4 O3         2.5096   13.6187   12.8131 O.3       1 RES1    0.0000
      5 H2         1.9097   13.9438   13.2843 H         1 RES1    0.0000
      6 O4         5.7918   10.7206    9.9198 O.3       1 RES1    0.0000
      7 H3         6.1068   10.0618    9.7462 H         1 RES1    0.0000
      8 O5         0.0594    8.1917    9.5563 O.3       1 RES1    0.0000
      9 H4        -0.5087    7.7142    9.5476 H         1 RES1    0.0000
     10 N1         0.7664    8.1244    8.3263 N.2       1 RES1    0.0000
     11 C1         3.6900   14.3237    8.4668 C.3       1 RES1    0.0000
     12 H5         4.5960   14.1117    8.1589 H         1 RES1    0.0000
     13 C2         3.7907   15.5896    9.2909 C.3       1 RES1    0.0000
     14 H6         2.9097   15.8341    9.6153 H         1 RES1    0.0000
     15 H7         4.1169   16.3136    8.7333 H         1 RES1    0.0000
     16 C3         4.7277   15.3985   10.4715 C.3       1 RES1    0.0000
     17 H8         4.7389   16.2103   11.0011 H         1 RES1    0.0000
     18 H9         5.6269   15.2495   10.1405 H         1 RES1    0.0000
     19 C4         4.3258   14.2286   11.3637 C.3       1 RES1    0.0000
     20 C5         4.1834   12.9618   10.4711 C.3       1 RES1    0.0000
     21 H10        5.0592   12.8816   10.0390 H         1 RES1    0.0000
     22 C6         4.0209   11.6368   11.2161 C.3       1 RES1    0.0000
     23 H11        4.5736   11.6368   12.0132 H         1 RES1    0.0000
     24 H12        3.0960   11.5224   11.4865 H         1 RES1    0.0000
     25 C7         4.4327   10.5065   10.3067 C.3       1 RES1    0.0000
     26 H13        4.3741    9.6635   10.8039 H         1 RES1    0.0000
     27 C8         3.4994   10.4320    9.0982 C.3       1 RES1    0.0000
     28 C9         3.3407   11.7981    8.3686 C.3       1 RES1    0.0000
     29 H14        4.1737   11.9263    7.8691 H         1 RES1    0.0000
     30 C10        3.1835   13.0905    9.2696 C.3       1 RES1    0.0000
     31 C11        2.2409   11.6383    7.3012 C.3       1 RES1    0.0000
     32 H15        1.3785   11.5888    7.7433 H         1 RES1    0.0000
     33 H16        2.2372   12.4242    6.7333 H         1 RES1    0.0000
     34 C12        2.4193   10.3938    6.4237 C.3       1 RES1    0.0000
     35 H17        3.1445   10.5524    5.7999 H         1 RES1    0.0000
     36 H18        1.6104   10.2573    5.9066 H         1 RES1    0.0000
     37 C13        2.7208    9.1156    7.2210 C.3       1 RES1    0.0000
     38 C14        3.9819    9.3952    8.0618 C.3       1 RES1    0.0000
     39 H19        4.6944    9.7576    7.5123 H         1 RES1    0.0000
     40 H20        4.2971    8.5883    8.4972 H         1 RES1    0.0000
     41 C15        2.1371    9.8160    9.5174 C.3       1 RES1    0.0000
     42 H21        2.2342    9.2781   10.3192 H         1 RES1    0.0000
     43 H22        1.4810   10.5118    9.6837 H         1 RES1    0.0000
     44 C16        1.7268    8.9625    8.3494 C.2       1 RES1    0.0000
     45 C17        2.8168    7.9130    6.2986 C.3       1 RES1    0.0000
     46 H23        1.9946    7.8156    5.8132 H         1 RES1    0.0000
     47 H24        2.9772    7.1222    6.8194 H         1 RES1    0.0000
     48 H25        3.5396    8.0406    5.6808 H         1 RES1    0.0000
     49 C18        5.4461   14.0331   12.4112 C.3       1 RES1    0.0000
     50 H26        5.5204   14.8235   12.9518 H         1 RES1    0.0000
     51 H27        6.2796   13.8738   11.9617 H         1 RES1    0.0000
     52 H28        5.2347   13.2818   12.9694 H         1 RES1    0.0000
     53 C19        3.1001   14.6087   12.1794 C.2       1 RES1    0.0000
     54 C20        1.7278   13.3262    9.7109 C.3       1 RES1    0.0000
     55 H29        1.6819   14.1154   10.2552 H         1 RES1    0.0000
     56 H30        1.4200   12.5699   10.2162 H         1 RES1    0.0000
     57 H31        1.1724   13.4404    8.9356 H         1 RES1    0.0000
@<TRIPOS>BOND
     1    1    2 1
     2    3   53 2
     3    4    5 1
     4    6    7 1
     5    8    9 1
     6   10    8 1
     7   11    1 1
     8   12   11 1
     9   13   11 1
    10   14   13 1
    11   15   13 1
    12   16   13 1
    13   17   16 1
    14   18   16 1
    15   19   16 1
    16   20   19 1
    17   21   20 1
    18   22   20 1
    19   23   22 1
    20   24   22 1
    21   25    6 1
    22   26   25 1
    23   27   25 1
    24   28   27 1
    25   29   28 1
    26   30   11 1
    27   31   28 1
    28   32   31 1
    29   33   31 1
    30   34   31 1
    31   35   34 1
    32   36   34 1
    33   37   34 1
    34   38   27 1
    35   39   38 1
    36   40   38 1
    37   41   27 1
    38   42   41 1
    39   43   41 1
    40   44   10 2
    41   45   37 1
    42   46   45 1
    43   47   45 1
    44   48   45 1
    45   49   19 1
    46   50   49 1
    47   51   49 1
    48   52   49 1
    49   53    4 1
    50   54   30 1
    51   55   54 1
    52   56   54 1
    53   57   54 1
    54   19   53 1
    55   20   30 1
    56   22   25 1
    57   28   30 1
    58   37   38 1
    59   37   44 1
    60   41   44 1
@<TRIPOS>SUBSTRUCTURE
     1 RES1 1

@<TRIPOS>CRYSIN
   7.0530   18.4418    7.6490  90.0000 105.9200  90.0000   4 1

