# MOL2 file generated by ConQuest
# Please check atom types

@<TRIPOS>MOLECULE
UGUGUY
    30    32     2
SMALL
NO_CHARGES
****
Generated from CSD

@<TRIPOS>ATOM
      1 C1         4.7132    2.7218    9.2799 C.3       1 RES1    0.0000
      2 N1         4.6644    2.7218   10.7645 N.pl3     1 RES1    0.0000
      3 O1         5.7054    2.7218   11.3651 O.2       1 RES1    0.0000
      4 O2         3.5425    2.7218   11.2412 O.2       1 RES1    0.0000
      5 C2         4.0414    1.6228    8.3925 C.3       1 RES1    0.0000
      6 N2         3.3490    0.4309    8.9396 N.pl3     1 RES1    0.0000
      7 O3         3.8271   -0.0403    9.9520 O.2       1 RES1    0.0000
      8 O4         2.3782    0.0245    8.3688 O.2       1 RES1    0.0000
      9 C3         3.4185    2.7218    7.4670 C.3       1 RES1    0.0000
     10 N3         2.0025    2.7218    7.0454 N.pl3     1 RES1    0.0000
     11 O5         1.7713    2.7218    5.8492 O.2       1 RES1    0.0000
     12 O6         1.1939    2.7218    7.9616 O.2       1 RES1    0.0000
     13 C4         4.6892    2.7218    6.5593 C.3       1 RES1    0.0000
     14 H1         4.6825    2.7218    5.5820 H         1 RES1    0.0000
     15 C5         5.3151    1.6237    7.4889 C.3       1 RES1    0.0000
     16 N4         6.0067    0.3919    7.0513 N.pl3     1 RES1    0.0000
     17 O7         6.7018    0.5030    6.0656 O.2       1 RES1    0.0000
     18 O8         5.8559   -0.5661    7.7690 O.2       1 RES1    0.0000
     19 O9         7.0056    0.4289    6.4736 Du        2 SUP2    0.0000
     20 O10        5.4671   -0.6968    7.3041 Du        2 SUP2    0.0000
     21 C6         5.9841    2.7218    8.3934 C.3       1 RES1    0.0000
     22 H2         6.8649    2.7218    8.6614 H         1 RES1    0.0000
     23 C2B        4.0414    3.8207    8.3925 C.3       1 RES1    0.0000
     24 C5B        5.3151    3.8198    7.4889 C.3       1 RES1    0.0000
     25 N2B        3.3490    5.0126    8.9396 N.pl3     1 RES1    0.0000
     26 O3B        3.8271    5.4838    9.9520 O.2       1 RES1    0.0000
     27 O4B        2.3782    5.4190    8.3688 O.2       1 RES1    0.0000
     28 N4B        6.0067    5.0516    7.0513 N.pl3     1 RES1    0.0000
     29 O7B        6.7018    4.9405    6.0656 O.2       1 RES1    0.0000
     30 O8B        5.8559    6.0096    7.7690 O.2       1 RES1    0.0000
@<TRIPOS>BOND
     1    1    2 1
     2    2    3 2
     3    4    2 2
     4    5    1 1
     5    6    5 1
     6    7    6 2
     7    8    6 2
     8    9    5 1
     9   10    9 1
    10   11   10 2
    11   12   10 2
    12   13    9 1
    13   14   13 1
    14   15    5 1
    15   16   15 1
    16   17   16 2
    17   18   16 2
    18   21    1 1
    19   22   21 1
    20   23    1 1
    21   24   13 1
    22   25   23 1
    23   26   25 2
    24   27   25 2
    25   28   24 1
    26   29   28 2
    27   30   28 2
    28    9   23 1
    29   13   15 1
    30   15   21 1
    31   21   24 1
    32   23   24 1
@<TRIPOS>SUBSTRUCTURE
     1 RES1 1
     2 SUP2 19

@<TRIPOS>CRYSIN
  13.9360   10.8870    8.4833  90.0000  90.0000  90.0000  62 1

