# MOL2 file generated by ConQuest
# Please check atom types

@<TRIPOS>MOLECULE
UGUHEJ
    84    84     4
SMALL
NO_CHARGES
****
Generated from CSD

@<TRIPOS>ATOM
      1 O1         2.2172   -1.7069    7.6356 O.2       1 RES1    0.0000
      2 O2         3.7998    2.4285    7.9530 O.2       1 RES1    0.0000
      3 O3         2.8302    4.2667    8.4047 O.2       1 RES1    0.0000
      4 N1         0.0818   -0.9539    7.6683 N.am      1 RES1    0.0000
      5 N2         2.8117    3.0839    8.1803 N.pl3     1 RES1    0.0000
      6 C1         0.2654    0.3852    7.9770 C.ar      1 RES1    0.0000
      7 C2         1.4929    1.0422    7.9571 C.ar      1 RES1    0.0000
      8 C3         1.5075    2.3942    8.2111 C.ar      1 RES1    0.0000
      9 C4         0.3876    3.1450    8.4720 C.ar      1 RES1    0.0000
     10 C5        -0.8172    2.4708    8.5082 C.ar      1 RES1    0.0000
     11 C6        -0.8828    1.1263    8.2676 C.ar      1 RES1    0.0000
     12 C7         1.0275   -1.9197    7.4975 C.2       1 RES1    0.0000
     13 C8         0.4828   -3.2660    7.1451 C.3       1 RES1    0.0000
     14 O4         5.1120   -0.7024    1.4122 O.2       2 RES2    0.0000
     15 O5        10.1615    4.0351    1.8506 O.2       2 RES2    0.0000
     16 O6         8.8931    5.7297    2.2257 O.2       2 RES2    0.0000
     17 N3         7.1887    0.1600    1.3768 N.am      2 RES2    0.0000
     18 N4         9.0742    4.5367    2.0121 N.pl3     2 RES2    0.0000
     19 C9         6.9470    1.5108    1.6736 C.ar      2 RES2    0.0000
     20 C10        8.0639    2.3330    1.7346 C.ar      2 RES2    0.0000
     21 C11        7.8837    3.6782    1.9570 C.ar      2 RES2    0.0000
     22 C12        6.6436    4.2607    2.1248 C.ar      2 RES2    0.0000
     23 C13        5.5501    3.4202    2.0976 C.ar      2 RES2    0.0000
     24 C14        5.6927    2.0638    1.8778 C.ar      2 RES2    0.0000
     25 C15        6.3000   -0.8418    1.2350 C.2       2 RES2    0.0000
     26 C16        6.8993   -2.1529    0.8134 C.3       2 RES2    0.0000
     27 O7        -0.3371    4.6806    5.2417 O.2       3 RES3    0.0000
     28 O8        -1.8647    0.5606    4.7552 O.2       3 RES3    0.0000
     29 O9        -0.8818   -1.2499    4.2327 O.2       3 RES3    0.0000
     30 N5         1.8076    3.9980    5.0992 N.am      3 RES3    0.0000
     31 N6        -0.8525   -0.0754    4.5082 N.pl3     3 RES3    0.0000
     32 C17        1.6536    2.6454    4.7963 C.ar      3 RES3    0.0000
     33 C18        0.4303    1.9775    4.7605 C.ar      3 RES3    0.0000
     34 C19        0.4442    0.6251    4.5179 C.ar      3 RES3    0.0000
     35 C20        1.5829   -0.1182    4.3283 C.ar      3 RES3    0.0000
     36 C21        2.7871    0.5678    4.3414 C.ar      3 RES3    0.0000
     37 C22        2.8171    1.9180    4.5625 C.ar      3 RES3    0.0000
     38 C23        0.8603    4.9236    5.3352 C.2       3 RES3    0.0000
     39 C24        1.3779    6.2793    5.7122 C.3       3 RES3    0.0000
     40 O10        0.2057   12.7231    1.0813 O.2       4 RES4    0.0000
     41 O11        5.2390    7.9788    1.5157 O.2       4 RES4    0.0000
     42 O12        3.9841    6.2982    1.9722 O.2       4 RES4    0.0000
     43 N7         2.2958   11.8952    1.2297 N.am      4 RES4    0.0000
     44 N8         4.1496    7.4888    1.7334 N.pl3     4 RES4    0.0000
     45 C25        2.0539   10.5368    1.4947 C.ar      4 RES4    0.0000
     46 C26        3.1565    9.6954    1.4994 C.ar      4 RES4    0.0000
     47 C27        2.9669    8.3590    1.7288 C.ar      4 RES4    0.0000
     48 C28        1.7314    7.7966    1.9489 C.ar      4 RES4    0.0000
     49 C29        0.6577    8.6464    1.9670 C.ar      4 RES4    0.0000
     50 C30        0.7867    9.9908    1.7549 C.ar      4 RES4    0.0000
     51 C31        1.4064   12.8839    1.0330 C.2       4 RES4    0.0000
     52 C32        2.0082   14.2209    0.7320 C.3       4 RES4    0.0000
     53 H1        -0.7343   -1.2076    7.5724 H         1 RES1    0.0000
     54 H2         2.2795    0.5803    7.7774 H         1 RES1    0.0000
     55 H3         0.4386    4.0625    8.6168 H         1 RES1    0.0000
     56 H4        -1.5979    2.9387    8.6989 H         1 RES1    0.0000
     57 H5        -1.7073    0.6968    8.2993 H         1 RES1    0.0000
     58 H6         1.0500   -3.6790    6.4901 H         1 RES1    0.0000
     59 H7        -0.4024   -3.1689    6.7862 H         1 RES1    0.0000
     60 H8         0.4506   -3.8141    7.9323 H         1 RES1    0.0000
     61 H9         8.0144   -0.0564    1.2715 H         2 RES2    0.0000
     62 H10        8.9177    1.9807    1.6271 H         2 RES2    0.0000
     63 H11        6.5500    5.1778    2.2498 H         2 RES2    0.0000
     64 H12        4.7004    3.7730    2.2304 H         2 RES2    0.0000
     65 H13        4.9404    1.5178    1.8676 H         2 RES2    0.0000
     66 H14        7.1267   -2.6660    1.5927 H         2 RES2    0.0000
     67 H15        7.6901   -1.9914    0.2947 H         2 RES2    0.0000
     68 H16        6.2631   -2.6402    0.2846 H         2 RES2    0.0000
     69 H17        2.6194    4.2788    5.1407 H         3 RES3    0.0000
     70 H18       -0.3688    2.4327    4.8966 H         3 RES3    0.0000
     71 H19        1.5473   -1.0383    4.1973 H         3 RES3    0.0000
     72 H20        3.5814    0.1066    4.1986 H         3 RES3    0.0000
     73 H21        3.6348    2.3604    4.5551 H         3 RES3    0.0000
     74 H22        1.3509    6.8564    4.9448 H         3 RES3    0.0000
     75 H23        2.2832    6.2018    6.0217 H         3 RES3    0.0000
     76 H24        0.8313    6.6483    6.4091 H         3 RES3    0.0000
     77 H25        3.1234   12.1250    1.1877 H         4 RES4    0.0000
     78 H26        4.0100   10.0332    1.3492 H         4 RES4    0.0000
     79 H27        1.6298    6.8814    2.0807 H         4 RES4    0.0000
     80 H28       -0.1886    8.2960    2.1279 H         4 RES4    0.0000
     81 H29        0.0377   10.5409    1.7844 H         4 RES4    0.0000
     82 H30        1.5387   14.6253   -0.0016 H         4 RES4    0.0000
     83 H31        2.9327   14.1100    0.4971 H         4 RES4    0.0000
     84 H32        1.9399   14.7846    1.5055 H         4 RES4    0.0000
@<TRIPOS>BOND
     1    1   12 2
     2    2    5 2
     3    3    5 2
     4    4    6 1
     5    5    8 1
     6    6    7 ar
     7    7    8 ar
     8    8    9 ar
     9    9   10 ar
    10   10   11 ar
    11   11    6 ar
    12   12    4 1
    13   13   12 1
    14   14   25 2
    15   15   18 2
    16   16   18 2
    17   17   19 1
    18   18   21 1
    19   19   20 ar
    20   20   21 ar
    21   21   22 ar
    22   22   23 ar
    23   23   24 ar
    24   24   19 ar
    25   25   17 1
    26   26   25 1
    27   27   38 2
    28   28   31 2
    29   29   31 2
    30   30   32 1
    31   31   34 1
    32   32   33 ar
    33   33   34 ar
    34   34   35 ar
    35   35   36 ar
    36   36   37 ar
    37   37   32 ar
    38   38   30 1
    39   39   38 1
    40   40   51 2
    41   41   44 2
    42   42   44 2
    43   43   45 1
    44   44   47 1
    45   45   46 ar
    46   46   47 ar
    47   47   48 ar
    48   48   49 ar
    49   49   50 ar
    50   50   45 ar
    51   51   43 1
    52   52   51 1
    53   53    4 1
    54   54    7 1
    55   55    9 1
    56   56   10 1
    57   57   11 1
    58   58   13 1
    59   59   13 1
    60   60   13 1
    61   61   17 1
    62   62   20 1
    63   63   22 1
    64   64   23 1
    65   65   24 1
    66   66   26 1
    67   67   26 1
    68   68   26 1
    69   69   30 1
    70   70   33 1
    71   71   35 1
    72   72   36 1
    73   73   37 1
    74   74   39 1
    75   75   39 1
    76   76   39 1
    77   77   43 1
    78   78   46 1
    79   79   48 1
    80   80   49 1
    81   81   50 1
    82   82   52 1
    83   83   52 1
    84   84   52 1
@<TRIPOS>SUBSTRUCTURE
     1 RES1 1
     2 RES2 14
     3 RES3 27
     4 RES4 40

@<TRIPOS>CRYSIN
   9.7670   13.2980   13.2720  90.0000 102.9910  90.0000   4 1

