# MOL2 file generated by ConQuest
# Please check atom types

@<TRIPOS>MOLECULE
UGUHEJ01
    84    84     4
SMALL
NO_CHARGES
****
Generated from CSD

@<TRIPOS>ATOM
      1 C1         2.0257   17.3508    1.4737 C.ar      1 RES1    0.0000
      2 C2         0.7575   17.9025    1.7415 C.ar      1 RES1    0.0000
      3 H1        -0.0063   17.3396    1.7894 H         1 RES1    0.0000
      4 C3         0.6271   19.2645    1.9357 C.ar      1 RES1    0.0000
      5 H2        -0.2359   19.6260    2.0984 H         1 RES1    0.0000
      6 C4         1.7082   20.1088    1.8992 C.ar      1 RES1    0.0000
      7 H3         1.6077   21.0466    2.0190 H         1 RES1    0.0000
      8 C5         2.9470   19.5410    1.6796 C.ar      1 RES1    0.0000
      9 C6         3.1416   18.1872    1.4535 C.ar      1 RES1    0.0000
     10 H4         4.0106   17.8385    1.2901 H         1 RES1    0.0000
     11 C7         1.3738   14.9933    1.0139 C.2       1 RES1    0.0000
     12 C8         1.9708   13.6380    0.7339 C.3       1 RES1    0.0000
     13 H5         1.9404   13.0938    1.5473 H         1 RES1    0.0000
     14 H6         2.9014   13.7447    0.4464 H         1 RES1    0.0000
     15 H7         1.4579   13.1965    0.0252 H         1 RES1    0.0000
     16 N1         2.2679   15.9920    1.2121 N.am      1 RES1    0.0000
     17 H8         3.1155   15.7576    1.1715 H         1 RES1    0.0000
     18 N2         4.1273   20.4142    1.6627 N.pl3     1 RES1    0.0000
     19 O1         0.1562   15.1745    1.0495 O.2       1 RES1    0.0000
     20 O2         3.9638   21.6235    1.8770 O.2       1 RES1    0.0000
     21 O3         5.2303   19.9200    1.4415 O.2       1 RES1    0.0000
     22 C9        -2.8305   13.0457    1.6545 C.ar      2 RES2    0.0000
     23 C10       -4.1032   12.5122    1.8500 C.ar      2 RES2    0.0000
     24 H9        -4.8641   13.0804    1.8462 H         2 RES2    0.0000
     25 C11       -4.2559   11.1409    2.0517 C.ar      2 RES2    0.0000
     26 H10       -5.1271   10.7834    2.1766 H         2 RES2    0.0000
     27 C12       -3.1571   10.2805    2.0736 C.ar      2 RES2    0.0000
     28 H11       -3.2565    9.3428    2.1854 H         2 RES2    0.0000
     29 C13       -1.9106   10.8713    1.9220 C.ar      2 RES2    0.0000
     30 C14       -1.7211   12.2163    1.7089 C.ar      2 RES2    0.0000
     31 H12       -0.8461   12.5709    1.6003 H         2 RES2    0.0000
     32 C15       -3.4639   15.4255    1.2270 C.2       2 RES2    0.0000
     33 C16       -2.8738   16.7354    0.8008 C.3       2 RES2    0.0000
     34 H13       -3.4983   17.1942    0.2018 H         2 RES2    0.0000
     35 H14       -2.0291   16.5753    0.3317 H         2 RES2    0.0000
     36 H15       -2.7096   17.2916    1.5902 H         2 RES2    0.0000
     37 N3        -2.5860   14.4189    1.3599 N.am      2 RES2    0.0000
     38 H16       -1.7407   14.6371    1.2497 H         2 RES2    0.0000
     39 N4        -0.7201   10.0041    1.9708 N.pl3     2 RES2    0.0000
     40 O4        -4.6771   15.2907    1.4254 O.2       2 RES2    0.0000
     41 O5        -0.8988    8.7895    2.1636 O.2       2 RES2    0.0000
     42 O6         0.3836   10.5061    1.8182 O.2       2 RES2    0.0000
     43 C17       -4.7180    5.2822    7.9455 C.ar      3 RES3    0.0000
     44 C18       -3.4873    5.9407    7.9928 C.ar      3 RES3    0.0000
     45 H17       -2.6727    5.4651    7.8803 H         3 RES3    0.0000
     46 C19       -3.4918    7.3125    8.2091 C.ar      3 RES3    0.0000
     47 C20       -4.6398    8.0622    8.3758 C.ar      3 RES3    0.0000
     48 H18       -4.6011    9.0040    8.4995 H         3 RES3    0.0000
     49 C21       -5.8548    7.3872    8.3558 C.ar      3 RES3    0.0000
     50 H19       -6.6647    7.8675    8.4806 H         3 RES3    0.0000
     51 C22       -5.8913    6.0237    8.1556 C.ar      3 RES3    0.0000
     52 H20       -6.7291    5.5758    8.1603 H         3 RES3    0.0000
     53 C23       -3.9106    2.9949    7.4303 C.2       3 RES3    0.0000
     54 C24       -4.4161    1.6247    7.0443 C.3       3 RES3    0.0000
     55 H21       -3.8708    1.2686    6.3129 H         3 RES3    0.0000
     56 H22       -5.3498    1.6914    6.7542 H         3 RES3    0.0000
     57 H23       -4.3577    1.0258    7.8173 H         3 RES3    0.0000
     58 N5        -4.8772    3.9179    7.6507 N.am      3 RES3    0.0000
     59 H24       -5.7070    3.6269    7.6029 H         3 RES3    0.0000
     60 N6        -2.1975    8.0059    8.2235 N.pl3     3 RES3    0.0000
     61 O7        -2.7049    3.2353    7.5227 O.2       3 RES3    0.0000
     62 O8        -2.1751    9.2015    8.5047 O.2       3 RES3    0.0000
     63 O9        -1.1791    7.3568    7.9626 O.2       3 RES3    0.0000
     64 C25        0.1647    0.8608    7.7788 C.ar      4 RES4    0.0000
     65 C26        1.4083    0.2096    7.7697 C.ar      4 RES4    0.0000
     66 H25        2.2107    0.6896    7.6042 H         4 RES4    0.0000
     67 C27        1.4286   -1.1404    8.0082 C.ar      4 RES4    0.0000
     68 C28        0.3057   -1.9115    8.2669 C.ar      4 RES4    0.0000
     69 H26        0.3663   -2.8479    8.4163 H         4 RES4    0.0000
     70 C29       -0.9183   -1.2405    8.2952 C.ar      4 RES4    0.0000
     71 H27       -1.7158   -1.7221    8.4806 H         4 RES4    0.0000
     72 C30       -0.9808    0.1120    8.0582 C.ar      4 RES4    0.0000
     73 H28       -1.8242    0.5482    8.0859 H         4 RES4    0.0000
     74 C31        0.9302    3.1869    7.3080 C.2       4 RES4    0.0000
     75 C32        0.3784    4.5367    6.9598 C.3       4 RES4    0.0000
     76 H29        0.4133    5.1169    7.7492 H         4 RES4    0.0000
     77 H30       -0.5509    4.4433    6.6634 H         4 RES4    0.0000
     78 H31        0.9129    4.9328    6.2410 H         4 RES4    0.0000
     79 N7        -0.0149    2.2186    7.4724 N.am      4 RES4    0.0000
     80 H32       -0.8496    2.4798    7.3734 H         4 RES4    0.0000
     81 N8         2.7394   -1.8355    7.9750 N.pl3     4 RES4    0.0000
     82 O10        2.1335    2.9708    7.4387 O.2       4 RES4    0.0000
     83 O11        2.7565   -3.0371    8.1867 O.2       4 RES4    0.0000
     84 O12        3.7330   -1.1657    7.7478 O.2       4 RES4    0.0000
@<TRIPOS>BOND
     1    1    2 ar
     2    2    3 1
     3    4    2 ar
     4    5    4 1
     5    6    4 ar
     6    7    6 1
     7    8    6 ar
     8    9    1 ar
     9   10    9 1
    10   11   12 1
    11   12   13 1
    12   14   12 1
    13   15   12 1
    14   16    1 1
    15   17   16 1
    16   18    8 1
    17   19   11 2
    18   20   18 2
    19   21   18 2
    20   22   23 ar
    21   23   24 1
    22   25   23 ar
    23   26   25 1
    24   27   25 ar
    25   28   27 1
    26   29   27 ar
    27   30   22 ar
    28   31   30 1
    29   32   33 1
    30   33   34 1
    31   35   33 1
    32   36   33 1
    33   37   22 1
    34   38   37 1
    35   39   29 1
    36   40   32 2
    37   41   39 2
    38   42   39 2
    39   43   44 ar
    40   44   45 1
    41   46   44 ar
    42   47   46 ar
    43   48   47 1
    44   49   47 ar
    45   50   49 1
    46   51   43 ar
    47   52   51 1
    48   53   54 1
    49   54   55 1
    50   56   54 1
    51   57   54 1
    52   58   43 1
    53   59   58 1
    54   60   46 1
    55   61   53 2
    56   62   60 2
    57   63   60 2
    58   64   65 ar
    59   65   66 1
    60   67   65 ar
    61   68   67 ar
    62   69   68 1
    63   70   68 ar
    64   71   70 1
    65   72   64 ar
    66   73   72 1
    67   74   75 1
    68   75   76 1
    69   77   75 1
    70   78   75 1
    71   79   64 1
    72   80   79 1
    73   81   67 1
    74   82   74 2
    75   83   81 2
    76   84   81 2
    77    8    9 ar
    78   11   16 1
    79   29   30 ar
    80   32   37 1
    81   49   51 ar
    82   53   58 1
    83   70   72 ar
    84   74   79 1
@<TRIPOS>SUBSTRUCTURE
     1 RES1 1
     2 RES2 22
     3 RES3 43
     4 RES4 64

@<TRIPOS>CRYSIN
   9.7285   13.3392   12.9849  90.0000 103.7910  90.0000   4 1

