# MOL2 file generated by ConQuest
# Please check atom types

@<TRIPOS>MOLECULE
UGULEN
   156   162     6
SMALL
NO_CHARGES
****
Generated from CSD

@<TRIPOS>ATOM
      1 C1         5.9030    8.8745   28.1807 C.3       1 RES1    0.0000
      2 H1         6.1508    8.7803   27.2374 H         1 RES1    0.0000
      3 O1         5.8246   10.2413   28.5867 O.3       1 RES1    0.0000
      4 C2         4.6006   10.4937   29.2834 C.3       1 RES1    0.0000
      5 H2         4.2684   11.3844   29.0894 H         1 RES1    0.0000
      6 H3         4.7218   10.4041   30.2404 H         1 RES1    0.0000
      7 C3         3.6456    9.4294   28.7547 C.3       1 RES1    0.0000
      8 N1         2.5086    9.0912   29.6915 N.pl3     1 RES1    0.0000
      9 O2         2.3830    9.7675   30.6862 O.2       1 RES1    0.0000
     10 O3         1.8198    8.1335   29.3567 O.2       1 RES1    0.0000
     11 N2         3.0062    9.9037   27.4600 N.pl3     1 RES1    0.0000
     12 O4         1.8621   10.3235   27.5003 O.2       1 RES1    0.0000
     13 O5         3.7389    9.8492   26.4858 O.2       1 RES1    0.0000
     14 C4         4.5543    8.2152   28.4961 C.3       1 RES1    0.0000
     15 H4         4.2297    7.6513   27.7632 H         1 RES1    0.0000
     16 O6         4.7055    7.4913   29.7239 O.3       1 RES1    0.0000
     17 C5         5.9950    7.7398   30.3093 C.3       1 RES1    0.0000
     18 H5         6.3376    6.9432   30.7458 H         1 RES1    0.0000
     19 H6         5.9489    8.4592   30.9590 H         1 RES1    0.0000
     20 C6         6.8755    8.1347   29.1137 C.3       1 RES1    0.0000
     21 N3         7.4293    6.8922   28.4363 N.pl3     1 RES1    0.0000
     22 O7         6.6356    6.2954   27.7241 O.2       1 RES1    0.0000
     23 O8         8.5834    6.5858   28.6647 O.2       1 RES1    0.0000
     24 N4         8.0664    8.9777   29.4821 N.pl3     1 RES1    0.0000
     25 O9         8.3695    9.0333   30.6549 O.2       1 RES1    0.0000
     26 O10        8.6410    9.5311   28.5540 O.2       1 RES1    0.0000
     27 C7        -1.6546    6.8161   24.7871 C.3       2 RES2    0.0000
     28 H7        -1.9913    5.9992   25.2101 H         2 RES2    0.0000
     29 O11       -1.4278    7.8713   25.7324 O.3       2 RES2    0.0000
     30 C8        -0.1498    8.4932   25.5039 C.3       2 RES2    0.0000
     31 H8         0.2478    8.7928   26.3377 H         2 RES2    0.0000
     32 H9        -0.2302    9.2489   24.9004 H         2 RES2    0.0000
     33 C9         0.6700    7.3744   24.8756 C.3       2 RES2    0.0000
     34 N5         1.8322    7.8396   24.0179 N.pl3     2 RES2    0.0000
     35 O12        1.9522    9.0277   23.8167 O.2       2 RES2    0.0000
     36 O13        2.5368    6.9478   23.5666 O.2       2 RES2    0.0000
     37 N6         1.2710    6.5064   25.9585 N.pl3     2 RES2    0.0000
     38 O14        0.6482    5.5033   26.2699 O.2       2 RES2    0.0000
     39 O15        2.2941    6.9012   26.4855 O.2       2 RES2    0.0000
     40 C10       -0.3396    6.5847   24.0241 C.3       2 RES2    0.0000
     41 H10       -0.1090    5.6349   23.9627 H         2 RES2    0.0000
     42 O16       -0.4643    7.1929   22.7381 O.3       2 RES2    0.0000
     43 C11       -1.6513    8.0110   22.6885 C.3       2 RES2    0.0000
     44 H11       -2.0330    8.0178   21.7981 H         2 RES2    0.0000
     45 H12       -1.4584    8.9221   22.9578 H         2 RES2    0.0000
     46 C12       -2.5858    7.3302   23.6799 C.3       2 RES2    0.0000
     47 N7        -3.3007    6.1921   22.9832 N.pl3     2 RES2    0.0000
     48 O17       -2.7556    5.1069   23.0402 O.2       2 RES2    0.0000
     49 O18       -4.3102    6.4621   22.3669 O.2       2 RES2    0.0000
     50 N8        -3.6568    8.1925   24.2949 N.pl3     2 RES2    0.0000
     51 O19       -3.5816    9.3976   24.1117 O.2       2 RES2    0.0000
     52 O20       -4.4604    7.6116   24.9901 O.2       2 RES2    0.0000
     53 C13        1.7752    8.5829   18.7098 C.3       3 RES3    0.0000
     54 H13        1.4513    7.9815   18.0064 H         3 RES3    0.0000
     55 O21        1.8773    7.9299   19.9703 O.3       3 RES3    0.0000
     56 C14        3.1468    8.2084   20.5928 C.3       3 RES3    0.0000
     57 H14        3.4676    7.4380   21.0882 H         3 RES3    0.0000
     58 H15        3.0798    8.9653   21.1963 H         3 RES3    0.0000
     59 C15        4.0716    8.5261   19.4112 C.3       3 RES3    0.0000
     60 N9         5.2580    9.3738   19.7752 N.pl3     3 RES3    0.0000
     61 O22        5.5238    9.4713   20.9688 O.2       3 RES3    0.0000
     62 O23        5.8767    9.8562   18.8459 O.2       3 RES3    0.0000
     63 N10        4.6377    7.2337   18.8249 N.pl3     3 RES3    0.0000
     64 O24        5.8003    6.9539   19.0574 O.2       3 RES3    0.0000
     65 O25        3.8329    6.5796   18.1919 O.2       3 RES3    0.0000
     66 C16        3.1501    9.1911   18.3668 C.3       3 RES3    0.0000
     67 H16        3.4255    8.9846   17.4484 H         3 RES3    0.0000
     68 O26        3.0804   10.5946   18.5997 O.3       3 RES3    0.0000
     69 C17        1.8521   10.9476   19.2414 C.3       3 RES3    0.0000
     70 H17        1.5311   11.8054   18.9236 H         3 RES3    0.0000
     71 H18        1.9673   10.9941   20.2031 H         3 RES3    0.0000
     72 C18        0.8836    9.8310   18.8646 C.3       3 RES3    0.0000
     73 N11        0.1966   10.1737   17.5641 N.pl3     3 RES3    0.0000
     74 O27        0.8566    9.9409   16.5650 O.2       3 RES3    0.0000
     75 O28       -0.9140   10.6798   17.6062 O.2       3 RES3    0.0000
     76 N12       -0.2135    9.5667   19.8733 N.pl3     3 RES3    0.0000
     77 O29       -0.2382   10.2531   20.8829 O.2       3 RES3    0.0000
     78 O30       -0.9673    8.6475   19.6011 O.2       3 RES3    0.0000
     79 C19        5.0883    6.8593   15.1295 C.3       4 RES4    0.0000
     80 H19        4.8201    6.0445   15.6051 H         4 RES4    0.0000
     81 O31        5.2645    7.9741   16.0106 O.3       4 RES4    0.0000
     82 C20        6.5082    8.6475   15.7337 C.3       4 RES4    0.0000
     83 H20        6.9010    9.0027   16.5458 H         4 RES4    0.0000
     84 H21        6.3782    9.3726   15.1027 H         4 RES4    0.0000
     85 C21        7.3782    7.5560   15.1380 C.3       4 RES4    0.0000
     86 N13        8.5074    8.0303   14.2471 N.pl3     4 RES4    0.0000
     87 O32        8.5254    9.2058   13.9497 O.2       4 RES4    0.0000
     88 O33        9.2804    7.1713   13.8740 O.2       4 RES4    0.0000
     89 N14        8.0274    6.7515   16.2554 N.pl3     4 RES4    0.0000
     90 O34        8.9913    7.2507   16.8002 O.2       4 RES4    0.0000
     91 O35        7.4921    5.7030   16.5598 O.2       4 RES4    0.0000
     92 C22        6.4007    6.6766   14.3394 C.3       4 RES4    0.0000
     93 H22        6.6861    5.7404   14.2935 H         4 RES4    0.0000
     94 O36        6.2037    7.2574   13.0409 O.3       4 RES4    0.0000
     95 C23        4.9488    7.9656   12.9903 C.3       4 RES4    0.0000
     96 H23        4.5505    7.9066   12.1084 H         4 RES4    0.0000
     97 H24        5.0658    8.8995   13.2243 H         4 RES4    0.0000
     98 C24        4.0987    7.2473   14.0212 C.3       4 RES4    0.0000
     99 N15        3.4878    6.0048   13.3771 N.pl3     4 RES4    0.0000
    100 O37        2.4636    6.1421   12.7453 O.2       4 RES4    0.0000
    101 O38        4.1222    4.9700   13.5144 O.2       4 RES4    0.0000
    102 N16        2.9108    7.9974   14.5523 N.pl3     4 RES4    0.0000
    103 O39        2.6205    9.0413   14.0417 O.2       4 RES4    0.0000
    104 O40        2.3174    7.4482   15.4734 O.2       4 RES4    0.0000
    105 C25       -0.9471    8.5556    9.0680 C.3       5 RES5    0.0000
    106 H25       -1.2920    7.9452    8.3839 H         5 RES5    0.0000
    107 O41       -0.7770    7.9093   10.3244 O.3       5 RES5    0.0000
    108 C26        0.5168    8.2050   10.8795 C.3       5 RES5    0.0000
    109 H26        0.8718    7.4402   11.3577 H         5 RES5    0.0000
    110 H27        0.4697    8.9619   11.4862 H         5 RES5    0.0000
    111 C27        1.3770    8.5341    9.6634 C.3       5 RES5    0.0000
    112 N17        2.5750    9.3885    9.9613 N.pl3     5 RES5    0.0000
    113 O42        2.8691    9.5213   11.1406 O.2       5 RES5    0.0000
    114 O43        3.1654    9.8498    8.9988 O.2       5 RES5    0.0000
    115 N18        1.9360    7.2360    9.0654 N.pl3     5 RES5    0.0000
    116 O44        3.0821    6.9378    9.3239 O.2       5 RES5    0.0000
    117 O45        1.1401    6.6008    8.4029 O.2       5 RES5    0.0000
    118 C28        0.4010    9.1865    8.6602 C.3       5 RES5    0.0000
    119 H28        0.6377    8.9925    7.7295 H         5 RES5    0.0000
    120 O46        0.3282   10.5855    8.9196 O.3       5 RES5    0.0000
    121 C29       -0.8721   10.9169    9.6225 C.3       5 RES5    0.0000
    122 H29       -1.2128   11.7805    9.3391 H         5 RES5    0.0000
    123 H30       -0.7185   10.9385   10.5806 H         5 RES5    0.0000
    124 C30       -1.8494    9.7947    9.2500 C.3       5 RES5    0.0000
    125 N19       -2.5553   10.1408    7.9629 N.pl3     5 RES5    0.0000
    126 O47       -3.6501   10.6797    8.0368 O.2       5 RES5    0.0000
    127 O48       -1.9327    9.8831    6.9466 O.2       5 RES5    0.0000
    128 N20       -2.9244    9.5133   10.2789 N.pl3     5 RES5    0.0000
    129 O49       -2.9368   10.1975   11.2887 O.2       5 RES5    0.0000
    130 O50       -3.6812    8.5999   10.0072 O.2       5 RES5    0.0000
    131 C31        2.4133    6.8320    5.4373 C.3       6 RES6    0.0000
    132 H31        2.1439    6.0627    5.9826 H         6 RES6    0.0000
    133 O51        2.6065    7.9924    6.2453 O.3       6 RES6    0.0000
    134 C32        3.8412    8.6407    5.8807 C.3       6 RES6    0.0000
    135 H32        4.2392    9.0901    6.6428 H         6 RES6    0.0000
    136 H33        3.7025    9.2841    5.1676 H         6 RES6    0.0000
    137 C33        4.7143    7.4731    5.4089 C.3       6 RES6    0.0000
    138 N21        5.8561    7.8657    4.4949 N.pl3     6 RES6    0.0000
    139 O52        5.9334    9.0163    4.1344 O.2       6 RES6    0.0000
    140 O53        6.5934    6.9478    4.1709 O.2       6 RES6    0.0000
    141 N22        5.3397    6.7583    6.5897 N.pl3     6 RES6    0.0000
    142 O54        6.3128    7.2848    7.0988 O.2       6 RES6    0.0000
    143 O55        4.7939    5.7518    6.9797 O.2       6 RES6    0.0000
    144 C34        3.7362    6.5495    4.6909 C.3       6 RES6    0.0000
    145 H34        4.0022    5.6066    4.7148 H         6 RES6    0.0000
    146 O56        3.5747    7.0603    3.3702 O.3       6 RES6    0.0000
    147 C35        2.2272    6.7798    2.9887 C.3       6 RES6    0.0000
    148 H35        2.1294    5.8539    2.7138 H         6 RES6    0.0000
    149 H36        1.9446    7.3563    2.2610 H         6 RES6    0.0000
    150 C36        1.4173    7.0624    4.2585 C.3       6 RES6    0.0000
    151 N23        0.2086    6.1501    4.3298 N.pl3     6 RES6    0.0000
    152 O57       -0.1655    5.7473    5.4224 O.2       6 RES6    0.0000
    153 O58       -0.3255    5.9118    3.2504 O.2       6 RES6    0.0000
    154 N24        0.8618    8.4739    4.2822 N.pl3     6 RES6    0.0000
    155 O59       -0.2211    8.6521    4.7776 O.2       6 RES6    0.0000
    156 O60        1.6064    9.3157    3.8160 O.2       6 RES6    0.0000
@<TRIPOS>BOND
     1    1    2 1
     2    3    1 1
     3    4    3 1
     4    5    4 1
     5    6    4 1
     6    7    4 1
     7    8    7 1
     8    9    8 2
     9   10    8 2
    10   11    7 1
    11   12   11 2
    12   13   11 2
    13   14    1 1
    14   15   14 1
    15   16   14 1
    16   17   16 1
    17   18   17 1
    18   19   17 1
    19   20    1 1
    20   21   20 1
    21   22   21 2
    22   23   21 2
    23   24   20 1
    24   25   24 2
    25   26   24 2
    26   27   28 1
    27   29   27 1
    28   30   29 1
    29   31   30 1
    30   32   30 1
    31   33   30 1
    32   34   33 1
    33   35   34 2
    34   36   34 2
    35   37   33 1
    36   38   37 2
    37   39   37 2
    38   40   27 1
    39   41   40 1
    40   42   40 1
    41   43   42 1
    42   44   43 1
    43   45   43 1
    44   46   27 1
    45   47   46 1
    46   48   47 2
    47   49   47 2
    48   50   46 1
    49   51   50 2
    50   52   50 2
    51   53   54 1
    52   55   53 1
    53   56   55 1
    54   57   56 1
    55   58   56 1
    56   59   56 1
    57   60   59 1
    58   61   60 2
    59   62   60 2
    60   63   59 1
    61   64   63 2
    62   65   63 2
    63   66   53 1
    64   67   66 1
    65   68   66 1
    66   69   68 1
    67   70   69 1
    68   71   69 1
    69   72   53 1
    70   73   72 1
    71   74   73 2
    72   75   73 2
    73   76   72 1
    74   77   76 2
    75   78   76 2
    76   79   80 1
    77   81   79 1
    78   82   81 1
    79   83   82 1
    80   84   82 1
    81   85   82 1
    82   86   85 1
    83   87   86 2
    84   88   86 2
    85   89   85 1
    86   90   89 2
    87   91   89 2
    88   92   79 1
    89   93   92 1
    90   94   92 1
    91   95   94 1
    92   96   95 1
    93   97   95 1
    94   98   79 1
    95   99   98 1
    96  100   99 2
    97  101   99 2
    98  102   98 1
    99  103  102 2
   100  104  102 2
   101  105  106 1
   102  107  105 1
   103  108  107 1
   104  109  108 1
   105  110  108 1
   106  111  108 1
   107  112  111 1
   108  113  112 2
   109  114  112 2
   110  115  111 1
   111  116  115 2
   112  117  115 2
   113  118  105 1
   114  119  118 1
   115  120  118 1
   116  121  120 1
   117  122  121 1
   118  123  121 1
   119  124  105 1
   120  125  124 1
   121  126  125 2
   122  127  125 2
   123  128  124 1
   124  129  128 2
   125  130  128 2
   126  131  132 1
   127  133  131 1
   128  134  133 1
   129  135  134 1
   130  136  134 1
   131  137  134 1
   132  138  137 1
   133  139  138 2
   134  140  138 2
   135  141  137 1
   136  142  141 2
   137  143  141 2
   138  144  131 1
   139  145  144 1
   140  146  144 1
   141  147  146 1
   142  148  147 1
   143  149  147 1
   144  150  131 1
   145  151  150 1
   146  152  151 2
   147  153  151 2
   148  154  150 1
   149  155  154 2
   150  156  154 2
   151    7   14 1
   152   17   20 1
   153   33   40 1
   154   43   46 1
   155   59   66 1
   156   69   72 1
   157   85   92 1
   158   95   98 1
   159  111  118 1
   160  121  124 1
   161  137  144 1
   162  147  150 1
@<TRIPOS>SUBSTRUCTURE
     1 RES1 1
     2 RES2 27
     3 RES3 53
     4 RES4 79
     5 RES5 105
     6 RES6 131

@<TRIPOS>CRYSIN
   9.5746   11.3470   29.2410  90.0000  92.5460  90.0000   4 1

