# MOL2 file generated by ConQuest
# Please check atom types

@<TRIPOS>MOLECULE
UHACUB
    43    45     1
SMALL
NO_CHARGES
****
Generated from CSD

@<TRIPOS>ATOM
      1 C1         4.3001    0.4650    4.2957 C.2       1 RES1    0.0000
      2 C2         4.6419    0.0880    2.9452 C.2       1 RES1    0.0000
      3 N1         5.0588   -1.1414    2.8770 N.2       1 RES1    0.0000
      4 O1         5.0178   -1.6822    4.2316 O.3       1 RES1    0.0000
      5 C3         4.5234   -0.7278    5.0620 C.2       1 RES1    0.0000
      6 O2         4.3453   -0.9421    6.2619 O.2       1 RES1    0.0000
      7 C4         3.9204    1.6333    4.9114 C.2       1 RES1    0.0000
      8 O3         3.5888    1.6076    6.2018 O.3       1 RES1    0.0000
      9 C5         3.8328    2.9542    4.2916 C.ar      1 RES1    0.0000
     10 C6         2.7437    3.7778    4.5583 C.ar      1 RES1    0.0000
     11 C7         2.6451    5.0127    3.9446 C.ar      1 RES1    0.0000
     12 C8         3.6174    5.4814    3.0785 C.ar      1 RES1    0.0000
     13 C9         4.7216    4.6573    2.8506 C.ar      1 RES1    0.0000
     14 C10        4.8320    3.4096    3.4388 C.ar      1 RES1    0.0000
     15 C11        3.5068    6.8423    2.3865 C.3       1 RES1    0.0000
     16 C12        2.3583    7.6589    2.8516 C.3       1 RES1    0.0000
     17 C13        4.8145    7.6513    2.6430 C.3       1 RES1    0.0000
     18 C14        3.4663    6.6508    0.9007 C.3       1 RES1    0.0000
     19 C15        4.5078    0.8619    1.6904 C.ar      1 RES1    0.0000
     20 C16        3.2845    1.4038    1.3342 C.ar      1 RES1    0.0000
     21 C17        3.1603    2.0968    0.1445 C.ar      1 RES1    0.0000
     22 C18        4.2475    2.2757   -0.6808 C.ar      1 RES1    0.0000
     23 C19        5.4797    1.7490   -0.3216 C.ar      1 RES1    0.0000
     24 C20        5.6148    1.0434    0.8630 C.ar      1 RES1    0.0000
     25 H1         3.7202    0.6956    6.5092 H         1 RES1    0.0000
     26 H2         2.5328    1.2979    1.9051 H         1 RES1    0.0000
     27 H3         2.3161    2.4547   -0.1048 H         1 RES1    0.0000
     28 H4         4.1545    2.7596   -1.4930 H         1 RES1    0.0000
     29 H5         6.2311    1.8700   -0.8895 H         1 RES1    0.0000
     30 H6         6.4591    0.6855    1.1113 H         1 RES1    0.0000
     31 H7         2.0672    3.4905    5.1607 H         1 RES1    0.0000
     32 H8         1.8870    5.5570    4.1237 H         1 RES1    0.0000
     33 H9         5.4149    4.9598    2.2756 H         1 RES1    0.0000
     34 H10        5.5899    2.8655    3.2607 H         1 RES1    0.0000
     35 H11        2.3490    8.4880    2.3845 H         1 RES1    0.0000
     36 H12        1.5483    7.1927    2.6847 H         1 RES1    0.0000
     37 H13        2.4438    7.8252    3.7838 H         1 RES1    0.0000
     38 H14        4.7517    8.4981    2.2155 H         1 RES1    0.0000
     39 H15        4.9312    7.7773    3.5772 H         1 RES1    0.0000
     40 H16        5.5574    7.1750    2.2929 H         1 RES1    0.0000
     41 H17        3.3979    7.4951    0.4742 H         1 RES1    0.0000
     42 H18        4.2614    6.2148    0.6157 H         1 RES1    0.0000
     43 H19        2.7139    6.1165    0.6707 H         1 RES1    0.0000
@<TRIPOS>BOND
     1    1    2 1
     2    2    3 2
     3    3    4 1
     4    4    5 1
     5    5    1 1
     6    6    5 2
     7    7    1 2
     8    8    7 1
     9    9    7 1
    10   10    9 ar
    11   11   10 ar
    12   12   11 ar
    13   13   12 ar
    14   14    9 ar
    15   15   12 1
    16   16   15 1
    17   17   15 1
    18   18   15 1
    19   19    2 1
    20   20   19 ar
    21   21   20 ar
    22   22   21 ar
    23   23   22 ar
    24   24   19 ar
    25   25    8 1
    26   26   20 1
    27   27   21 1
    28   28   22 1
    29   29   23 1
    30   30   24 1
    31   31   10 1
    32   32   11 1
    33   33   13 1
    34   34   14 1
    35   35   16 1
    36   36   16 1
    37   37   16 1
    38   38   17 1
    39   39   17 1
    40   40   17 1
    41   41   18 1
    42   42   18 1
    43   43   18 1
    44   13   14 ar
    45   23   24 ar
@<TRIPOS>SUBSTRUCTURE
     1 RES1 1

@<TRIPOS>CRYSIN
   6.7135   25.2020   10.2859  90.0000  98.3470  90.0000 231 1

