# MOL2 file generated by ConQuest
# Please check atom types

@<TRIPOS>MOLECULE
UHACOV
    33    35     1
SMALL
NO_CHARGES
****
Generated from CSD

@<TRIPOS>ATOM
      1 C1        10.4795    6.1166    7.8042 C.2       1 RES1    0.0000
      2 C2         9.7173    6.5334    6.6665 C.2       1 RES1    0.0000
      3 N1        10.4619    7.0691    5.7538 N.2       1 RES1    0.0000
      4 O1        11.8261    7.0500    6.2589 O.3       1 RES1    0.0000
      5 C3        11.8202    6.5105    7.5090 C.2       1 RES1    0.0000
      6 O2        12.8385    6.4244    8.1668 O.2       1 RES1    0.0000
      7 C4        10.2078    5.4567    8.9812 C.2       1 RES1    0.0000
      8 O3        11.1655    5.3599    9.8958 O.3       1 RES1    0.0000
      9 C5         8.9590    4.7709    9.3176 C.ar      1 RES1    0.0000
     10 C6         8.2867    4.0211    8.3467 C.ar      1 RES1    0.0000
     11 C7         7.1121    3.3833    8.6719 C.ar      1 RES1    0.0000
     12 C8         6.5492    3.4793    9.9351 C.ar      1 RES1    0.0000
     13 C9         7.2411    4.2108   10.8947 C.ar      1 RES1    0.0000
     14 C10        8.4371    4.8387   10.6033 C.ar      1 RES1    0.0000
     15 C11        5.2417    2.8064   10.2500 C.3       1 RES1    0.0000
     16 C12        8.2476    6.5372    6.4472 C.ar      1 RES1    0.0000
     17 C13        7.7023    5.9992    5.2956 C.ar      1 RES1    0.0000
     18 C14        6.3342    6.0518    5.0950 C.ar      1 RES1    0.0000
     19 C15        5.5192    6.6363    6.0349 C.ar      1 RES1    0.0000
     20 C16        6.0586    7.1620    7.1679 C.ar      1 RES1    0.0000
     21 C17        7.4189    7.1186    7.3900 C.ar      1 RES1    0.0000
     22 H1         8.2652    5.5954    4.6452 H         1 RES1    0.0000
     23 H2         5.9570    5.6822    4.3050 H         1 RES1    0.0000
     24 H3         4.5792    6.6728    5.8944 H         1 RES1    0.0000
     25 H4         5.4899    7.5644    7.8154 H         1 RES1    0.0000
     26 H5         7.7844    7.4859    8.1856 H         1 RES1    0.0000
     27 H6         8.6384    3.9540    7.4668 H         1 RES1    0.0000
     28 H7         6.6743    2.8598    8.0113 H         1 RES1    0.0000
     29 H8         6.8814    4.2809   11.7719 H         1 RES1    0.0000
     30 H9         8.9023    5.3157   11.2808 H         1 RES1    0.0000
     31 H10        5.0072    2.9771   11.1543 H         1 RES1    0.0000
     32 H11        4.5635    3.1471    9.6774 H         1 RES1    0.0000
     33 H12        5.3277    1.8699   10.1160 H         1 RES1    0.0000
@<TRIPOS>BOND
     1    1    2 1
     2    2    3 2
     3    3    4 1
     4    4    5 1
     5    5    1 1
     6    6    5 2
     7    7    1 2
     8    8    7 1
     9    9    7 1
    10   10    9 ar
    11   11   10 ar
    12   12   11 ar
    13   13   12 ar
    14   14    9 ar
    15   15   12 1
    16   16    2 1
    17   17   16 ar
    18   18   17 ar
    19   19   18 ar
    20   20   19 ar
    21   21   16 ar
    22   22   17 1
    23   23   18 1
    24   24   19 1
    25   25   20 1
    26   26   21 1
    27   27   10 1
    28   28   11 1
    29   29   13 1
    30   30   14 1
    31   31   15 1
    32   32   15 1
    33   33   15 1
    34   13   14 ar
    35   20   21 ar
@<TRIPOS>SUBSTRUCTURE
     1 RES1 1

@<TRIPOS>CRYSIN
  19.5440    7.6200    9.3710  90.0000  90.0000  90.0000  29 1

