# MOL2 file generated by ConQuest
# Please check atom types

@<TRIPOS>MOLECULE
UHAMEV
    40    42     2
SMALL
NO_CHARGES
****
Generated from CSD

@<TRIPOS>ATOM
      1 O1         6.4891    1.6479    5.2497 O.3       1 RES1    0.0000
      2 O2         6.6419   -0.9198   -1.9561 O.3       2 RES2    0.0000
      3 O3         4.3556    4.6474    3.6612 O.2       1 RES1    0.0000
      4 O4         9.6621    0.1854    0.9597 O.2       2 RES2    0.0000
      5 O5         6.0743    4.8453    2.3364 O.2       1 RES1    0.0000
      6 O6         8.2454    1.7611    0.4868 O.2       2 RES2    0.0000
      7 N1         7.7214    1.8470    4.6082 N.2       1 RES1    0.0000
      8 N2         7.3770   -2.0611   -1.6176 N.2       2 RES2    0.0000
      9 N3         5.5552    2.5353    4.8326 N.2       1 RES1    0.0000
     10 N4         7.0640    0.1742   -1.2817 N.2       2 RES2    0.0000
     11 N5         5.4691    4.3375    3.2733 N.pl3     1 RES1    0.0000
     12 N6         8.6966    0.6397    0.3613 N.pl3     2 RES2    0.0000
     13 N7         8.4686    3.4053    3.0273 N.3       1 RES1    0.0000
     14 H1         8.3037    4.1109    2.5443 H         1 RES1    0.0000
     15 N8         9.1915   -2.4245   -0.1813 N.3       2 RES2    0.0000
     16 H2         9.9023   -2.0723    0.1775 H         2 RES2    0.0000
     17 C1         7.5068    2.8502    3.8019 C.2       1 RES1    0.0000
     18 C2         8.2479   -1.6454   -0.7518 C.2       2 RES2    0.0000
     19 C3         6.1616    3.2733    3.9617 C.2       1 RES1    0.0000
     20 C4         8.0429   -0.2564   -0.5578 C.2       2 RES2    0.0000
     21 N7E        9.7252    2.8178    3.0273 N.pl3     1 RES1    0.0000
     22 H1E        9.8901    2.1121    2.5443 H         1 RES1    0.0000
     23 C1E       10.6870    3.3729    3.8019 C.2       1 RES1    0.0000
     24 N1E       10.4724    4.3760    4.6082 N.2       1 RES1    0.0000
     25 O1E       11.7047    4.5752    5.2497 O.3       1 RES1    0.0000
     26 N3E       12.6386    3.6878    4.8326 N.2       1 RES1    0.0000
     27 C3E       12.0322    2.9497    3.9617 C.2       1 RES1    0.0000
     28 N5E       12.7247    1.8856    3.2733 N.pl3     1 RES1    0.0000
     29 O3E       13.8382    1.5757    3.6612 O.2       1 RES1    0.0000
     30 O5E       12.1195    1.3778    2.3364 O.2       1 RES1    0.0000
     31 N8E        9.0023   -3.7985   -0.1813 N.pl3     2 RES2    0.0000
     32 H2E        8.2915   -4.1508    0.1775 H         2 RES2    0.0000
     33 C2E        9.9459   -4.5777   -0.7518 C.2       2 RES2    0.0000
     34 N2E       10.8168   -4.1620   -1.6176 N.2       2 RES2    0.0000
     35 O2E       11.5519   -5.3033   -1.9561 O.3       2 RES2    0.0000
     36 N4E       11.1298   -6.3973   -1.2817 N.2       2 RES2    0.0000
     37 C4E       10.1509   -5.9667   -0.5578 C.2       2 RES2    0.0000
     38 N6E        9.4972   -6.8628    0.3613 N.pl3     2 RES2    0.0000
     39 O4E        8.5317   -6.4085    0.9597 O.2       2 RES2    0.0000
     40 O6E        9.9484   -7.9842    0.4868 O.2       2 RES2    0.0000
@<TRIPOS>BOND
     1    1    7 1
     2    2    8 1
     3    3   11 2
     4    4   12 2
     5    5   11 2
     6    6   12 2
     7    7   17 2
     8    8   18 2
     9    9    1 1
    10   10    2 1
    11   11   19 1
    12   12   20 1
    13   13   14 1
    14   15   16 1
    15   17   13 1
    16   18   15 1
    17   19    9 2
    18   20   10 2
    19   21   13 1
    20   22   21 1
    21   23   21 1
    22   24   23 2
    23   25   24 1
    24   26   25 1
    25   27   23 1
    26   28   27 1
    27   29   28 2
    28   30   28 2
    29   31   15 1
    30   32   31 1
    31   33   31 1
    32   34   33 2
    33   35   34 1
    34   36   35 1
    35   37   33 1
    36   38   37 1
    37   39   38 2
    38   40   38 2
    39   17   19 1
    40   18   20 1
    41   26   27 2
    42   36   37 2
@<TRIPOS>SUBSTRUCTURE
     1 RES1 1
     2 RES2 2

@<TRIPOS>CRYSIN
  12.1292   12.4461   12.6773  90.0000  90.0000  90.0000  56 1

