# MOL2 file generated by ConQuest
# Please check atom types

@<TRIPOS>MOLECULE
UHAVEF
    84    90     2
SMALL
NO_CHARGES
****
Generated from CSD

@<TRIPOS>ATOM
      1 O1         3.8953    8.1522   -0.4443 O.2       1 RES1    0.0000
      2 O2         6.9891    1.7017   -0.6230 O.2       1 RES1    0.0000
      3 O3         5.1876    1.4357    0.5383 O.2       1 RES1    0.0000
      4 O4        -0.4856    1.1457    3.4165 O.2       2 RES2    0.0000
      5 O5         2.6223    3.9757   -2.3156 O.2       2 RES2    0.0000
      6 O6         1.1670    5.4508   -1.7666 O.2       2 RES2    0.0000
      7 N1         6.1063    8.6074   -0.4127 N.am      1 RES1    0.0000
      8 N2         9.6264    8.1721    0.0484 N.3       1 RES1    0.0000
      9 N3         5.9930    2.1387   -0.0540 N.pl3     1 RES1    0.0000
     10 N4         1.7079    0.9475    3.9083 N.am      2 RES2    0.0000
     11 N5         5.2166    1.5865    3.6187 N.3       2 RES2    0.0000
     12 N6         1.7805    4.4266   -1.5520 N.pl3     2 RES2    0.0000
     13 C1         8.5363    8.4633   -0.7337 C.2       1 RES1    0.0000
     14 C2         7.4177    8.2491    0.0113 C.2       1 RES1    0.0000
     15 C3         7.8054    7.8271    1.3223 C.ar      1 RES1    0.0000
     16 C4         7.1387    7.4958    2.4966 C.ar      1 RES1    0.0000
     17 C5         7.8759    7.1461    3.6080 C.ar      1 RES1    0.0000
     18 C6         9.2654    7.1090    3.5651 C.ar      1 RES1    0.0000
     19 C7         9.9484    7.4179    2.4245 C.ar      1 RES1    0.0000
     20 C8         9.2143    7.7809    1.2949 C.ar      1 RES1    0.0000
     21 C9         8.6407    8.9821   -2.1260 C.3       1 RES1    0.0000
     22 C10        7.9864   10.3460   -2.2923 C.3       1 RES1    0.0000
     23 C11        6.4666   10.3531   -2.1463 C.3       1 RES1    0.0000
     24 C12        5.9020   10.0110   -0.7799 C.3       1 RES1    0.0000
     25 C13        5.0585    7.7589   -0.3541 C.2       1 RES1    0.0000
     26 C14        5.3500    6.2959   -0.2306 C.ar      1 RES1    0.0000
     27 C15        4.6230    5.5104    0.6522 C.ar      1 RES1    0.0000
     28 C16        4.8267    4.1511    0.7281 C.ar      1 RES1    0.0000
     29 C17        5.7528    3.5893   -0.1159 C.ar      1 RES1    0.0000
     30 C18        6.4696    4.3299   -1.0260 C.ar      1 RES1    0.0000
     31 C19        6.2668    5.6920   -1.0752 C.ar      1 RES1    0.0000
     32 C20        4.1242    0.7702    3.4832 C.2       2 RES2    0.0000
     33 C21        3.0200    1.4870    3.8281 C.2       2 RES2    0.0000
     34 C22        3.4270    2.7980    4.2119 C.ar      2 RES2    0.0000
     35 C23        2.7796    3.9366    4.6956 C.ar      2 RES2    0.0000
     36 C24        3.5202    5.0595    4.9574 C.ar      2 RES2    0.0000
     37 C25        4.8909    5.0854    4.7397 C.ar      2 RES2    0.0000
     38 C26        5.5621    3.9822    4.2942 C.ar      2 RES2    0.0000
     39 C27        4.8236    2.8299    4.0423 C.ar      2 RES2    0.0000
     40 C28        4.2263   -0.6452    3.0460 C.3       2 RES2    0.0000
     41 C29        3.5270   -1.6309    3.9709 C.3       2 RES2    0.0000
     42 C30        2.0192   -1.4890    4.1171 C.3       2 RES2    0.0000
     43 C31        1.5119   -0.2155    4.7750 C.3       2 RES2    0.0000
     44 C32        0.6824    1.4404    3.1807 C.2       2 RES2    0.0000
     45 C33        1.0316    2.2923    1.9979 C.ar      2 RES2    0.0000
     46 C34        1.7451    1.7079    0.9617 C.ar      2 RES2    0.0000
     47 C35        1.9862    2.4011   -0.1996 C.ar      2 RES2    0.0000
     48 C36        1.5160    3.6862   -0.3138 C.ar      2 RES2    0.0000
     49 C37        0.8085    4.2954    0.6967 C.ar      2 RES2    0.0000
     50 C38        0.5649    3.5865    1.8549 C.ar      2 RES2    0.0000
     51 H1        10.4945    8.2193   -0.2329 H         1 RES1    0.0000
     52 H2         6.1892    7.5052    2.5282 H         1 RES1    0.0000
     53 H3         7.4266    6.9314    4.4169 H         1 RES1    0.0000
     54 H4         9.7504    6.8624    4.3430 H         1 RES1    0.0000
     55 H5        10.8975    7.3888    2.3988 H         1 RES1    0.0000
     56 H6         9.5603    9.0456   -2.3563 H         1 RES1    0.0000
     57 H7         8.2095    8.3703   -2.7111 H         1 RES1    0.0000
     58 H8         8.3430   10.9224   -1.6263 H         1 RES1    0.0000
     59 H9         8.2102   10.6808   -3.1528 H         1 RES1    0.0000
     60 H10        6.1537   11.2180   -2.3840 H         1 RES1    0.0000
     61 H11        6.1213    9.7122   -2.7573 H         1 RES1    0.0000
     62 H12        4.9702   10.1954   -0.7669 H         1 RES1    0.0000
     63 H13        6.3423   10.5557   -0.1386 H         1 RES1    0.0000
     64 H14        3.9792    5.9239    1.2142 H         1 RES1    0.0000
     65 H15        4.3355    3.6135    1.3399 H         1 RES1    0.0000
     66 H16        7.0899    3.9047   -1.6078 H         1 RES1    0.0000
     67 H17        6.7530    6.2260   -1.6910 H         1 RES1    0.0000
     68 H18        1.8424    3.9241    4.8512 H         2 RES2    0.0000
     69 H19        3.0866    5.8398    5.2836 H         2 RES2    0.0000
     70 H20        5.3746    5.8851    4.9103 H         2 RES2    0.0000
     71 H21        6.5022    3.9975    4.1582 H         2 RES2    0.0000
     72 H22        6.0964    1.3656    3.4171 H         2 RES2    0.0000
     73 H23        5.1462   -0.8759    2.9865 H         2 RES2    0.0000
     74 H24        3.8251   -0.7205    2.1881 H         2 RES2    0.0000
     75 H25        3.8997   -1.5144    4.8364 H         2 RES2    0.0000
     76 H26        3.7147   -2.5089    3.6610 H         2 RES2    0.0000
     77 H27        1.6947   -2.2306    4.6146 H         2 RES2    0.0000
     78 H28        1.6534   -1.5123    3.2415 H         2 RES2    0.0000
     79 H29        0.5868   -0.3042    4.9750 H         2 RES2    0.0000
     80 H30        1.9982   -0.0863    5.5812 H         2 RES2    0.0000
     81 H31        2.0665    0.8198    1.0626 H         2 RES2    0.0000
     82 H32        2.4714    2.0020   -0.9129 H         2 RES2    0.0000
     83 H33        0.4927    5.1840    0.5914 H         2 RES2    0.0000
     84 H34        0.0778    3.9867    2.5651 H         2 RES2    0.0000
@<TRIPOS>BOND
     1    1   25 2
     2    2    9 2
     3    3    9 2
     4    4   44 2
     5    5   12 2
     6    6   12 2
     7    7   14 1
     8    8   13 1
     9    9   29 1
    10   10   33 1
    11   11   32 1
    12   12   48 1
    13   13   14 2
    14   14   15 1
    15   15   16 ar
    16   16   17 ar
    17   17   18 ar
    18   18   19 ar
    19   19   20 ar
    20   20    8 1
    21   21   13 1
    22   22   21 1
    23   23   22 1
    24   24    7 1
    25   25    7 1
    26   26   25 1
    27   27   26 ar
    28   28   27 ar
    29   29   28 ar
    30   30   29 ar
    31   31   26 ar
    32   32   33 2
    33   33   34 1
    34   34   35 ar
    35   35   36 ar
    36   36   37 ar
    37   37   38 ar
    38   38   39 ar
    39   39   11 1
    40   40   32 1
    41   41   40 1
    42   42   41 1
    43   43   10 1
    44   44   10 1
    45   45   44 1
    46   46   45 ar
    47   47   46 ar
    48   48   47 ar
    49   49   48 ar
    50   50   45 ar
    51   51    8 1
    52   52   16 1
    53   53   17 1
    54   54   18 1
    55   55   19 1
    56   56   21 1
    57   57   21 1
    58   58   22 1
    59   59   22 1
    60   60   23 1
    61   61   23 1
    62   62   24 1
    63   63   24 1
    64   64   27 1
    65   65   28 1
    66   66   30 1
    67   67   31 1
    68   68   35 1
    69   69   36 1
    70   70   37 1
    71   71   38 1
    72   72   11 1
    73   73   40 1
    74   74   40 1
    75   75   41 1
    76   76   41 1
    77   77   42 1
    78   78   42 1
    79   79   43 1
    80   80   43 1
    81   81   46 1
    82   82   47 1
    83   83   49 1
    84   84   50 1
    85   15   20 ar
    86   23   24 1
    87   30   31 ar
    88   34   39 ar
    89   42   43 1
    90   49   50 ar
@<TRIPOS>SUBSTRUCTURE
     1 RES1 1
     2 RES2 4

@<TRIPOS>CRYSIN
   8.4810   21.5730   18.7180  90.0000  99.1330  90.0000  14 1

