# MOL2 file generated by ConQuest
# Please check atom types

@<TRIPOS>MOLECULE
UHEQON
    67    70     1
SMALL
NO_CHARGES
****
Generated from CSD

@<TRIPOS>ATOM
      1 O1         3.2542    3.9096    7.5465 O.2       1 RES1    0.0000
      2 O2         2.7422    5.7911    8.4885 O.2       1 RES1    0.0000
      3 O3         2.8003    2.6110   14.7347 O.3       1 RES1    0.0000
      4 N1         2.9796    4.6033    8.5569 N.pl3     1 RES1    0.0000
      5 N2         2.3973    0.7099   13.7067 N.2       1 RES1    0.0000
      6 N3         2.3621    0.4837   15.1048 N.2       1 RES1    0.0000
      7 N4         2.7307    2.6364   21.2083 N.2       1 RES1    0.0000
      8 N5         2.6181    3.8473   21.5523 N.2       1 RES1    0.0000
      9 C1         2.9164    3.9304    9.8664 C.ar      1 RES1    0.0000
     10 C2         2.9193    4.6795   11.0071 C.ar      1 RES1    0.0000
     11 H1         2.9616    5.6064   10.9641 H         1 RES1    0.0000
     12 C3         2.8576    4.0354   12.2351 C.ar      1 RES1    0.0000
     13 H2         2.8741    4.5329   13.0227 H         1 RES1    0.0000
     14 C4         2.7709    2.6595   12.2944 C.ar      1 RES1    0.0000
     15 C5         2.7702    1.9196   11.1178 C.ar      1 RES1    0.0000
     16 H3         2.7257    0.9927   11.1595 H         1 RES1    0.0000
     17 C6         2.8325    2.5360    9.9041 C.ar      1 RES1    0.0000
     18 H4         2.8204    2.0396    9.1204 H         1 RES1    0.0000
     19 C7         2.6791    1.9669   13.5426 C.2       1 RES1    0.0000
     20 C8         2.5981    1.6229   15.6403 C.2       1 RES1    0.0000
     21 C9         2.6382    1.9392   17.0559 C.ar      1 RES1    0.0000
     22 C10        3.0082    3.1801   17.5445 C.ar      1 RES1    0.0000
     23 H5         3.2427    3.8507   16.9445 H         1 RES1    0.0000
     24 C11        3.0391    3.4490   18.8917 C.ar      1 RES1    0.0000
     25 H6         3.2944    4.2905   19.1920 H         1 RES1    0.0000
     26 C12        2.6891    2.4656   19.7959 C.ar      1 RES1    0.0000
     27 C13        2.3342    1.2097   19.3275 C.ar      1 RES1    0.0000
     28 H7         2.1154    0.5402   19.9347 H         1 RES1    0.0000
     29 C14        2.3012    0.9373   17.9718 C.ar      1 RES1    0.0000
     30 H8         2.0559    0.0923   17.6676 H         1 RES1    0.0000
     31 C15        2.7816    4.0874   22.9581 C.ar      1 RES1    0.0000
     32 C16        2.5335    5.3929   23.3587 C.ar      1 RES1    0.0000
     33 H9         2.2115    6.0139   22.7490 H         1 RES1    0.0000
     34 C17        2.7644    5.7657   24.6565 C.ar      1 RES1    0.0000
     35 H10        2.5514    6.6303   24.9249 H         1 RES1    0.0000
     36 C18        3.3123    4.8781   25.5913 C.ar      1 RES1    0.0000
     37 C19        3.5045    3.5599   25.1705 C.ar      1 RES1    0.0000
     38 H11        3.8236    2.9273   25.7718 H         1 RES1    0.0000
     39 C20        3.2305    3.1824   23.8793 C.ar      1 RES1    0.0000
     40 H12        3.3517    2.2947   23.6285 H         1 RES1    0.0000
     41 N6         3.6450    5.3075   26.8428 N.3       1 RES1    0.0000
     42 O4         5.5747    3.2343   29.1919 O.3       1 RES1    0.0000
     43 C21        3.9799    4.3413   27.9802 C.3       1 RES1    0.0000
     44 H13        3.5683    4.6461   28.8076 H         1 RES1    0.0000
     45 H14        3.6378    3.4560   27.7783 H         1 RES1    0.0000
     46 O5         5.0599    4.4868   30.8538 O.2       1 RES1    0.0000
     47 O6         1.9577    6.4710   28.8623 O.3       1 RES1    0.0000
     48 C22        2.2732    7.1324   27.6923 C.3       1 RES1    0.0000
     49 H15        2.3012    8.0893   27.8499 H         1 RES1    0.0000
     50 H16        1.5941    6.9558   27.0226 H         1 RES1    0.0000
     51 C23        3.5568    6.6811   27.2154 C.3       1 RES1    0.0000
     52 H17        3.8013    7.2201   26.4493 H         1 RES1    0.0000
     53 H18        4.2137    6.8496   27.9085 H         1 RES1    0.0000
     54 C24        5.9505    2.3444   31.3150 C.3       1 RES1    0.0000
     55 H19        6.2036    1.5825   30.7880 H         1 RES1    0.0000
     56 H20        5.2621    2.0916   31.9346 H         1 RES1    0.0000
     57 H21        6.7142    2.6676   31.7978 H         1 RES1    0.0000
     58 C25        5.4571    3.3913   30.4427 C.2       1 RES1    0.0000
     59 O7         1.2334    7.6530   29.7457 O.2       1 RES1    0.0000
     60 C26        5.3567    4.3021   28.1235 C.3       1 RES1    0.0000
     61 H22        5.7009    5.1609   28.4102 H         1 RES1    0.0000
     62 H23        5.7820    4.0516   27.2897 H         1 RES1    0.0000
     63 C27        1.2334    5.8835   30.9763 C.3       1 RES1    0.0000
     64 H24        1.2685    4.9369   30.8141 H         1 RES1    0.0000
     65 H25        0.3750    6.1189   31.3287 H         1 RES1    0.0000
     66 H26        1.9168    6.1224   31.6088 H         1 RES1    0.0000
     67 C28        1.4557    6.5680   29.7717 C.2       1 RES1    0.0000
@<TRIPOS>BOND
     1    1    4 2
     2    2    4 2
     3    3   19 1
     4    4    9 1
     5    5    6 1
     6    6   20 2
     7    7    8 2
     8    8   31 1
     9    9   10 ar
    10   10   11 1
    11   12   10 ar
    12   13   12 1
    13   14   12 ar
    14   15   14 ar
    15   16   15 1
    16   17    9 ar
    17   18   17 1
    18   19    5 2
    19   20    3 1
    20   21   20 1
    21   22   21 ar
    22   23   22 1
    23   24   22 ar
    24   25   24 1
    25   26    7 1
    26   27   26 ar
    27   28   27 1
    28   29   21 ar
    29   30   29 1
    30   31   32 ar
    31   32   33 1
    32   34   32 ar
    33   35   34 1
    34   36   34 ar
    35   37   36 ar
    36   38   37 1
    37   39   31 ar
    38   40   39 1
    39   41   36 1
    40   42   58 1
    41   43   41 1
    42   44   43 1
    43   45   43 1
    44   46   58 2
    45   47   48 1
    46   48   49 1
    47   50   48 1
    48   51   41 1
    49   52   51 1
    50   53   51 1
    51   54   55 1
    52   56   54 1
    53   57   54 1
    54   58   54 1
    55   59   67 2
    56   60   42 1
    57   61   60 1
    58   62   60 1
    59   63   64 1
    60   65   63 1
    61   66   63 1
    62   67   47 1
    63   14   19 1
    64   15   17 ar
    65   24   26 ar
    66   27   29 ar
    67   37   39 ar
    68   43   60 1
    69   48   51 1
    70   63   67 1
@<TRIPOS>SUBSTRUCTURE
     1 RES1 1

@<TRIPOS>CRYSIN
   7.1710   11.5430   65.1460  90.0000  90.0000  90.0000  61 1

