# MOL2 file generated by ConQuest
# Please check atom types

@<TRIPOS>MOLECULE
UHIBIW
    51    54     1
SMALL
NO_CHARGES
****
Generated from CSD

@<TRIPOS>ATOM
      1 O1         5.6583    7.2576    9.2493 O.3       1 RES1    0.0000
      2 C1         5.6667    8.0933    8.0849 C.3       1 RES1    0.0000
      3 H1         5.0808    7.7799    7.3650 H         1 RES1    0.0000
      4 C2         5.2747    9.4502    8.6572 C.3       1 RES1    0.0000
      5 H2         4.3898    9.4395    9.0780 H         1 RES1    0.0000
      6 C3         6.4207    9.4299    9.6865 C.3       1 RES1    0.0000
      7 H3         6.4619   10.1974   10.2950 H         1 RES1    0.0000
      8 C4         6.1319    8.0922   10.3340 C.3       1 RES1    0.0000
      9 H4         5.4325    8.1914   11.0140 H         1 RES1    0.0000
     10 C5         7.1220    8.3470    7.6449 C.3       1 RES1    0.0000
     11 H5         7.1354    8.8458    6.8020 H         1 RES1    0.0000
     12 C6         7.6346    9.2317    8.7850 C.3       1 RES1    0.0000
     13 H6         8.3247    8.7435    9.2824 H         1 RES1    0.0000
     14 N1         8.2174   10.5257    8.2830 N.pl3     1 RES1    0.0000
     15 O2         8.8115   10.5097    7.2245 O.2       1 RES1    0.0000
     16 O3         8.1122   11.5159    8.9780 O.2       1 RES1    0.0000
     17 O4         7.2826    7.5422   10.9053 O.3       1 RES1    0.0000
     18 C7         7.0178    6.3357   11.6253 C.3       1 RES1    0.0000
     19 H7         6.6548    5.6791   11.0270 H         1 RES1    0.0000
     20 H8         6.3856    6.5126   12.3257 H         1 RES1    0.0000
     21 H9         7.8337    6.0042   12.0061 H         1 RES1    0.0000
     22 O5         7.9490    7.2179    7.5481 O.3       1 RES1    0.0000
     23 C8         7.6439    6.3612    6.4601 C.3       1 RES1    0.0000
     24 H10        7.5150    6.8825    5.6519 H         1 RES1    0.0000
     25 H11        6.8281    5.8699    6.6403 H         1 RES1    0.0000
     26 C9         8.7826    5.4126    6.2808 C.ar      1 RES1    0.0000
     27 C10        9.8749    5.7729    5.5352 C.ar      1 RES1    0.0000
     28 H12        9.8894    6.6053    5.1205 H         1 RES1    0.0000
     29 C11       10.9445    4.9287    5.3881 C.ar      1 RES1    0.0000
     30 H13       11.6809    5.1824    4.8809 H         1 RES1    0.0000
     31 C12       10.9084    3.7114    5.9994 C.ar      1 RES1    0.0000
     32 H14       11.6356    3.1380    5.9083 H         1 RES1    0.0000
     33 C13        9.8594    3.3224    6.7202 C.ar      1 RES1    0.0000
     34 H15        9.8502    2.4825    7.1216 H         1 RES1    0.0000
     35 C14        8.7878    4.1751    6.8676 C.ar      1 RES1    0.0000
     36 H16        8.0555    3.9065    7.3742 H         1 RES1    0.0000
     37 O6         5.3872   10.4343    7.6565 O.3       1 RES1    0.0000
     38 C15        4.9622   11.7259    8.0661 C.3       1 RES1    0.0000
     39 H17        5.5006   12.0296    8.8142 H         1 RES1    0.0000
     40 H18        4.0350   11.6949    8.3497 H         1 RES1    0.0000
     41 C16        5.1149   12.6724    6.9066 C.ar      1 RES1    0.0000
     42 C17        6.0318   12.4603    5.9074 C.ar      1 RES1    0.0000
     43 H19        6.5661   11.6992    5.9325 H         1 RES1    0.0000
     44 C18        6.1752   13.3535    4.8675 C.ar      1 RES1    0.0000
     45 H20        6.7992   13.1893    4.1990 H         1 RES1    0.0000
     46 C19        5.4057   14.4759    4.8164 C.ar      1 RES1    0.0000
     47 H21        5.4944   15.0738    4.1098 H         1 RES1    0.0000
     48 C20        4.5032   14.7167    5.8136 C.ar      1 RES1    0.0000
     49 H22        3.9906   15.4927    5.7931 H         1 RES1    0.0000
     50 C21        4.3475   13.8193    6.8460 C.ar      1 RES1    0.0000
     51 H23        3.7183   13.9877    7.5099 H         1 RES1    0.0000
@<TRIPOS>BOND
     1    1    2 1
     2    2    3 1
     3    4    2 1
     4    5    4 1
     5    6    4 1
     6    7    6 1
     7    8    1 1
     8    9    8 1
     9   10    2 1
    10   11   10 1
    11   12    6 1
    12   13   12 1
    13   14   12 1
    14   15   14 2
    15   16   14 2
    16   17    8 1
    17   18   17 1
    18   19   18 1
    19   20   18 1
    20   21   18 1
    21   22   10 1
    22   23   22 1
    23   24   23 1
    24   25   23 1
    25   26   23 1
    26   27   26 ar
    27   28   27 1
    28   29   27 ar
    29   30   29 1
    30   31   29 ar
    31   32   31 1
    32   33   31 ar
    33   34   33 1
    34   35   26 ar
    35   36   35 1
    36   37    4 1
    37   38   37 1
    38   39   38 1
    39   40   38 1
    40   41   38 1
    41   42   41 ar
    42   43   42 1
    43   44   42 ar
    44   45   44 1
    45   46   44 ar
    46   47   46 1
    47   48   46 ar
    48   49   48 1
    49   50   41 ar
    50   51   50 1
    51    6    8 1
    52   10   12 1
    53   33   35 ar
    54   48   50 ar
@<TRIPOS>SUBSTRUCTURE
     1 RES1 1

@<TRIPOS>CRYSIN
  10.3143   10.6589   18.5796  90.0000  90.0000  90.0000  19 1

