# MOL2 file generated by ConQuest
# Please check atom types

@<TRIPOS>MOLECULE
UHIGAV
    32    34     1
SMALL
NO_CHARGES
****
Generated from CSD

@<TRIPOS>ATOM
      1 O1        -1.8035    7.3860    6.7413 O.2       1 RES1    0.0000
      2 O2         0.5588    6.3461    5.1861 O.3       1 RES1    0.0000
      3 H1         0.3485    5.6388    5.5429 H         1 RES1    0.0000
      4 O3         1.9787    8.4488    3.3990 O.3       1 RES1    0.0000
      5 N1        -2.8344    6.3525    4.9651 N.am      1 RES1    0.0000
      6 H2        -3.6209    6.2667    5.3031 H         1 RES1    0.0000
      7 N2        -0.7508    9.8656    1.5594 N.3       1 RES1    0.0000
      8 N3         2.6536    8.8968    2.2439 N.2       1 RES1    0.0000
      9 C1        -2.4814    5.9175    3.6768 C.ar      1 RES1    0.0000
     10 C2        -3.2798    5.2638    2.7682 C.ar      1 RES1    0.0000
     11 H3        -4.1614    5.0451    2.9655 H         1 RES1    0.0000
     12 C3        -2.7119    4.9440    1.5382 C.ar      1 RES1    0.0000
     13 H4        -3.2245    4.5019    0.9004 H         1 RES1    0.0000
     14 C4        -1.3954    5.2708    1.2479 C.ar      1 RES1    0.0000
     15 H5        -1.0357    5.0569    0.4176 H         1 RES1    0.0000
     16 C5        -0.6182    5.9175    2.1924 C.ar      1 RES1    0.0000
     17 H6         0.2675    6.1303    2.0048 H         1 RES1    0.0000
     18 C6        -1.1669    6.2432    3.4138 C.ar      1 RES1    0.0000
     19 C7        -0.5932    6.9545    4.6263 C.3       1 RES1    0.0000
     20 C8        -1.7927    6.9239    5.6130 C.2       1 RES1    0.0000
     21 C9        -0.2718    8.4312    4.3813 C.3       1 RES1    0.0000
     22 H7        -1.1056    8.9004    4.2216 H         1 RES1    0.0000
     23 H8         0.1138    8.7957    5.1938 H         1 RES1    0.0000
     24 C10        0.6469    8.7310    3.2608 C.2       1 RES1    0.0000
     25 C11        0.4528    9.3283    2.0623 C.2       1 RES1    0.0000
     26 C12        1.7318    9.4118    1.4616 C.2       1 RES1    0.0000
     27 C13        2.0851   10.0420    0.1631 C.3       1 RES1    0.0000
     28 H9         1.8670   10.9767    0.1909 H         1 RES1    0.0000
     29 H10        1.5912    9.6199   -0.5432 H         1 RES1    0.0000
     30 H11        3.0258    9.9385    0.0016 H         1 RES1    0.0000
     31 H12       -1.4685    9.3942    1.7862 H         1 RES1    0.0000
     32 H13       -0.7820    9.9115    0.7014 H         1 RES1    0.0000
@<TRIPOS>BOND
     1    1   20 2
     2    2    3 1
     3    4    8 1
     4    5    6 1
     5    7   25 1
     6    8   26 2
     7    9    5 1
     8   10    9 ar
     9   11   10 1
    10   12   10 ar
    11   13   12 1
    12   14   12 ar
    13   15   14 1
    14   16   14 ar
    15   17   16 1
    16   18    9 ar
    17   19    2 1
    18   20    5 1
    19   21   19 1
    20   22   21 1
    21   23   21 1
    22   24    4 1
    23   25   24 2
    24   26   25 1
    25   27   26 1
    26   28   27 1
    27   29   27 1
    28   30   27 1
    29   31    7 1
    30   32    7 1
    31   16   18 ar
    32   18   19 1
    33   19   20 1
    34   21   24 1
@<TRIPOS>SUBSTRUCTURE
     1 RES1 1

@<TRIPOS>CRYSIN
   6.3186   11.7574   16.3886  90.0000  95.5370  90.0000  14 1

