# MOL2 file generated by ConQuest
# Please check atom types

@<TRIPOS>MOLECULE
UHIPOS
    32    34     1
SMALL
NO_CHARGES
****
Generated from CSD

@<TRIPOS>ATOM
      1 C1         2.1800   -0.8351   -2.3609 C.ar      1 RES1    0.0000
      2 C2         3.1820    0.2672   -0.6301 C.2       1 RES1    0.0000
      3 C3         1.7114    0.4704   -2.4775 C.ar      1 RES1    0.0000
      4 C4         1.6401    2.6852    0.6668 C.2       1 RES1    0.0000
      5 C5         1.1596    1.7979   -0.4226 C.3       1 RES1    0.0000
      6 H1         0.5022    2.2772   -0.9502 H         1 RES1    0.0000
      7 H2         0.7187    1.0283   -0.0292 H         1 RES1    0.0000
      8 C6         2.2887    1.3049   -1.3563 C.3       1 RES1    0.0000
      9 C7         2.0515    2.5301    1.9454 C.2       1 RES1    0.0000
     10 C8         2.4644    3.8264    2.3904 C.2       1 RES1    0.0000
     11 C9         1.8407   -1.8302   -3.2470 C.ar      1 RES1    0.0000
     12 H3         2.1551   -2.6997   -3.1504 H         1 RES1    0.0000
     13 C10        0.8705    0.8106   -3.5188 C.ar      1 RES1    0.0000
     14 H4         0.5451    1.6772   -3.6067 H         1 RES1    0.0000
     15 C11        3.0309    4.2561    3.7008 C.3       1 RES1    0.0000
     16 H5         3.2068    5.1996    3.6798 H         1 RES1    0.0000
     17 H6         3.8486    3.7812    3.8668 H         1 RES1    0.0000
     18 H7         2.4020    4.0636    4.4003 H         1 RES1    0.0000
     19 C12        0.5233   -0.1832   -4.4351 C.ar      1 RES1    0.0000
     20 H8        -0.0367    0.0244   -5.1480 H         1 RES1    0.0000
     21 C13        1.0002   -1.4659   -4.2972 C.ar      1 RES1    0.0000
     22 H9         0.7546   -2.1090   -4.9225 H         1 RES1    0.0000
     23 N1         3.0470   -0.9171   -1.2531 N.am      1 RES1    0.0000
     24 H10        3.4432   -1.6391   -1.0045 H         1 RES1    0.0000
     25 N2         2.2861    4.6995    1.4513 N.2       1 RES1    0.0000
     26 N3         2.0648    1.3028    2.6765 N.pl3     1 RES1    0.0000
     27 O1         3.8961    0.4867    0.3418 O.2       1 RES1    0.0000
     28 O2         3.0585    2.3570   -1.8896 O.3       1 RES1    0.0000
     29 H11        3.4653    2.7320   -1.2844 H         1 RES1    0.0000
     30 O3         1.7701    3.9798    0.3485 O.3       1 RES1    0.0000
     31 O4         1.3210    0.4024    2.3205 O.2       1 RES1    0.0000
     32 O5         2.8192    1.2453    3.6336 O.2       1 RES1    0.0000
@<TRIPOS>BOND
     1    1    3 ar
     2    2    8 1
     3    3    8 1
     4    4    5 1
     5    5    6 1
     6    7    5 1
     7    8    5 1
     8    9    4 2
     9   10    9 1
    10   11    1 ar
    11   12   11 1
    12   13    3 ar
    13   14   13 1
    14   15   10 1
    15   16   15 1
    16   17   15 1
    17   18   15 1
    18   19   13 ar
    19   20   19 1
    20   21   11 ar
    21   22   21 1
    22   23    1 1
    23   24   23 1
    24   25   10 2
    25   26    9 1
    26   27    2 2
    27   28    8 1
    28   29   28 1
    29   30    4 1
    30   31   26 2
    31   32   26 2
    32    2   23 1
    33   19   21 ar
    34   25   30 1
@<TRIPOS>SUBSTRUCTURE
     1 RES1 1

@<TRIPOS>CRYSIN
   8.6065    7.1858   11.1840  90.0000 110.9850  90.0000   4 1

