# MOL2 file generated by ConQuest
# Please check atom types

@<TRIPOS>MOLECULE
UHISUZ
    45    46     1
SMALL
NO_CHARGES
****
Generated from CSD

@<TRIPOS>ATOM
      1 O1         8.5555    3.2362    1.3551 O.3       1 RES1    0.0000
      2 O2         5.1799    2.5416    6.3141 O.3       1 RES1    0.0000
      3 N1         7.1829    2.9262    1.5789 N.2       1 RES1    0.0000
      4 N2         5.5291    1.7133    5.2111 N.2       1 RES1    0.0000
      5 C1         5.6422    1.5446    2.8137 C.3       1 RES1    0.0000
      6 C2         7.0615    1.9861    2.4393 C.2       1 RES1    0.0000
      7 C3         8.2214    1.3048    3.1115 C.3       1 RES1    0.0000
      8 H1         7.9376    0.9706    3.9992 H         1 RES1    0.0000
      9 H2         8.9522    1.9574    3.2498 H         1 RES1    0.0000
     10 C4         8.7371    0.1311    2.2616 C.3       1 RES1    0.0000
     11 H3         8.8546    0.4423    1.3292 H         1 RES1    0.0000
     12 H4         9.6259   -0.1415    2.6011 H         1 RES1    0.0000
     13 C5         7.8165   -1.0921    2.2601 C.3       1 RES1    0.0000
     14 H5         7.8690   -1.5240    3.1491 H         1 RES1    0.0000
     15 H6         8.1585   -1.7407    1.5941 H         1 RES1    0.0000
     16 C6         6.3444   -0.8057    1.9465 C.3       1 RES1    0.0000
     17 H7         5.8694   -1.6655    1.8291 H         1 RES1    0.0000
     18 H8         6.2903   -0.3116    1.0896 H         1 RES1    0.0000
     19 C7         5.6290    0.0129    3.0387 C.3       1 RES1    0.0000
     20 H9         6.0567   -0.1809    3.9103 H         1 RES1    0.0000
     21 H10        4.6879   -0.2901    3.0938 H         1 RES1    0.0000
     22 C8         5.3183    2.3166    4.1009 C.2       1 RES1    0.0000
     23 C9         4.8060    3.7266    3.9934 C.3       1 RES1    0.0000
     24 H11        5.1479    4.1369    3.1600 H         1 RES1    0.0000
     25 H12        5.1433    4.2586    4.7577 H         1 RES1    0.0000
     26 C10        3.2687    3.7622    3.9871 C.3       1 RES1    0.0000
     27 H13        2.9320    3.1859    4.7178 H         1 RES1    0.0000
     28 H14        2.9685    4.6884    4.1707 H         1 RES1    0.0000
     29 C11        2.6580    3.2975    2.6702 C.3       1 RES1    0.0000
     30 H15        2.8665    3.9685    1.9733 H         1 RES1    0.0000
     31 H16        1.6734    3.2701    2.7726 H         1 RES1    0.0000
     32 C12        3.1349    1.9270    2.1831 C.3       1 RES1    0.0000
     33 H17        2.5606    1.6386    1.4299 H         1 RES1    0.0000
     34 H18        3.0204    1.2715    2.9160 H         1 RES1    0.0000
     35 C13        4.6068    1.9046    1.7222 C.3       1 RES1    0.0000
     36 H19        4.8339    2.7973    1.3582 H         1 RES1    0.0000
     37 H20        4.6928    1.2518    0.9826 H         1 RES1    0.0000
     38 C14        8.6265    4.3842    0.5090 C.3       1 RES1    0.0000
     39 H21        9.5657    4.6168    0.3511 H         1 RES1    0.0000
     40 H22        8.1724    5.1379    0.9408 H         1 RES1    0.0000
     41 H23        8.1909    4.1870   -0.3466 H         1 RES1    0.0000
     42 C15        5.5981    1.8933    7.5121 C.3       1 RES1    0.0000
     43 H24        5.2782    2.4015    8.2870 H         1 RES1    0.0000
     44 H25        6.5767    1.8464    7.5340 H         1 RES1    0.0000
     45 H26        5.2271    0.9868    7.5394 H         1 RES1    0.0000
@<TRIPOS>BOND
     1    1    3 1
     2    2    4 1
     3    3    6 2
     4    4   22 2
     5    5    6 1
     6    6    7 1
     7    7    8 1
     8    9    7 1
     9   10    7 1
    10   11   10 1
    11   12   10 1
    12   13   10 1
    13   14   13 1
    14   15   13 1
    15   16   13 1
    16   17   16 1
    17   18   16 1
    18   19    5 1
    19   20   19 1
    20   21   19 1
    21   22    5 1
    22   23   22 1
    23   24   23 1
    24   25   23 1
    25   26   23 1
    26   27   26 1
    27   28   26 1
    28   29   26 1
    29   30   29 1
    30   31   29 1
    31   32   29 1
    32   33   32 1
    33   34   32 1
    34   35    5 1
    35   36   35 1
    36   37   35 1
    37   38    1 1
    38   39   38 1
    39   40   38 1
    40   41   38 1
    41   42    2 1
    42   43   42 1
    43   44   42 1
    44   45   42 1
    45   16   19 1
    46   32   35 1
@<TRIPOS>SUBSTRUCTURE
     1 RES1 1

@<TRIPOS>CRYSIN
   9.1460   17.9085    9.1151  90.0000  95.5280  90.0000  14 1

