# MOL2 file generated by ConQuest
# Please check atom types

@<TRIPOS>MOLECULE
UHOPIR
    36    37     1
SMALL
NO_CHARGES
****
Generated from CSD

@<TRIPOS>ATOM
      1 N1         0.6139    0.1098    6.9490 N.pl3     1 RES1    0.0000
      2 O1         0.8132    0.6416    8.0800 O.2       1 RES1    0.0000
      3 C1         0.5170    0.8820    5.6788 C.3       1 RES1    0.0000
      4 N2         0.4265   -1.5147    5.4272 N.2       1 RES1    0.0000
      5 C2         1.9277    1.3752    5.3738 C.3       1 RES1    0.0000
      6 H1         1.8555    1.9391    4.5826 H         1 RES1    0.0000
      7 H2         2.2170    1.8993    6.1203 H         1 RES1    0.0000
      8 H3         2.5815    0.6280    5.3158 H         1 RES1    0.0000
      9 N3         1.3679   -4.2577    8.5807 N.2       1 RES1    0.0000
     10 C3        -0.4115    2.0594    5.8484 C.3       1 RES1    0.0000
     11 H4        -0.5504    2.5227    5.0205 H         1 RES1    0.0000
     12 H5        -0.0719    2.6897    6.4971 H         1 RES1    0.0000
     13 H6        -1.2791    1.7952    6.1407 H         1 RES1    0.0000
     14 N4         1.6807   -3.2783    9.4547 N.3       1 RES1    0.0000
     15 C4         0.0300   -0.2628    4.7429 C.3       1 RES1    0.0000
     16 C5         0.6506   -0.2468    3.3572 C.3       1 RES1    0.0000
     17 H7         0.4682    0.5606    2.9329 H         1 RES1    0.0000
     18 H8         1.6280   -0.3354    3.4522 H         1 RES1    0.0000
     19 H9         0.3149   -0.9466    2.8106 H         1 RES1    0.0000
     20 C6        -1.4860   -0.3105    4.6141 C.3       1 RES1    0.0000
     21 H10       -1.7434    0.4825    4.0632 H         1 RES1    0.0000
     22 H11       -1.9462   -0.3109    5.5296 H         1 RES1    0.0000
     23 H12       -1.7079   -1.1120    4.1345 H         1 RES1    0.0000
     24 C7         0.6778   -1.2534    6.6576 C.2       1 RES1    0.0000
     25 C8         1.0032   -2.2306    7.6687 C.2       1 RES1    0.0000
     26 C9         1.4759   -2.0607    8.9510 C.2       1 RES1    0.0000
     27 H13        1.6471   -1.2637    9.4635 H         1 RES1    0.0000
     28 C10        2.2406   -3.6237   10.7506 C.3       1 RES1    0.0000
     29 H14        3.0175   -4.1769   10.6000 H         1 RES1    0.0000
     30 H15        2.5117   -2.7908   11.1092 H         1 RES1    0.0000
     31 C11        1.2538   -4.3459   11.6072 C.3       1 RES1    0.0000
     32 H16        1.6516   -4.6242   12.4646 H         1 RES1    0.0000
     33 H17        0.9393   -5.1251   11.1408 H         1 RES1    0.0000
     34 H18        0.5408   -3.6914   11.8129 H         1 RES1    0.0000
     35 C12        0.9606   -3.6231    7.5032 C.2       1 RES1    0.0000
     36 H19        0.7027   -4.0896    6.7445 H         1 RES1    0.0000
@<TRIPOS>BOND
     1    1    2 1
     2    3    1 1
     3    4   15 1
     4    5    3 1
     5    6    5 1
     6    7    5 1
     7    8    5 1
     8    9   14 1
     9   10    3 1
    10   11   10 1
    11   12   10 1
    12   13   10 1
    13   14   26 1
    14   15    3 1
    15   16   15 1
    16   17   16 1
    17   18   16 1
    18   19   16 1
    19   20   15 1
    20   21   20 1
    21   22   20 1
    22   23   20 1
    23   24    1 1
    24   25   24 1
    25   26   25 2
    26   27   26 1
    27   28   14 1
    28   29   28 1
    29   30   28 1
    30   31   28 1
    31   32   31 1
    32   33   31 1
    33   34   31 1
    34   35    9 2
    35   36   35 1
    36    4   24 2
    37   25   35 1
@<TRIPOS>SUBSTRUCTURE
     1 RES1 1

@<TRIPOS>CRYSIN
  16.2710   15.3170   12.3710  90.0000 124.5960  90.0000  15 1

