# MOL2 file generated by ConQuest
# Please check atom types

@<TRIPOS>MOLECULE
UHOPEN
    33    34     1
SMALL
NO_CHARGES
****
Generated from CSD

@<TRIPOS>ATOM
      1 O1         8.3997   -0.6654    1.9937 O.2       1 RES1    0.0000
      2 N1         8.5432   -0.1819    3.1670 N.pl3     1 RES1    0.0000
      3 C1         8.5906   -1.0183    4.4093 C.3       1 RES1    0.0000
      4 N2         8.6515    1.3720    4.7869 N.2       1 RES1    0.0000
      5 C2         7.1599   -1.5191    4.6420 C.3       1 RES1    0.0000
      6 N3         7.8632    4.2847    1.6908 N.2       1 RES1    0.0000
      7 C3         9.5342   -2.1968    4.2188 C.3       1 RES1    0.0000
      8 N4         7.6143    3.3364    0.7484 N.pl3     1 RES1    0.0000
      9 C4         9.0530    0.0802    5.4181 C.3       1 RES1    0.0000
     10 C5        10.5693    0.1349    5.5790 C.3       1 RES1    0.0000
     11 C6         8.4008   -0.0228    6.7986 C.3       1 RES1    0.0000
     12 C7         8.4559    1.1704    3.5286 C.2       1 RES1    0.0000
     13 C8         8.1657    2.2037    2.5407 C.2       1 RES1    0.0000
     14 C9         8.1959    3.5981    2.7712 C.2       1 RES1    0.0000
     15 C10        7.1768    3.7287   -0.5778 C.3       1 RES1    0.0000
     16 C11        7.7797    2.0862    1.2189 C.2       1 RES1    0.0000
     17 H1         7.6307    1.3489    0.6511 H         1 RES1    0.0000
     18 H2         9.1801   -2.8401    3.5911 H         1 RES1    0.0000
     19 H3         8.4425    4.0348    3.5708 H         1 RES1    0.0000
     20 H4         9.6868   -2.6340    5.0968 H         1 RES1    0.0000
     21 H5        10.8514   -0.6670    6.1141 H         1 RES1    0.0000
     22 H6         6.5582   -0.7397    4.8221 H         1 RES1    0.0000
     23 H7         7.1594   -2.1108    5.4427 H         1 RES1    0.0000
     24 H8        10.4379   -1.9477    3.9065 H         1 RES1    0.0000
     25 H9        10.8147    0.8775    6.1751 H         1 RES1    0.0000
     26 H10        6.8818   -2.0485    3.8455 H         1 RES1    0.0000
     27 H11        7.4320    0.0815    6.6736 H         1 RES1    0.0000
     28 H12       11.0256    0.2209    4.7204 H         1 RES1    0.0000
     29 H13        8.6466   -0.8923    7.2332 H         1 RES1    0.0000
     30 H14        8.7623    0.6982    7.4366 H         1 RES1    0.0000
     31 H15        6.4589    4.2987   -0.5188 H         1 RES1    0.0000
     32 H16        7.1371    2.9942   -1.1089 H         1 RES1    0.0000
     33 H17        7.8572    4.2690   -1.0478 H         1 RES1    0.0000
@<TRIPOS>BOND
     1    1    2 1
     2    2    3 1
     3    3    5 1
     4    4    9 1
     5    5   22 1
     6    6    8 1
     7    7    3 1
     8    8   15 1
     9    9    3 1
    10   10    9 1
    11   11    9 1
    12   12    2 1
    13   13   12 1
    14   14    6 2
    15   15   31 1
    16   16    8 1
    17   17   16 1
    18   18    7 1
    19   19   14 1
    20   20    7 1
    21   21   10 1
    22   23    5 1
    23   24    7 1
    24   25   10 1
    25   26    5 1
    26   27   11 1
    27   28   10 1
    28   29   11 1
    29   30   11 1
    30   32   15 1
    31   33   15 1
    32    4   12 2
    33   13   14 1
    34   13   16 2
@<TRIPOS>SUBSTRUCTURE
     1 RES1 1

@<TRIPOS>CRYSIN
  16.2430   14.8230   12.4700  90.0000 125.3320  90.0000  15 1

