# MOL2 file generated by ConQuest
# Please check atom types

@<TRIPOS>MOLECULE
UHOPIQ
    70    72     2
SMALL
NO_CHARGES
****
Generated from CSD

@<TRIPOS>ATOM
      1 O1         6.6021    1.6576   17.0077 O.3       1 RES1    0.0000
      2 O2         1.1063    3.5135   12.0830 O.2       1 RES1    0.0000
      3 O3         2.9526   -0.5032    7.2439 O.2       1 RES1    0.0000
      4 O4         3.0891   -2.1904    8.5092 O.2       1 RES1    0.0000
      5 O5         4.2098    5.7424    2.6482 O.3       2 RES2    0.0000
      6 O6         9.6697    3.9264    7.4151 O.2       2 RES2    0.0000
      7 O7         7.6869    9.5904   11.0504 O.2       2 RES2    0.0000
      8 O8         7.7587    7.8884   12.3398 O.2       2 RES2    0.0000
      9 N1         2.9670    2.4405   12.7812 N.am      1 RES1    0.0000
     10 N2         3.0460   -0.9768    8.3059 N.pl3     1 RES1    0.0000
     11 N3         7.7731    4.9846    6.7678 N.am      2 RES2    0.0000
     12 N4         7.7084    8.4212   11.1868 N.pl3     2 RES2    0.0000
     13 C1         6.0705    1.1396   18.2275 C.3       1 RES1    0.0000
     14 C2         5.6323    1.8500   15.9109 C.ar      1 RES1    0.0000
     15 C3         6.0489    2.3236   14.7874 C.ar      1 RES1    0.0000
     16 C4         5.2443    2.5604   13.7308 C.ar      1 RES1    0.0000
     17 C5         3.8578    2.1756   13.8458 C.ar      1 RES1    0.0000
     18 C6         3.4627    1.6576   15.0549 C.ar      1 RES1    0.0000
     19 C7         4.3391    1.3616   16.0286 C.ar      1 RES1    0.0000
     20 C8         2.0331    3.4336   12.8668 C.2       1 RES1    0.0000
     21 C9         3.0101    1.5436   11.6149 C.ar      1 RES1    0.0000
     22 C10        2.9670    2.0587   10.4138 C.ar      1 RES1    0.0000
     23 C11        2.9311    1.1988    9.2823 C.ar      1 RES1    0.0000
     24 C12        3.0819   -0.0592    9.4882 C.ar      1 RES1    0.0000
     25 C13        3.1825   -0.6704   10.7187 C.ar      1 RES1    0.0000
     26 C14        3.1179    0.1628   11.8021 C.ar      1 RES1    0.0000
     27 C15        2.2630    4.4104   14.0304 C.3       1 RES1    0.0000
     28 C16        4.6193    6.1716    1.3696 C.3       2 RES2    0.0000
     29 C17        5.1078    5.6388    3.5578 C.ar      2 RES2    0.0000
     30 C18        6.4297    5.9496    3.4026 C.ar      2 RES2    0.0000
     31 C19        7.2846    5.8608    4.5555 C.ar      2 RES2    0.0000
     32 C20        6.7889    5.2392    5.6951 C.ar      2 RES2    0.0000
     33 C21        5.5532    4.8396    5.8021 C.ar      2 RES2    0.0000
     34 C22        4.6265    5.0024    4.7749 C.ar      2 RES2    0.0000
     35 C23        8.7286    3.9812    6.6501 C.2       2 RES2    0.0000
     36 C24        7.7659    5.8016    7.8431 C.ar      2 RES2    0.0000
     37 C25        7.6366    7.1824    7.7013 C.ar      2 RES2    0.0000
     38 C26        7.6366    8.0364    8.7740 C.ar      2 RES2    0.0000
     39 C27        7.7372    7.5480   10.0580 C.ar      2 RES2    0.0000
     40 C28        7.7659    6.1272   10.2560 C.ar      2 RES2    0.0000
     41 C29        7.8521    5.2984    9.2180 C.ar      2 RES2    0.0000
     42 C30        8.6567    2.9600    5.6014 C.3       2 RES2    0.0000
     43 H1         6.7170    1.2077   18.9042 H         1 RES1    0.0000
     44 H2         5.8506    0.2205   18.0803 H         1 RES1    0.0000
     45 H3         5.2896    1.6176   18.4548 H         1 RES1    0.0000
     46 H4         6.9627    2.5382   14.7072 H         1 RES1    0.0000
     47 H5         5.5805    2.9289   12.9283 H         1 RES1    0.0000
     48 H6         2.5345    1.4918   15.1967 H         1 RES1    0.0000
     49 H7         4.0927    0.8229   16.7830 H         1 RES1    0.0000
     50 H8         2.9462    4.0626   14.5948 H         1 RES1    0.0000
     51 H9         2.5230    5.2407   13.6773 H         1 RES1    0.0000
     52 H10        1.4576    4.4962   14.5253 H         1 RES1    0.0000
     53 H11        2.9476    3.0074   10.3095 H         1 RES1    0.0000
     54 H12        2.7781    1.5866    8.4343 H         1 RES1    0.0000
     55 H13        3.2989   -1.6221   10.8364 H         1 RES1    0.0000
     56 H14        3.2457   -0.1006   12.6528 H         1 RES1    0.0000
     57 H15        5.2077    5.5026    0.9817 H         2 RES2    0.0000
     58 H16        5.0891    6.9915    1.4071 H         2 RES2    0.0000
     59 H17        3.8679    6.2604    0.7865 H         2 RES2    0.0000
     60 H18        6.7731    6.1760    2.5707 H         2 RES2    0.0000
     61 H19        8.1754    6.2264    4.5020 H         2 RES2    0.0000
     62 H20        5.2687    4.4015    6.6019 H         2 RES2    0.0000
     63 H21        3.7113    4.7316    4.8765 H         2 RES2    0.0000
     64 H22        9.4340    3.0044    5.0584 H         2 RES2    0.0000
     65 H23        7.8852    3.0902    5.0771 H         2 RES2    0.0000
     66 H24        8.6179    2.0868    6.0054 H         2 RES2    0.0000
     67 H25        7.5324    7.5362    6.8320 H         2 RES2    0.0000
     68 H26        7.6007    8.9673    8.6697 H         2 RES2    0.0000
     69 H27        7.6969    5.7824   11.1548 H         2 RES2    0.0000
     70 H28        7.9721    4.3704    9.3786 H         2 RES2    0.0000
@<TRIPOS>BOND
     1    1   13 1
     2    2   20 2
     3    3   10 2
     4    4   10 2
     5    5   28 1
     6    6   35 2
     7    7   12 2
     8    8   12 2
     9    9   17 1
    10   10   24 1
    11   11   32 1
    12   12   39 1
    13   13   43 1
    14   14    1 1
    15   15   14 ar
    16   16   15 ar
    17   17   16 ar
    18   18   17 ar
    19   19   14 ar
    20   20    9 1
    21   21    9 1
    22   22   21 ar
    23   23   22 ar
    24   24   23 ar
    25   25   24 ar
    26   26   21 ar
    27   27   20 1
    28   28   57 1
    29   29    5 1
    30   30   29 ar
    31   31   30 ar
    32   32   31 ar
    33   33   32 ar
    34   34   29 ar
    35   35   11 1
    36   36   11 1
    37   37   36 ar
    38   38   37 ar
    39   39   38 ar
    40   40   39 ar
    41   41   36 ar
    42   42   35 1
    43   44   13 1
    44   45   13 1
    45   46   15 1
    46   47   16 1
    47   48   18 1
    48   49   19 1
    49   50   27 1
    50   51   27 1
    51   52   27 1
    52   53   22 1
    53   54   23 1
    54   55   25 1
    55   56   26 1
    56   58   28 1
    57   59   28 1
    58   60   30 1
    59   61   31 1
    60   62   33 1
    61   63   34 1
    62   64   42 1
    63   65   42 1
    64   66   42 1
    65   67   37 1
    66   68   38 1
    67   69   40 1
    68   70   41 1
    69   18   19 ar
    70   25   26 ar
    71   33   34 ar
    72   40   41 ar
@<TRIPOS>SUBSTRUCTURE
     1 RES1 1
     2 RES2 5

@<TRIPOS>CRYSIN
   7.1840   14.8000   26.7500  90.0000  90.0000  90.0000  29 1

