# MOL2 file generated by ConQuest
# Please check atom types

@<TRIPOS>MOLECULE
UHOQOY
    42    42     1
SMALL
NO_CHARGES
****
Generated from CSD

@<TRIPOS>ATOM
      1 N1         9.1030    6.4401    0.8042 N.pl3     1 RES1    0.0000
      2 O1         9.6449    6.7202   -0.3315 O.2       1 RES1    0.0000
      3 C1         7.8659    5.6199    0.8879 C.3       1 RES1    0.0000
      4 N2         8.6388    6.4168    2.9247 N.pl3     1 RES1    0.0000
      5 O2         8.6826    6.6911    4.1821 O.2       1 RES1    0.0000
      6 C2         7.9540    4.4530   -0.0626 C.3       1 RES1    0.0000
      7 H1         8.8207    3.9429    0.0817 H         1 RES1    0.0000
      8 H2         7.8530    4.7514   -0.9938 H         1 RES1    0.0000
      9 H3         7.2001    3.8131    0.1429 H         1 RES1    0.0000
     10 C3         6.7180    6.5432    0.4860 C.3       1 RES1    0.0000
     11 H4         6.6109    7.2869    1.2797 H         1 RES1    0.0000
     12 H5         5.9076    6.0391    0.5432 H         1 RES1    0.0000
     13 H6         6.8446    6.7578   -0.4356 H         1 RES1    0.0000
     14 C4         7.8706    5.2655    2.3813 C.3       1 RES1    0.0000
     15 C5         8.6911    4.0128    2.6914 C.3       1 RES1    0.0000
     16 H7         8.7187    3.9728    3.7573 H         1 RES1    0.0000
     17 H8         9.6066    4.0727    2.2054 H         1 RES1    0.0000
     18 H9         8.2397    3.2342    2.3824 H         1 RES1    0.0000
     19 C6         6.5215    5.1687    3.0399 C.3       1 RES1    0.0000
     20 H10        6.0249    6.0092    2.9269 H         1 RES1    0.0000
     21 H11        6.5227    5.0409    3.9752 H         1 RES1    0.0000
     22 H12        6.0002    4.4520    2.6410 H         1 RES1    0.0000
     23 C7         9.4267    6.9884    1.9941 C.2       1 RES1    0.0000
     24 C8        10.3886    7.9816    2.2816 C.2       1 RES1    0.0000
     25 H13       10.4213    8.1952    3.2183 H         1 RES1    0.0000
     26 C9        11.1714    8.5356    1.3377 C.2       1 RES1    0.0000
     27 H14       11.0917    8.2052    0.4207 H         1 RES1    0.0000
     28 N3        12.0928    9.4911    1.5057 N.3       1 RES1    0.0000
     29 C10       14.2670    9.4150    0.3621 C.3       1 RES1    0.0000
     30 H15       14.7408    9.6825   -0.4629 H         1 RES1    0.0000
     31 H16       14.3226    8.4448    0.5582 H         1 RES1    0.0000
     32 H17       14.7717    9.8622    1.1435 H         1 RES1    0.0000
     33 C11       12.2822   10.1547    2.7867 C.3       1 RES1    0.0000
     34 H18       13.1393   10.5410    2.7744 H         1 RES1    0.0000
     35 H19       12.2292    9.4929    3.5096 H         1 RES1    0.0000
     36 C12       12.8724    9.9481    0.3567 C.3       1 RES1    0.0000
     37 H20       12.8673   10.8504    0.3744 H         1 RES1    0.0000
     38 H21       12.4351    9.5528   -0.5309 H         1 RES1    0.0000
     39 C13       11.2601   11.2307    3.0317 C.3       1 RES1    0.0000
     40 H22       11.4269   11.6989    3.8663 H         1 RES1    0.0000
     41 H23       10.3534   10.8504    3.0876 H         1 RES1    0.0000
     42 H24       11.3400   11.8686    2.3075 H         1 RES1    0.0000
@<TRIPOS>BOND
     1    1    2 1
     2    3    1 1
     3    4    5 1
     4    6    3 1
     5    7    6 1
     6    8    6 1
     7    9    6 1
     8   10    3 1
     9   11   10 1
    10   12   10 1
    11   13   10 1
    12   14    3 1
    13   15   14 1
    14   16   15 1
    15   17   15 1
    16   18   15 1
    17   19   14 1
    18   20   19 1
    19   21   19 1
    20   22   19 1
    21   23    1 1
    22   24   23 1
    23   25   24 1
    24   26   24 2
    25   27   26 1
    26   28   26 1
    27   29   30 1
    28   31   29 1
    29   32   29 1
    30   33   28 1
    31   34   33 1
    32   35   33 1
    33   36   28 1
    34   37   36 1
    35   38   36 1
    36   39   33 1
    37   40   39 1
    38   41   39 1
    39   42   39 1
    40    4   14 1
    41    4   23 2
    42   29   36 1
@<TRIPOS>SUBSTRUCTURE
     1 RES1 1

@<TRIPOS>CRYSIN
  10.6170    9.9820   14.1550  90.0000 105.8980  90.0000 231 1

