# MOL2 file generated by ConQuest
# Please check atom types

@<TRIPOS>MOLECULE
UHORAL
    72    74     2
SMALL
NO_CHARGES
****
Generated from CSD

@<TRIPOS>ATOM
      1 N1         9.8690   -0.5672    4.4287 N.pl3     1 RES1    0.0000
      2 O1         9.8469   -0.5818    5.7005 O.2       1 RES1    0.0000
      3 C1        10.4774   -1.6298    3.6236 C.3       1 RES1    0.0000
      4 N2         9.4699    0.1754    2.3656 N.2       1 RES1    0.0000
      5 C2        11.9003   -1.8252    4.0203 C.3       1 RES1    0.0000
      6 H1        11.9386   -2.1714    4.9262 H         1 RES1    0.0000
      7 H2        12.3684   -0.9770    3.9785 H         1 RES1    0.0000
      8 H3        12.3217   -2.4561    3.4145 H         1 RES1    0.0000
      9 N3         7.5872    3.5827    4.3083 N.2       1 RES1    0.0000
     10 C3         9.6148   -2.8888    3.9381 C.3       1 RES1    0.0000
     11 H4         9.8044   -3.1946    4.8383 H         1 RES1    0.0000
     12 H5         9.8287   -3.5927    3.3063 H         1 RES1    0.0000
     13 H6         8.6736   -2.6638    3.8645 H         1 RES1    0.0000
     14 N4         7.7667    3.0455    5.5579 N.pl3     1 RES1    0.0000
     15 C4        10.2163   -1.0863    2.1941 C.3       1 RES1    0.0000
     16 C5         9.3712   -2.0041    1.3517 C.3       1 RES1    0.0000
     17 H7         8.5621   -2.2330    1.8349 H         1 RES1    0.0000
     18 H8         9.8693   -2.8119    1.1540 H         1 RES1    0.0000
     19 H9         9.1377   -1.5579    0.5222 H         1 RES1    0.0000
     20 C6        11.4723   -0.7385    1.4209 C.3       1 RES1    0.0000
     21 H10       11.2299   -0.4058    0.5424 H         1 RES1    0.0000
     22 H11       12.0236   -1.5309    1.3242 H         1 RES1    0.0000
     23 H12       11.9679   -0.0558    1.8998 H         1 RES1    0.0000
     24 C7         9.3030    0.4274    3.6164 C.2       1 RES1    0.0000
     25 C8         8.6306    1.5790    4.1829 C.2       1 RES1    0.0000
     26 C9         8.1063    2.6855    3.4808 C.2       1 RES1    0.0000
     27 C10        8.0768    2.9465    2.0022 C.3       1 RES1    0.0000
     28 H13        7.6459    3.7985    1.8335 H         1 RES1    0.0000
     29 H14        7.5815    2.2406    1.5594 H         1 RES1    0.0000
     30 H15        8.9849    2.9696    1.6604 H         1 RES1    0.0000
     31 C11        7.3317    3.8024    6.7265 C.3       1 RES1    0.0000
     32 H16        7.5268    3.2965    7.5315 H         1 RES1    0.0000
     33 H17        6.3762    3.9639    6.6703 H         1 RES1    0.0000
     34 H18        7.8005    4.6505    6.7568 H         1 RES1    0.0000
     35 C12        8.3810    1.8685    5.5134 C.2       1 RES1    0.0000
     36 H19        8.6061    1.3309    6.2505 H         1 RES1    0.0000
     37 N5        13.7923    3.0034    4.8498 N.pl3     2 RES2    0.0000
     38 O2        13.9692    2.9409    6.1160 O.2       2 RES2    0.0000
     39 C13       12.9619    4.0701    4.2237 C.3       2 RES2    0.0000
     40 N6        13.8519    2.3934    2.7019 N.2       2 RES2    0.0000
     41 C14       11.5181    3.7908    4.6724 C.3       2 RES2    0.0000
     42 H20       11.4245    4.0043    5.6129 H         2 RES2    0.0000
     43 H21       11.3121    2.8523    4.5310 H         2 RES2    0.0000
     44 H22       10.9066    4.3370    4.1545 H         2 RES2    0.0000
     45 N7        15.9534   -1.1396    4.1603 N.2       2 RES2    0.0000
     46 C15       13.4027    5.4141    4.7358 C.3       2 RES2    0.0000
     47 H23       14.3117    5.5891    4.4444 H         2 RES2    0.0000
     48 H24       13.3658    5.4199    5.7038 H         2 RES2    0.0000
     49 H25       12.8137    6.1026    4.3853 H         2 RES2    0.0000
     50 N8        15.7891   -0.7686    5.4542 N.pl3     2 RES2    0.0000
     51 C16       13.2631    3.7704    2.7350 C.3       2 RES2    0.0000
     52 C17       12.0262    3.7447    1.8017 C.3       2 RES2    0.0000
     53 H26       11.3437    3.1715    2.1840 H         2 RES2    0.0000
     54 H27       12.2849    3.4042    0.9319 H         2 RES2    0.0000
     55 H28       11.6758    4.6448    1.7051 H         2 RES2    0.0000
     56 C18       14.3061    4.6871    2.1090 C.3       2 RES2    0.0000
     57 H29       15.0916    4.7179    2.6773 H         2 RES2    0.0000
     58 H30       13.9379    5.5795    2.0152 H         2 RES2    0.0000
     59 H31       14.5526    4.3447    1.2348 H         2 RES2    0.0000
     60 C19       14.1732    2.0550    3.8948 C.2       2 RES2    0.0000
     61 C20       14.8506    0.8282    4.2858 C.2       2 RES2    0.0000
     62 C21       15.3917   -0.1702    3.4433 C.2       2 RES2    0.0000
     63 C22       15.3994   -0.2500    1.9416 C.3       2 RES2    0.0000
     64 H32       15.8499   -1.0617    1.6632 H         2 RES2    0.0000
     65 H33       15.8679    0.5193    1.5796 H         2 RES2    0.0000
     66 H34       14.4872   -0.2558    1.6128 H         2 RES2    0.0000
     67 C23       16.3130   -1.6136    6.5159 C.3       2 RES2    0.0000
     68 H35       16.1115   -1.2117    7.3771 H         2 RES2    0.0000
     69 H36       17.2739   -1.7002    6.4178 H         2 RES2    0.0000
     70 H37       15.9018   -2.4907    6.4640 H         2 RES2    0.0000
     71 C24       15.1420    0.4000    5.5754 C.2       2 RES2    0.0000
     72 H38       14.9270    0.8424    6.3760 H         2 RES2    0.0000
@<TRIPOS>BOND
     1    1    2 1
     2    3    1 1
     3    4   15 1
     4    5    3 1
     5    6    5 1
     6    7    5 1
     7    8    5 1
     8    9   14 1
     9   10    3 1
    10   11   10 1
    11   12   10 1
    12   13   10 1
    13   14   31 1
    14   15    3 1
    15   16   15 1
    16   17   16 1
    17   18   16 1
    18   19   16 1
    19   20   15 1
    20   21   20 1
    21   22   20 1
    22   23   20 1
    23   24    1 1
    24   25   24 1
    25   26    9 2
    26   27   26 1
    27   28   27 1
    28   29   27 1
    29   30   27 1
    30   31   32 1
    31   33   31 1
    32   34   31 1
    33   35   14 1
    34   36   35 1
    35   37   38 1
    36   39   37 1
    37   40   51 1
    38   41   39 1
    39   42   41 1
    40   43   41 1
    41   44   41 1
    42   45   50 1
    43   46   39 1
    44   47   46 1
    45   48   46 1
    46   49   46 1
    47   50   67 1
    48   51   39 1
    49   52   51 1
    50   53   52 1
    51   54   52 1
    52   55   52 1
    53   56   51 1
    54   57   56 1
    55   58   56 1
    56   59   56 1
    57   60   37 1
    58   61   60 1
    59   62   45 2
    60   63   62 1
    61   64   63 1
    62   65   63 1
    63   66   63 1
    64   67   68 1
    65   69   67 1
    66   70   67 1
    67   71   50 1
    68   72   71 1
    69    4   24 2
    70   25   26 1
    71   25   35 2
    72   40   60 2
    73   61   62 1
    74   61   71 2
@<TRIPOS>SUBSTRUCTURE
     1 RES1 1
     2 RES2 37

@<TRIPOS>CRYSIN
   9.7270   19.2330   14.4950  90.0000  95.6200  90.0000  14 1

