# MOL2 file generated by ConQuest
# Please check atom types

@<TRIPOS>MOLECULE
UHOREP
    72    74     2
SMALL
NO_CHARGES
****
Generated from CSD

@<TRIPOS>ATOM
      1 N1         2.7515    9.2596    3.8132 N.pl3     1 RES1    0.0000
      2 O1         1.8852   10.1860    3.8484 O.2       1 RES1    0.0000
      3 C1         2.6011    8.0296    3.0069 C.3       1 RES1    0.0000
      4 N2         4.6200    8.1983    4.2646 N.2       1 RES1    0.0000
      5 C2         1.4577    7.2234    3.6764 C.3       1 RES1    0.0000
      6 H1         0.6109    7.6644    3.5097 H         1 RES1    0.0000
      7 H2         1.6150    7.1712    4.6324 H         1 RES1    0.0000
      8 H3         1.4341    6.3270    3.3035 H         1 RES1    0.0000
      9 N3         5.3139   11.4836    6.9686 N.pl3     1 RES1    0.0000
     10 N4         4.1530   12.1298    6.7737 N.2       1 RES1    0.0000
     11 C3         2.2093    8.4330    1.6309 C.3       1 RES1    0.0000
     12 H4         2.9261    8.9460    1.2289 H         1 RES1    0.0000
     13 H5         1.4051    8.9730    1.6684 H         1 RES1    0.0000
     14 H6         2.0406    7.6392    1.0977 H         1 RES1    0.0000
     15 C4         3.9435    7.3926    3.2321 C.3       1 RES1    0.0000
     16 C5         3.9910    5.9940    3.6368 C.3       1 RES1    0.0000
     17 H7         3.4533    5.8716    4.4345 H         1 RES1    0.0000
     18 H8         4.9090    5.7438    3.8242 H         1 RES1    0.0000
     19 H9         3.6426    5.4396    2.9223 H         1 RES1    0.0000
     20 C6         4.8284    7.5294    1.9559 C.3       1 RES1    0.0000
     21 H10        5.6889    7.1100    2.1121 H         1 RES1    0.0000
     22 H11        4.9598    8.4690    1.7517 H         1 RES1    0.0000
     23 H12        4.3874    7.0956    1.2102 H         1 RES1    0.0000
     24 C7         3.9214    9.2354    4.5397 C.2       1 RES1    0.0000
     25 C8         4.2564   10.2785    5.4858 C.2       1 RES1    0.0000
     26 C9         3.5150   11.4068    5.8736 C.2       1 RES1    0.0000
     27 H13        2.6655   11.6208    5.5322 H         1 RES1    0.0000
     28 C10        6.2561   12.0636    7.9047 C.3       1 RES1    0.0000
     29 H14        7.0473   11.5038    7.9547 H         1 RES1    0.0000
     30 H15        5.8458   12.1248    8.7816 H         1 RES1    0.0000
     31 H16        6.5072   12.9510    7.6027 H         1 RES1    0.0000
     32 C11        5.4283   10.3752    6.2158 C.2       1 RES1    0.0000
     33 C12        6.6285    9.5040    6.2633 C.3       1 RES1    0.0000
     34 H17        7.2688    9.8694    6.8924 H         1 RES1    0.0000
     35 H18        7.0307    9.4608    5.3802 H         1 RES1    0.0000
     36 H19        6.3697    8.6130    6.5445 H         1 RES1    0.0000
     37 N5         4.7427   13.7524   11.3042 N.pl3     2 RES2    0.0000
     38 C13        5.7880   14.4092   12.1018 C.3       2 RES2    0.0000
     39 O2         4.2219   14.2771   10.2844 O.2       2 RES2    0.0000
     40 N6         5.1030   12.2315   12.8281 N.2       2 RES2    0.0000
     41 C14        6.9374   14.6916   11.1769 C.3       2 RES2    0.0000
     42 H20        6.6844   15.3846   10.5479 H         2 RES2    0.0000
     43 H21        7.1684   13.8834   10.6937 H         2 RES2    0.0000
     44 H22        7.7029   14.9886   11.6956 H         2 RES2    0.0000
     45 N7         1.7327   10.9710    9.8422 N.2       2 RES2    0.0000
     46 C15        5.2121   15.7176   12.5996 C.3       2 RES2    0.0000
     47 H23        5.1169   16.3332   11.8539 H         2 RES2    0.0000
     48 H24        5.8075   16.1028   13.2619 H         2 RES2    0.0000
     49 H25        4.3429   15.5574   12.9995 H         2 RES2    0.0000
     50 C16        6.0115   13.3281   13.1753 C.3       2 RES2    0.0000
     51 N8         1.7781   10.2445   11.0101 N.pl3     2 RES2    0.0000
     52 C17        7.3860   12.7368   13.2015 C.3       2 RES2    0.0000
     53 H26        7.4363   12.0672   13.9014 H         2 RES2    0.0000
     54 H27        8.0354   13.4352   13.3744 H         2 RES2    0.0000
     55 H28        7.5769   12.3246   12.3455 H         2 RES2    0.0000
     56 C18        5.6446   13.7754   14.5763 C.3       2 RES2    0.0000
     57 H29        5.8029   13.0500   15.1991 H         2 RES2    0.0000
     58 H30        4.7076   14.0256   14.6013 H         2 RES2    0.0000
     59 H31        6.1890   14.5404   14.8241 H         2 RES2    0.0000
     60 C19        4.4030   12.5257   11.8204 C.2       2 RES2    0.0000
     61 C20        3.3387   11.7416   11.2365 C.2       2 RES2    0.0000
     62 C21        2.6791   11.8656    9.9988 C.2       2 RES2    0.0000
     63 H32        2.8925   12.5190    9.3565 H         2 RES2    0.0000
     64 C22        0.7780    9.1926   11.2186 C.3       2 RES2    0.0000
     65 H33        0.9335    8.7642   12.0747 H         2 RES2    0.0000
     66 H34        0.8495    8.5356   10.5083 H         2 RES2    0.0000
     67 H35       -0.1089    9.5850   11.2082 H         2 RES2    0.0000
     68 C23        2.7122   10.6650   11.8537 C.2       2 RES2    0.0000
     69 C24        2.9125   10.0314   13.1915 C.3       2 RES2    0.0000
     70 H36        2.3030    9.2826   13.2890 H         2 RES2    0.0000
     71 H37        2.7375   10.6830   13.8889 H         2 RES2    0.0000
     72 H38        3.8269    9.7146   13.2661 H         2 RES2    0.0000
@<TRIPOS>BOND
     1    1    2 1
     2    3    1 1
     3    4   15 1
     4    5    3 1
     5    6    5 1
     6    7    5 1
     7    8    5 1
     8    9   10 1
     9   10   26 2
    10   11    3 1
    11   12   11 1
    12   13   11 1
    13   14   11 1
    14   15    3 1
    15   16   15 1
    16   17   16 1
    17   18   16 1
    18   19   16 1
    19   20   15 1
    20   21   20 1
    21   22   20 1
    22   23   20 1
    23   24    1 1
    24   25   24 1
    25   26   25 1
    26   27   26 1
    27   28    9 1
    28   29   28 1
    29   30   28 1
    30   31   28 1
    31   32    9 1
    32   33   32 1
    33   34   33 1
    34   35   33 1
    35   36   33 1
    36   37   38 1
    37   38   41 1
    38   39   37 1
    39   40   50 1
    40   41   42 1
    41   43   41 1
    42   44   41 1
    43   45   51 1
    44   46   38 1
    45   47   46 1
    46   48   46 1
    47   49   46 1
    48   50   38 1
    49   51   64 1
    50   52   50 1
    51   53   52 1
    52   54   52 1
    53   55   52 1
    54   56   50 1
    55   57   56 1
    56   58   56 1
    57   59   56 1
    58   60   37 1
    59   61   60 1
    60   62   45 2
    61   63   62 1
    62   64   65 1
    63   66   64 1
    64   67   64 1
    65   68   51 1
    66   69   68 1
    67   70   69 1
    68   71   69 1
    69   72   69 1
    70    4   24 2
    71   25   32 2
    72   40   60 2
    73   61   62 1
    74   61   68 2
@<TRIPOS>SUBSTRUCTURE
     1 RES1 1
     2 RES2 37

@<TRIPOS>CRYSIN
   7.1590   18.0000   20.9000  90.0000  94.7180  90.0000  14 1

