# MOL2 file generated by ConQuest
# Please check atom types

@<TRIPOS>MOLECULE
UHOYEX
    28    31     1
SMALL
NO_CHARGES
****
Generated from CSD

@<TRIPOS>ATOM
      1 O1         0.4092    1.4131    1.1109 O.3       1 RES1    0.0000
      2 N1         0.4177    1.7074   -0.2567 N.2       1 RES1    0.0000
      3 N2         1.5580    0.7869    1.4796 N.2       1 RES1    0.0000
      4 N3         3.5163    0.0505    0.5414 N.2       1 RES1    0.0000
      5 C1         2.2696    0.6787    0.3868 C.2       1 RES1    0.0000
      6 C2         1.5576    1.2641   -0.7207 C.2       1 RES1    0.0000
      7 C3         1.9363    1.3991   -2.1338 C.3       1 RES1    0.0000
      8 H1         2.8891    1.1879   -2.3507 H         1 RES1    0.0000
      9 C4         0.9265    1.0586   -3.2035 C.3       1 RES1    0.0000
     10 H2         1.2587    0.6274   -4.0296 H         1 RES1    0.0000
     11 H3         0.0284    0.7622   -2.9113 H         1 RES1    0.0000
     12 C5         1.2959    2.4765   -2.9680 C.3       1 RES1    0.0000
     13 H4         0.6263    3.0603   -2.5305 H         1 RES1    0.0000
     14 H5         1.8566    2.9256   -3.6487 H         1 RES1    0.0000
     15 O1D        7.2562   -1.4131   -1.1109 O.3       1 RES1    0.0000
     16 N1D        7.2477   -1.7074    0.2567 N.2       1 RES1    0.0000
     17 N2D        6.1074   -0.7869   -1.4796 N.2       1 RES1    0.0000
     18 N3D        4.1491   -0.0505   -0.5414 N.2       1 RES1    0.0000
     19 C1D        5.3958   -0.6787   -0.3868 C.2       1 RES1    0.0000
     20 C2D        6.1078   -1.2641    0.7207 C.2       1 RES1    0.0000
     21 C3D        5.7291   -1.3991    2.1338 C.3       1 RES1    0.0000
     22 H1D        4.7763   -1.1879    2.3507 H         1 RES1    0.0000
     23 C4D        6.7389   -1.0586    3.2035 C.3       1 RES1    0.0000
     24 H2D        6.4067   -0.6274    4.0296 H         1 RES1    0.0000
     25 H3D        7.6370   -0.7622    2.9113 H         1 RES1    0.0000
     26 C5D        6.3695   -2.4765    2.9680 C.3       1 RES1    0.0000
     27 H4D        7.0391   -3.0603    2.5305 H         1 RES1    0.0000
     28 H5D        5.8088   -2.9256    3.6487 H         1 RES1    0.0000
@<TRIPOS>BOND
     1    1    2 1
     2    2    6 2
     3    3    1 1
     4    4    5 1
     5    5    3 2
     6    6    5 1
     7    7    6 1
     8    8    7 1
     9    9    7 1
    10   10    9 1
    11   11    9 1
    12   12    7 1
    13   13   12 1
    14   14   12 1
    15   15   16 1
    16   16   20 2
    17   17   15 1
    18   18    4 2
    19   19   17 2
    20   20   19 1
    21   21   20 1
    22   22   21 1
    23   23   21 1
    24   24   23 1
    25   25   23 1
    26   26   21 1
    27   27   26 1
    28   28   26 1
    29    9   12 1
    30   18   19 1
    31   23   26 1
@<TRIPOS>SUBSTRUCTURE
     1 RES1 1

@<TRIPOS>CRYSIN
   7.6654    9.6969   15.2346  90.0000  90.0000  90.0000  61 1

