# MOL2 file generated by ConQuest
# Please check atom types

@<TRIPOS>MOLECULE
UHUGUZ
    40    42     1
SMALL
NO_CHARGES
****
Generated from CSD

@<TRIPOS>ATOM
      1 O1         6.1725    6.2913    9.1454 O.3       1 RES1    0.0000
      2 O2         5.9961    8.5883    8.9620 O.3       1 RES1    0.0000
      3 O3         6.9550    8.4455    6.9153 O.3       1 RES1    0.0000
      4 O4         5.4298    5.2542    6.2380 O.3       1 RES1    0.0000
      5 O5         6.9421    4.0766    7.4363 O.3       1 RES1    0.0000
      6 O6         1.1333    8.8525    9.2564 O.2       1 RES1    0.0000
      7 O7         1.3783    6.7510    8.8099 O.2       1 RES1    0.0000
      8 N1         1.8304    7.8619    9.0489 N.pl3     1 RES1    0.0000
      9 C1         5.5598    7.3488    8.4414 C.3       1 RES1    0.0000
     10 C2         5.9641    7.4221    6.9402 C.3       1 RES1    0.0000
     11 C3         6.5338    6.1383    6.3948 C.3       1 RES1    0.0000
     12 C4         7.4878    5.4008    7.3352 C.3       1 RES1    0.0000
     13 C5         7.5157    6.0249    8.7108 C.3       1 RES1    0.0000
     14 C6         6.5736    9.3930    7.9220 C.3       1 RES1    0.0000
     15 C7         7.8015   10.0721    8.4427 C.3       1 RES1    0.0000
     16 C8         5.5280   10.3630    7.3974 C.3       1 RES1    0.0000
     17 C9         5.9233    3.9292    6.4518 C.3       1 RES1    0.0000
     18 C10        4.8100    3.0966    7.0257 C.3       1 RES1    0.0000
     19 C11        6.4770    3.3600    5.1682 C.3       1 RES1    0.0000
     20 C12        4.0800    7.1495    8.5942 C.2       1 RES1    0.0000
     21 C13        3.2763    8.0623    9.0631 C.2       1 RES1    0.0000
     22 H1         5.1386    7.7302    6.4376 H         1 RES1    0.0000
     23 H2         6.9510    6.2299    5.5309 H         1 RES1    0.0000
     24 H3         8.4448    5.2794    6.9946 H         1 RES1    0.0000
     25 H4         7.9070    5.3710    9.3520 H         1 RES1    0.0000
     26 H5         8.0266    6.9171    8.7043 H         1 RES1    0.0000
     27 H6         8.2257   10.6505    7.6940 H         1 RES1    0.0000
     28 H7         7.5286   10.6848    9.1966 H         1 RES1    0.0000
     29 H8         8.4647    9.3907    8.7782 H         1 RES1    0.0000
     30 H9         4.7402    9.8488    7.0373 H         1 RES1    0.0000
     31 H10        5.2183   10.9826    8.1862 H         1 RES1    0.0000
     32 H11        5.9452   10.9139    6.6837 H         1 RES1    0.0000
     33 H12        4.0730    3.0508    6.3728 H         1 RES1    0.0000
     34 H13        5.1485    2.1644    7.2187 H         1 RES1    0.0000
     35 H14        4.4813    3.4929    7.8236 H         1 RES1    0.0000
     36 H15        6.8017    2.3820    5.3314 H         1 RES1    0.0000
     37 H16        5.7859    3.3555    4.5076 H         1 RES1    0.0000
     38 H17        7.2697    3.9281    4.8547 H         1 RES1    0.0000
     39 H18        3.7344    6.2643    8.3028 H         1 RES1    0.0000
     40 H19        3.5154    8.8983    9.3779 H         1 RES1    0.0000
@<TRIPOS>BOND
     1    1    9 1
     2    2    9 1
     3    3   10 1
     4    4   11 1
     5    5   12 1
     6    6    8 2
     7    7    8 2
     8    8   21 1
     9    9   10 1
    10   10   11 1
    11   11   12 1
    12   12   13 1
    13   13    1 1
    14   14    2 1
    15   15   14 1
    16   16   14 1
    17   17    4 1
    18   18   17 1
    19   19   17 1
    20   20    9 1
    21   21   20 2
    22   22   10 1
    23   23   11 1
    24   24   12 1
    25   25   13 1
    26   26   13 1
    27   27   15 1
    28   28   15 1
    29   29   15 1
    30   30   16 1
    31   31   16 1
    32   32   16 1
    33   33   18 1
    34   34   18 1
    35   35   18 1
    36   36   19 1
    37   37   19 1
    38   38   19 1
    39   39   20 1
    40   40   21 1
    41    3   14 1
    42    5   17 1
@<TRIPOS>SUBSTRUCTURE
     1 RES1 1

@<TRIPOS>CRYSIN
   9.9585   11.4521   12.9529  90.0000  90.0000  90.0000  19 1

