# MOL2 file generated by ConQuest
# Please check atom types

@<TRIPOS>MOLECULE
UHUHEK
    56    60     1
SMALL
NO_CHARGES
****
Generated from CSD

@<TRIPOS>ATOM
      1 O1        -3.3777    4.3715   10.2361 O.3       1 RES1    0.0000
      2 O2        -3.6957    2.2776   11.1606 O.3       1 RES1    0.0000
      3 O3        -5.5054    1.9060    9.8338 O.3       1 RES1    0.0000
      4 O4        -4.7503    4.3977    7.3863 O.3       1 RES1    0.0000
      5 O5        -5.4384    6.0982    8.6831 O.3       1 RES1    0.0000
      6 O6        -1.6783    3.2104    8.2508 O.3       1 RES1    0.0000
      7 O7        -0.1112    2.0581   12.5337 O.2       1 RES1    0.0000
      8 O8        -1.1715    0.6295   11.2893 O.2       1 RES1    0.0000
      9 O9         0.4852    8.2875    8.4058 O.3       1 RES1    0.0000
     10 N1        -0.7354    1.7608   11.5117 N.pl3     1 RES1    0.0000
     11 C1        -3.4190    2.9875    9.9587 C.3       1 RES1    0.0000
     12 C2        -4.5893    2.6220    9.0117 C.3       1 RES1    0.0000
     13 C3        -5.4071    3.7726    8.4795 C.3       1 RES1    0.0000
     14 C4        -5.6355    4.9214    9.4677 C.3       1 RES1    0.0000
     15 C5        -4.6562    4.8978   10.6384 C.3       1 RES1    0.0000
     16 C6        -4.8209    1.3884   10.9770 C.3       1 RES1    0.0000
     17 C7        -5.7464    1.5309   12.1676 C.3       1 RES1    0.0000
     18 C8        -4.3472   -0.0017   10.7358 C.3       1 RES1    0.0000
     19 C9        -5.2986    5.7109    7.3163 C.3       1 RES1    0.0000
     20 C10       -4.3370    6.6394    6.6429 C.3       1 RES1    0.0000
     21 C11       -6.6595    5.7039    6.6329 C.3       1 RES1    0.0000
     22 C12       -2.0386    2.5678    9.4865 C.3       1 RES1    0.0000
     23 C13       -0.9641    2.8065   10.5147 C.2       1 RES1    0.0000
     24 C14       -0.2162    3.8941   10.5322 C.2       1 RES1    0.0000
     25 C15       -0.3759    4.8594    9.4652 C.ar      1 RES1    0.0000
     26 C16        0.1823    6.1446    9.5115 C.ar      1 RES1    0.0000
     27 C17        0.0116    6.9918    8.4557 C.ar      1 RES1    0.0000
     28 C18       -0.6576    6.5695    7.3088 C.ar      1 RES1    0.0000
     29 C19       -1.2063    5.3175    7.2526 C.ar      1 RES1    0.0000
     30 C20       -1.1115    4.4799    8.3383 C.ar      1 RES1    0.0000
     31 C21        1.4447    8.6573    9.3890 C.3       1 RES1    0.0000
     32 H1        -4.1800    2.0633    8.1959 H         1 RES1    0.0000
     33 H2        -6.3430    3.4010    8.2334 H         1 RES1    0.0000
     34 H3        -6.6308    4.9048    9.8700 H         1 RES1    0.0000
     35 H4        -4.4718    5.8316   10.8945 H         1 RES1    0.0000
     36 H5        -4.9771    4.2928   11.3568 H         1 RES1    0.0000
     37 H6        -6.6176    0.8982   12.0018 H         1 RES1    0.0000
     38 H7        -5.2148    1.1937   13.0567 H         1 RES1    0.0000
     39 H8        -6.0947    2.5502   12.3452 H         1 RES1    0.0000
     40 H9        -3.8133   -0.3416   11.6231 H         1 RES1    0.0000
     41 H10       -5.2162   -0.6372   10.5683 H         1 RES1    0.0000
     42 H11       -3.6795   -0.1057    9.8775 H         1 RES1    0.0000
     43 H12       -4.2107    6.3245    5.6073 H         1 RES1    0.0000
     44 H13       -4.7481    7.6494    6.6674 H         1 RES1    0.0000
     45 H14       -3.3638    6.6437    7.1319 H         1 RES1    0.0000
     46 H15       -7.0699    6.7157    6.6576 H         1 RES1    0.0000
     47 H16       -6.5325    5.3908    5.5976 H         1 RES1    0.0000
     48 H17       -7.3595    5.0297    7.1238 H         1 RES1    0.0000
     49 H18       -1.9579    1.6437    9.3578 H         1 RES1    0.0000
     50 H19        0.4359    4.0130   11.2443 H         1 RES1    0.0000
     51 H20        0.6670    6.3911   10.3073 H         1 RES1    0.0000
     52 H21       -0.5949    7.2217    6.4842 H         1 RES1    0.0000
     53 H22       -1.6027    5.0884    6.5092 H         1 RES1    0.0000
     54 H23        0.9870    8.5120   10.3678 H         1 RES1    0.0000
     55 H24        2.2993    7.9912    9.2840 H         1 RES1    0.0000
     56 H25        1.8180    9.6822    9.3502 H         1 RES1    0.0000
@<TRIPOS>BOND
     1    1   11 1
     2    2   11 1
     3    3   12 1
     4    4   13 1
     5    5   14 1
     6    6   22 1
     7    7   10 2
     8    8   10 2
     9    9   27 1
    10   10   23 1
    11   11   12 1
    12   12   13 1
    13   13   14 1
    14   14   15 1
    15   15    1 1
    16   16    2 1
    17   17   16 1
    18   18   16 1
    19   19    4 1
    20   20   19 1
    21   21   19 1
    22   22   11 1
    23   23   22 1
    24   24   23 2
    25   25   24 1
    26   26   25 ar
    27   27   26 ar
    28   28   27 ar
    29   29   28 ar
    30   30    6 1
    31   31    9 1
    32   32   12 1
    33   33   13 1
    34   34   14 1
    35   35   15 1
    36   36   15 1
    37   37   17 1
    38   38   17 1
    39   39   17 1
    40   40   18 1
    41   41   18 1
    42   42   18 1
    43   43   20 1
    44   44   20 1
    45   45   20 1
    46   46   21 1
    47   47   21 1
    48   48   21 1
    49   49   22 1
    50   50   24 1
    51   51   26 1
    52   52   28 1
    53   53   29 1
    54   54   31 1
    55   55   31 1
    56   56   31 1
    57    3   16 1
    58    5   19 1
    59   25   30 ar
    60   29   30 ar
@<TRIPOS>SUBSTRUCTURE
     1 RES1 1

@<TRIPOS>CRYSIN
   9.4380    8.7430   13.0330  90.0000 106.5400  90.0000   4 1

