# MOL2 file generated by ConQuest
# Please check atom types

@<TRIPOS>MOLECULE
UHULOZ
    33    35     1
SMALL
NO_CHARGES
****
Generated from CSD

@<TRIPOS>ATOM
      1 O1         3.3105    3.7397   -6.9152 O.2       1 RES1    0.0000
      2 N1         3.9613    1.4417   -0.0345 N.2       1 RES1    0.0000
      3 N2         3.8786    9.3676    0.1930 N.pl3     1 RES1    0.0000
      4 C1         3.0297    7.2618    1.1317 C.ar      1 RES1    0.0000
      5 H1         2.4979    7.7446    1.7230 H         1 RES1    0.0000
      6 O2         3.1471    9.9702    0.9518 O.2       1 RES1    0.0000
      7 C2         3.9938    1.5726   -2.8394 C.ar      1 RES1    0.0000
      8 H2         4.2599    0.8019   -2.3901 H         1 RES1    0.0000
      9 C3         3.7160    2.7291   -2.1083 C.ar      1 RES1    0.0000
     10 C4         3.8759    1.5364   -4.2076 C.ar      1 RES1    0.0000
     11 H3         4.0317    0.7477   -4.6750 H         1 RES1    0.0000
     12 C5         3.8468    7.8945    0.2190 C.ar      1 RES1    0.0000
     13 N3         3.9160    3.0102    1.5148 N.pl3     1 RES1    0.0000
     14 H4         3.9136    3.3732    2.2951 H         1 RES1    0.0000
     15 C6         3.8308    3.6727    0.3135 C.2       1 RES1    0.0000
     16 O3         3.5281    1.5936   -6.9062 O.2       1 RES1    0.0000
     17 C7         3.8272    5.1482    0.2744 C.ar      1 RES1    0.0000
     18 C8         3.2171    3.8544   -4.1816 C.ar      1 RES1    0.0000
     19 H5         2.9532    4.6183   -4.6400 H         1 RES1    0.0000
     20 C9         4.6484    5.8316   -0.6168 C.ar      1 RES1    0.0000
     21 H6         5.1993    5.3593   -1.1990 H         1 RES1    0.0000
     22 C10        3.0343    5.8719    1.1498 C.ar      1 RES1    0.0000
     23 H7         2.4923    5.4236    1.7575 H         1 RES1    0.0000
     24 C11        3.2895    3.8523   -2.8128 C.ar      1 RES1    0.0000
     25 H8         3.0548    4.6217   -2.3449 H         1 RES1    0.0000
     26 O4         4.6435    9.9096   -0.6026 O.2       1 RES1    0.0000
     27 N4         3.4503    2.6624   -6.3177 N.pl3     1 RES1    0.0000
     28 C12        4.0017    1.6873    1.2449 C.2       1 RES1    0.0000
     29 H9         4.0726    1.0286    1.8979 H         1 RES1    0.0000
     30 C13        3.5194    2.6827   -4.8742 C.ar      1 RES1    0.0000
     31 C14        4.6672    7.2090   -0.6428 C.ar      1 RES1    0.0000
     32 H10        5.2126    7.6702   -1.2364 H         1 RES1    0.0000
     33 C15        3.8545    2.6820   -0.6564 C.2       1 RES1    0.0000
@<TRIPOS>BOND
     1    1   27 2
     2    2   28 2
     3    3    6 2
     4    4    5 1
     5    7    8 1
     6    9    7 ar
     7   10    7 ar
     8   11   10 1
     9   12    3 1
    10   13   14 1
    11   15   13 1
    12   16   27 2
    13   17   15 1
    14   18   19 1
    15   20   17 ar
    16   21   20 1
    17   22    4 ar
    18   23   22 1
    19   24    9 ar
    20   25   24 1
    21   26    3 2
    22   27   30 1
    23   28   13 1
    24   29   28 1
    25   30   10 ar
    26   31   12 ar
    27   32   31 1
    28   33    2 1
    29    4   12 ar
    30    9   33 1
    31   15   33 2
    32   17   22 ar
    33   18   24 ar
    34   18   30 ar
    35   20   31 ar
@<TRIPOS>SUBSTRUCTURE
     1 RES1 1

@<TRIPOS>CRYSIN
   6.8450   33.8340    6.4260  90.0000 118.2900  90.0000   9 1

