# MOL2 file generated by ConQuest
# Please check atom types

@<TRIPOS>MOLECULE
UHUMER
    98   100     2
SMALL
NO_CHARGES
****
Generated from CSD

@<TRIPOS>ATOM
      1 O1         4.8029    5.0226   13.4734 O.3       1 RES1    0.0000
      2 O2         5.1830    7.9668   15.2324 O.3       1 RES1    0.0000
      3 O3         3.5624    3.5669   14.6464 O.2       1 RES1    0.0000
      4 O4         2.9101    4.0662    7.6346 O.2       1 RES1    0.0000
      5 O5         4.4205    5.2209    8.6675 O.2       1 RES1    0.0000
      6 O6        -0.2344    1.4086   10.1378 O.2       1 RES1    0.0000
      7 N1         3.4740    4.4466    8.6567 N.pl3     1 RES1    0.0000
      8 O7        -0.3661    1.7194   12.2768 O.2       1 RES1    0.0000
      9 N2         0.1707    1.8781   11.1900 N.pl3     1 RES1    0.0000
     10 C1         3.8487    4.1053   13.6122 C.2       1 RES1    0.0000
     11 C2         6.6505    6.3324   14.2736 C.3       1 RES1    0.0000
     12 C3         3.6479    4.2920   11.1032 C.ar      1 RES1    0.0000
     13 H1         4.4194    4.8456   11.0718 H         1 RES1    0.0000
     14 C4         7.4229    5.9180   13.0069 C.ar      1 RES1    0.0000
     15 C5         3.1666    3.8132   12.3120 C.ar      1 RES1    0.0000
     16 C6         2.9775    3.9439    9.9459 C.ar      1 RES1    0.0000
     17 C7         1.3991    2.6983   11.1590 C.ar      1 RES1    0.0000
     18 C8         5.8964    7.6544   14.0542 C.3       1 RES1    0.0000
     19 H2         6.5387    8.3786   13.8445 H         1 RES1    0.0000
     20 H3         5.2699    7.5635   13.2937 H         1 RES1    0.0000
     21 C9         1.8477    3.1450    9.9374 C.ar      1 RES1    0.0000
     22 H4         1.4041    2.9174    9.1296 H         1 RES1    0.0000
     23 C10        2.0249    3.0032   12.3482 C.ar      1 RES1    0.0000
     24 H5         1.6890    2.6720   13.1736 H         1 RES1    0.0000
     25 C11        7.6853    5.9316   16.5775 C.2       1 RES1    0.0000
     26 H6         7.0282    5.2719   16.7664 H         1 RES1    0.0000
     27 C12        5.6519    5.2294   14.6348 C.3       1 RES1    0.0000
     28 H7         6.1315    4.3931   14.8619 H         1 RES1    0.0000
     29 H8         5.1066    5.5020   15.4144 H         1 RES1    0.0000
     30 C13        7.6267    6.5557   15.4182 C.2       1 RES1    0.0000
     31 H9         8.2784    7.2324   15.2789 H         1 RES1    0.0000
     32 C14        4.6498    9.2846   15.1921 C.3       1 RES1    0.0000
     33 H10        4.0285    9.3627   14.4381 H         1 RES1    0.0000
     34 H11        5.3800    9.9290   15.0816 H         1 RES1    0.0000
     35 H12        4.1745    9.4697   16.0287 H         1 RES1    0.0000
     36 C15        8.6189    5.2082   13.1232 C.ar      1 RES1    0.0000
     37 H13        8.9805    5.0477   13.9869 H         1 RES1    0.0000
     38 C16        6.9282    6.1396   11.7218 C.ar      1 RES1    0.0000
     39 H14        6.1251    6.6346   11.6071 H         1 RES1    0.0000
     40 C17        7.5934    5.6463   10.6115 C.ar      1 RES1    0.0000
     41 H15        7.2303    5.7898    9.7455 H         1 RES1    0.0000
     42 C18        9.2911    4.7327   12.0090 C.ar      1 RES1    0.0000
     43 H16       10.1073    4.2581   12.1133 H         1 RES1    0.0000
     44 C19        8.7745    4.9484   10.7474 C.ar      1 RES1    0.0000
     45 H17        9.2291    4.6189    9.9806 H         1 RES1    0.0000
     46 C20        8.7354    6.2050   17.6169 C.3       1 RES1    0.0000
     47 H18        9.3635    6.8758   17.2777 H         1 RES1    0.0000
     48 H19        9.2187    5.3772   17.8199 H         1 RES1    0.0000
     49 H20        8.3080    6.5412   18.4324 H         1 RES1    0.0000
     50 O8        -3.3239    3.4940    3.5106 O.3       2 RES2    0.0000
     51 O9        -1.9466    4.7658    2.2780 O.2       2 RES2    0.0000
     52 O10       -2.6662    2.9318    8.2250 O.2       2 RES2    0.0000
     53 O11       -5.9369    2.1490    0.4382 O.3       2 RES2    0.0000
     54 O12       -1.1806    4.0976    9.2759 O.2       2 RES2    0.0000
     55 O13        1.9341    6.7280    4.6351 O.2       2 RES2    0.0000
     56 O14        1.9428    6.8061    6.8015 O.2       2 RES2    0.0000
     57 N3         1.4706    6.4495    5.7353 N.pl3     2 RES2    0.0000
     58 N4        -1.7428    3.7291    8.2496 N.pl3     2 RES2    0.0000
     59 C21       -1.5328    4.5145    4.6140 C.ar      2 RES2    0.0000
     60 C22       -0.4091    5.3398    4.5792 C.ar      2 RES2    0.0000
     61 H21       -0.1073    5.7151    3.7610 H         2 RES2    0.0000
     62 C23       -1.9673    3.9804    5.8178 C.ar      2 RES2    0.0000
     63 H22       -2.7298    3.4141    5.8473 H         2 RES2    0.0000
     64 C24       -1.2745    4.2844    6.9686 C.ar      2 RES2    0.0000
     65 C25       -2.2705    4.2827    3.3353 C.2       2 RES2    0.0000
     66 C26        0.2557    5.5996    5.7622 C.ar      2 RES2    0.0000
     67 C27       -5.1654    2.0089    5.2600 C.ar      2 RES2    0.0000
     68 H23       -4.4063    1.4519    5.1336 H         2 RES2    0.0000
     69 C28       -4.2821    3.4209    2.4249 C.3       2 RES2    0.0000
     70 H24       -3.8161    3.2341    1.5716 H         2 RES2    0.0000
     71 H25       -4.7632    4.2819    2.3369 H         2 RES2    0.0000
     72 C29       -5.8381    2.5200    4.1482 C.ar      2 RES2    0.0000
     73 C30       -0.1595    5.1012    6.9784 C.ar      2 RES2    0.0000
     74 H26        0.2988    5.3092    7.7844 H         2 RES2    0.0000
     75 C31       -6.9707    3.2995    4.3863 C.ar      2 RES2    0.0000
     76 H27       -7.4549    3.6527    3.6494 H         2 RES2    0.0000
     77 C32       -5.2736    2.2933    2.7409 C.3       2 RES2    0.0000
     78 C33       -6.7092    3.0847    6.7560 C.ar      2 RES2    0.0000
     79 H28       -6.9950    3.2834    7.6403 H         2 RES2    0.0000
     80 C34       -7.4036    3.5695    5.6740 C.ar      2 RES2    0.0000
     81 H29       -8.1839    4.0934    5.8096 H         2 RES2    0.0000
     82 C35       -6.4300    2.3927    1.7092 C.3       2 RES2    0.0000
     83 H30       -7.1328    1.7304    1.9285 H         2 RES2    0.0000
     84 H31       -6.8346    3.2952    1.7449 H         2 RES2    0.0000
     85 C36       -4.6471    0.9314    2.6210 C.2       2 RES2    0.0000
     86 H32       -5.1617    0.2106    2.9648 H         2 RES2    0.0000
     87 C37       -5.5908    2.3035    6.5407 C.ar      2 RES2    0.0000
     88 H33       -5.1066    1.9639    7.2851 H         2 RES2    0.0000
     89 C38       -3.4853    0.6037    2.1054 C.2       2 RES2    0.0000
     90 H34       -2.9212    1.3127    1.8204 H         2 RES2    0.0000
     91 C39       -6.9748    2.2526   -0.5226 C.3       2 RES2    0.0000
     92 H35       -6.6181    2.0454   -1.4121 H         2 RES2    0.0000
     93 H36       -7.3340    3.1645   -0.5182 H         2 RES2    0.0000
     94 H37       -7.6885    1.6200   -0.3020 H         2 RES2    0.0000
     95 C40       -2.9800   -0.7837    1.9314 C.3       2 RES2    0.0000
     96 H38       -2.8260   -0.9586    0.9797 H         2 RES2    0.0000
     97 H39       -3.6410   -1.4188    2.2768 H         2 RES2    0.0000
     98 H40       -2.1376   -0.8890    2.4227 H         2 RES2    0.0000
@<TRIPOS>BOND
     1    1   10 1
     2    2   18 1
     3    3   10 2
     4    4    7 2
     5    5    7 2
     6    6    9 2
     7    7   16 1
     8    8    9 2
     9    9   17 1
    10   10   15 1
    11   11   14 1
    12   12   13 1
    13   14   36 ar
    14   15   12 ar
    15   16   12 ar
    16   17   21 ar
    17   18   11 1
    18   19   18 1
    19   20   18 1
    20   21   16 ar
    21   22   21 1
    22   23   15 ar
    23   24   23 1
    24   25   26 1
    25   27    1 1
    26   28   27 1
    27   29   27 1
    28   30   11 1
    29   31   30 1
    30   32    2 1
    31   33   32 1
    32   34   32 1
    33   35   32 1
    34   36   37 1
    35   38   14 ar
    36   39   38 1
    37   40   38 ar
    38   41   40 1
    39   42   36 ar
    40   43   42 1
    41   44   40 ar
    42   45   44 1
    43   46   25 1
    44   47   46 1
    45   48   46 1
    46   49   46 1
    47   50   65 1
    48   51   65 2
    49   52   58 2
    50   53   82 1
    51   54   58 2
    52   55   57 2
    53   56   57 2
    54   57   66 1
    55   58   64 1
    56   59   60 ar
    57   60   61 1
    58   62   59 ar
    59   63   62 1
    60   64   62 ar
    61   65   59 1
    62   66   60 ar
    63   67   68 1
    64   69   50 1
    65   70   69 1
    66   71   69 1
    67   72   67 ar
    68   73   64 ar
    69   74   73 1
    70   75   72 ar
    71   76   75 1
    72   77   69 1
    73   78   79 1
    74   80   75 ar
    75   81   80 1
    76   82   77 1
    77   83   82 1
    78   84   82 1
    79   85   77 1
    80   86   85 1
    81   87   67 ar
    82   88   87 1
    83   89   85 2
    84   90   89 1
    85   91   53 1
    86   92   91 1
    87   93   91 1
    88   94   91 1
    89   95   89 1
    90   96   95 1
    91   97   95 1
    92   98   95 1
    93   11   27 1
    94   17   23 ar
    95   25   30 2
    96   42   44 ar
    97   66   73 ar
    98   72   77 1
    99   78   80 ar
   100   78   87 ar
@<TRIPOS>SUBSTRUCTURE
     1 RES1 1
     2 RES2 50

@<TRIPOS>CRYSIN
  13.1111    8.4907   17.8251  90.0000 105.7290  90.0000   4 1

