# MOL2 file generated by ConQuest
# Please check atom types

@<TRIPOS>MOLECULE
UHURAS
    31    33     1
SMALL
NO_CHARGES
****
Generated from CSD

@<TRIPOS>ATOM
      1 C1         5.0346    0.1865    4.1740 C.ar      1 RES1    0.0000
      2 C2         4.4843    1.4296    3.9613 C.ar      1 RES1    0.0000
      3 H1         4.3370    1.7467    3.0992 H         1 RES1    0.0000
      4 C3         4.1572    2.1916    5.0642 C.ar      1 RES1    0.0000
      5 H2         3.7863    3.0354    4.9468 H         1 RES1    0.0000
      6 C4         4.3753    1.7119    6.3418 C.ar      1 RES1    0.0000
      7 C5         4.9374    0.4620    6.5148 C.ar      1 RES1    0.0000
      8 H3         5.0835    0.1381    7.3748 H         1 RES1    0.0000
      9 C6         5.2835   -0.3121    5.4267 C.ar      1 RES1    0.0000
     10 H4         5.6748   -1.1484    5.5396 H         1 RES1    0.0000
     11 C7         3.9350    2.5039    7.5271 C.3       1 RES1    0.0000
     12 H5         2.9726    2.4677    7.7050 H         1 RES1    0.0000
     13 C8         4.6004    3.7240    8.0087 C.3       1 RES1    0.0000
     14 H6         4.0076    4.3635    8.4545 H         1 RES1    0.0000
     15 C9         5.8277    4.3164    7.4309 C.ar      1 RES1    0.0000
     16 C10        6.9191    3.5443    7.0502 C.ar      1 RES1    0.0000
     17 H7         6.8649    2.6168    7.1007 H         1 RES1    0.0000
     18 C11        8.0757    4.1318    6.6008 C.ar      1 RES1    0.0000
     19 H8         8.7975    3.6118    6.3328 H         1 RES1    0.0000
     20 C12        8.1454    5.5016    6.5545 C.ar      1 RES1    0.0000
     21 C13        7.0791    6.3033    6.9060 C.ar      1 RES1    0.0000
     22 H9         7.1418    7.2301    6.8542 H         1 RES1    0.0000
     23 C14        5.9243    5.6990    7.3337 C.ar      1 RES1    0.0000
     24 H10        5.1918    6.2241    7.5630 H         1 RES1    0.0000
     25 N1         5.3654   -0.6450    3.0106 N.pl3     1 RES1    0.0000
     26 N2         9.4026    6.1227    6.1172 N.pl3     1 RES1    0.0000
     27 O1         6.0067   -1.6691    3.2023 O.2       1 RES1    0.0000
     28 O2         4.9784   -0.2946    1.9154 O.2       1 RES1    0.0000
     29 O3        10.3118    5.3946    5.7438 O.2       1 RES1    0.0000
     30 O4         9.4825    7.3351    6.1262 O.2       1 RES1    0.0000
     31 O5         4.7574    2.4691    8.6985 O.3       1 RES1    0.0000
@<TRIPOS>BOND
     1    1    2 ar
     2    2    3 1
     3    4    2 ar
     4    5    4 1
     5    6    4 ar
     6    7    6 ar
     7    8    7 1
     8    9    1 ar
     9   10    9 1
    10   11    6 1
    11   12   11 1
    12   13   11 1
    13   14   13 1
    14   15   13 1
    15   16   15 ar
    16   17   16 1
    17   18   16 ar
    18   19   18 1
    19   20   18 ar
    20   21   20 ar
    21   22   21 1
    22   23   15 ar
    23   24   23 1
    24   25    1 1
    25   26   20 1
    26   27   25 2
    27   28   25 2
    28   29   26 2
    29   30   26 2
    30   31   11 1
    31    7    9 ar
    32   13   31 1
    33   21   23 ar
@<TRIPOS>SUBSTRUCTURE
     1 RES1 1

@<TRIPOS>CRYSIN
   7.6000   21.9160    7.7710  90.0000  98.8290  90.0000  14 1

