# MOL2 file generated by ConQuest
# Please check atom types

@<TRIPOS>MOLECULE
UHUREW
    78    82     2
SMALL
NO_CHARGES
****
Generated from CSD

@<TRIPOS>ATOM
      1 C1         4.3633    8.5230   11.8903 C.3       1 RES1    0.0000
      2 H1         4.6642    9.2321   11.3165 H         1 RES1    0.0000
      3 H2         4.8700    8.5341   12.7056 H         1 RES1    0.0000
      4 H3         3.4329    8.6469   12.0908 H         1 RES1    0.0000
      5 C2         3.9899    7.1001   10.0094 C.ar      1 RES1    0.0000
      6 C3         3.2547    8.0717    9.3482 C.ar      1 RES1    0.0000
      7 H4         3.0860    8.8916    9.7531 H         1 RES1    0.0000
      8 C4         2.7801    7.8060    8.0872 C.ar      1 RES1    0.0000
      9 H5         2.2953    8.4551    7.6300 H         1 RES1    0.0000
     10 C5         3.0153    6.5834    7.4925 C.ar      1 RES1    0.0000
     11 C6         3.7205    5.5671    8.1529 C.ar      1 RES1    0.0000
     12 C7         4.2023    5.8578    9.4143 C.ar      1 RES1    0.0000
     13 H6         4.6800    5.2084    9.8778 H         1 RES1    0.0000
     14 C8         4.0247    4.2301    7.5554 C.3       1 RES1    0.0000
     15 H7         4.1931    4.2236    6.5895 H         1 RES1    0.0000
     16 C9         3.5114    2.9737    8.1236 C.3       1 RES1    0.0000
     17 H8         2.9009    3.0529    8.8869 H         1 RES1    0.0000
     18 C10        3.3447    1.7676    7.2503 C.ar      1 RES1    0.0000
     19 C11        4.4812    1.1757    6.7387 C.ar      1 RES1    0.0000
     20 H9         5.3128    1.5385    6.9437 H         1 RES1    0.0000
     21 C12        4.4146    0.0490    5.9228 C.ar      1 RES1    0.0000
     22 C13        3.1901   -0.5270    5.6208 C.ar      1 RES1    0.0000
     23 H10        3.1411   -1.2884    5.0885 H         1 RES1    0.0000
     24 C14        2.0509    0.0500    6.1241 C.ar      1 RES1    0.0000
     25 H11        1.2222   -0.3235    5.9252 H         1 RES1    0.0000
     26 C15        2.1166    1.1777    6.9207 C.ar      1 RES1    0.0000
     27 C16        5.6367   -1.4856    4.5561 C.3       1 RES1    0.0000
     28 H12        5.2807   -2.2730    4.9747 H         1 RES1    0.0000
     29 H13        6.5420   -1.6496    4.2829 H         1 RES1    0.0000
     30 H14        5.1045   -1.2640    3.7875 H         1 RES1    0.0000
     31 N1         2.5088    6.3915    6.1495 N.pl3     1 RES1    0.0000
     32 N2         0.8545    1.7373    7.3753 N.pl3     1 RES1    0.0000
     33 O1         4.5460    7.2676   11.2321 O.3       1 RES1    0.0000
     34 O2         2.2452    7.3761    5.4740 O.2       1 RES1    0.0000
     35 O3         2.3423    5.2679    5.7305 O.2       1 RES1    0.0000
     36 O4         4.8677    3.3805    8.3399 O.3       1 RES1    0.0000
     37 O5         5.6098   -0.4037    5.4808 O.3       1 RES1    0.0000
     38 O6         0.8527    2.8673    7.8287 O.2       1 RES1    0.0000
     39 O7        -0.1604    1.0614    7.2802 O.2       1 RES1    0.0000
     40 C17        0.7893   12.5358    4.1875 C.3       2 RES2    0.0000
     41 H15        0.5269   12.6209    3.2681 H         2 RES2    0.0000
     42 H16        0.2361   13.1004    4.7325 H         2 RES2    0.0000
     43 H17        0.6870   11.6222    4.4664 H         2 RES2    0.0000
     44 C18        3.0728   12.2520    3.6181 C.ar      2 RES2    0.0000
     45 C19        4.3806   12.6984    3.7706 C.ar      2 RES2    0.0000
     46 H18        4.5634   13.4337    4.3086 H         2 RES2    0.0000
     47 C20        5.3899   12.0543    3.1289 C.ar      2 RES2    0.0000
     48 H19        6.2659   12.3507    3.2314 H         2 RES2    0.0000
     49 C21        5.1214   10.9550    2.3209 C.ar      2 RES2    0.0000
     50 C22        3.8174   10.4953    2.1321 C.ar      2 RES2    0.0000
     51 C23        2.7962   11.1667    2.7907 C.ar      2 RES2    0.0000
     52 H20        1.9163   10.8877    2.6773 H         2 RES2    0.0000
     53 C24        3.4503    9.3373    1.2594 C.3       2 RES2    0.0000
     54 H21        3.9303    9.2631    0.4074 H         2 RES2    0.0000
     55 C25        2.9760    8.0834    1.8530 C.3       2 RES2    0.0000
     56 H22        2.9599    8.0472    2.8314 H         2 RES2    0.0000
     57 C26        3.1486    6.7785    1.1493 C.ar      2 RES2    0.0000
     58 C27        2.5054    6.5895   -0.0573 C.ar      2 RES2    0.0000
     59 H23        2.0034    7.2860   -0.4147 H         2 RES2    0.0000
     60 C28        2.5853    5.3860   -0.7555 C.ar      2 RES2    0.0000
     61 C29        3.3216    4.3326   -0.2426 C.ar      2 RES2    0.0000
     62 H24        3.3783    3.5266   -0.7028 H         2 RES2    0.0000
     63 C30        3.9684    4.4973    0.9610 C.ar      2 RES2    0.0000
     64 H25        4.4639    3.7948    1.3157 H         2 RES2    0.0000
     65 C31        3.8899    5.6962    1.6491 C.ar      2 RES2    0.0000
     66 C32        1.9972    4.2077   -2.7413 C.3       2 RES2    0.0000
     67 H26        2.9059    4.1058   -3.0314 H         2 RES2    0.0000
     68 H27        1.4260    4.3110   -3.5067 H         2 RES2    0.0000
     69 H28        1.7304    3.4295   -2.2460 H         2 RES2    0.0000
     70 N3         6.2618   10.2909    1.7220 N.pl3     2 RES2    0.0000
     71 N4         4.6274    5.8049    2.8912 N.pl3     2 RES2    0.0000
     72 O8         2.1460   12.9241    4.3299 O.3       2 RES2    0.0000
     73 O9         7.3416   10.8686    1.7280 O.2       2 RES2    0.0000
     74 O10        6.1175    9.1715    1.2507 O.2       2 RES2    0.0000
     75 O11        2.0598    8.9970    1.2392 O.3       2 RES2    0.0000
     76 O12        1.8901    5.3573   -1.9119 O.3       2 RES2    0.0000
     77 O13        4.8758    6.9082    3.3452 O.2       2 RES2    0.0000
     78 O14        5.0171    4.7862    3.4322 O.2       2 RES2    0.0000
@<TRIPOS>BOND
     1    1    2 1
     2    3    1 1
     3    4    1 1
     4    5    6 ar
     5    6    7 1
     6    8    6 ar
     7    9    8 1
     8   10    8 ar
     9   11   10 ar
    10   12    5 ar
    11   13   12 1
    12   14   11 1
    13   15   14 1
    14   16   14 1
    15   17   16 1
    16   18   16 1
    17   19   18 ar
    18   20   19 1
    19   21   19 ar
    20   22   21 ar
    21   23   22 1
    22   24   22 ar
    23   25   24 1
    24   26   18 ar
    25   27   28 1
    26   29   27 1
    27   30   27 1
    28   31   10 1
    29   32   26 1
    30   33    1 1
    31   34   31 2
    32   35   31 2
    33   36   14 1
    34   37   21 1
    35   38   32 2
    36   39   32 2
    37   40   41 1
    38   42   40 1
    39   43   40 1
    40   44   45 ar
    41   45   46 1
    42   47   45 ar
    43   48   47 1
    44   49   47 ar
    45   50   49 ar
    46   51   44 ar
    47   52   51 1
    48   53   50 1
    49   54   53 1
    50   55   53 1
    51   56   55 1
    52   57   55 1
    53   58   57 ar
    54   59   58 1
    55   60   58 ar
    56   61   60 ar
    57   62   61 1
    58   63   61 ar
    59   64   63 1
    60   65   57 ar
    61   66   67 1
    62   68   66 1
    63   69   66 1
    64   70   49 1
    65   71   65 1
    66   72   40 1
    67   73   70 2
    68   74   70 2
    69   75   53 1
    70   76   60 1
    71   77   71 2
    72   78   71 2
    73    5   33 1
    74   11   12 ar
    75   16   36 1
    76   24   26 ar
    77   27   37 1
    78   44   72 1
    79   50   51 ar
    80   55   75 1
    81   63   65 ar
    82   66   76 1
@<TRIPOS>SUBSTRUCTURE
     1 RES1 1
     2 RES2 40

@<TRIPOS>CRYSIN
   8.3888   10.3595   18.7561  78.0770  86.9020  78.2190   2 1

