# MOL2 file generated by ConQuest
# Please check atom types

@<TRIPOS>MOLECULE
UJAWOS
    51    54     1
SMALL
NO_CHARGES
****
Generated from CSD

@<TRIPOS>ATOM
      1 N1         3.4646    0.3775    0.5771 N.2       1 RES1    0.0000
      2 N2         4.6312    0.6921   -0.0991 N.pl3     1 RES1    0.0000
      3 H1         5.3884    0.3020    0.0639 H         1 RES1    0.0000
      4 N3         7.0851    1.5148   -1.4379 N.pl3     1 RES1    0.0000
      5 N4         4.7156    5.3687   -3.1506 N.pl3     1 RES1    0.0000
      6 O1         7.1744    0.5770   -0.6359 O.2       1 RES1    0.0000
      7 O2         8.0028    1.8407   -2.1690 O.2       1 RES1    0.0000
      8 O3         5.7958    5.7852   -3.5573 O.2       1 RES1    0.0000
      9 O4         3.6524    5.9470   -3.3311 O.2       1 RES1    0.0000
     10 C1         3.5374   -0.6723    1.3296 C.2       1 RES1    0.0000
     11 C2         2.2984   -0.9833    2.1424 C.3       1 RES1    0.0000
     12 H2         2.3846   -0.4758    2.9904 H         1 RES1    0.0000
     13 C3         1.0147   -0.5584    1.4461 C.3       1 RES1    0.0000
     14 H3         0.9504   -1.0731    0.5747 H         1 RES1    0.0000
     15 H4         1.0655    0.3919    1.2706 H         1 RES1    0.0000
     16 C4        -0.2155   -0.8640    2.2933 C.3       1 RES1    0.0000
     17 H5        -0.1903   -0.3092    3.0944 H         1 RES1    0.0000
     18 H6        -1.0382   -0.5956    1.8045 H         1 RES1    0.0000
     19 C5        -0.2531   -2.3326    2.6799 C.3       1 RES1    0.0000
     20 H7        -0.3635   -2.9043    1.8319 H         1 RES1    0.0000
     21 H8        -1.0619   -2.4860    3.2112 H         1 RES1    0.0000
     22 C6         1.0208   -2.7497    3.3836 C.3       1 RES1    0.0000
     23 H9         0.9568   -3.7629    3.5825 H         1 RES1    0.0000
     24 H10        1.0640   -2.2751    4.2311 H         1 RES1    0.0000
     25 C7         2.2654   -2.4603    2.5558 C.3       1 RES1    0.0000
     26 H11        2.1917   -2.9768    1.6950 H         1 RES1    0.0000
     27 C8         3.5438   -2.8282    3.2873 C.3       1 RES1    0.0000
     28 H12        3.4848   -3.7929    3.5615 H         1 RES1    0.0000
     29 H13        3.5998   -2.2907    4.1144 H         1 RES1    0.0000
     30 C9         4.7690   -2.6484    2.4219 C.3       1 RES1    0.0000
     31 H14        5.1763   -3.4573    2.0709 H         1 RES1    0.0000
     32 C10        5.7272   -1.5100    2.5403 C.3       1 RES1    0.0000
     33 C11        4.7207   -1.5393    1.3967 C.3       1 RES1    0.0000
     34 H15        5.0997   -1.7347    0.5766 H         1 RES1    0.0000
     35 C12        5.5782   -0.4829    3.6281 C.3       1 RES1    0.0000
     36 H16        6.0077    0.3212    3.3831 H         1 RES1    0.0000
     37 H17        4.6370   -0.2618    3.8047 H         1 RES1    0.0000
     38 H18        6.0084   -0.7508    4.4446 H         1 RES1    0.0000
     39 C13        7.1505   -1.7790    2.1294 C.3       1 RES1    0.0000
     40 H19        7.5472   -0.9383    1.7388 H         1 RES1    0.0000
     41 H20        7.6842   -2.0426    2.8773 H         1 RES1    0.0000
     42 H21        7.2144   -2.5088    1.4450 H         1 RES1    0.0000
     43 C14        4.6615    1.7928   -0.8847 C.ar      1 RES1    0.0000
     44 C15        5.8407    2.2404   -1.5164 C.ar      1 RES1    0.0000
     45 C16        5.8517    3.4166   -2.2592 C.ar      1 RES1    0.0000
     46 H22        6.6427    3.6784   -2.6347 H         1 RES1    0.0000
     47 C17        4.6957    4.1230   -2.3949 C.ar      1 RES1    0.0000
     48 C18        3.5001    3.6784   -1.8503 C.ar      1 RES1    0.0000
     49 H23        2.7298    4.1752   -1.9919 H         1 RES1    0.0000
     50 C19        3.4876    2.5334   -1.1135 C.ar      1 RES1    0.0000
     51 H24        2.7305    2.2332   -0.7316 H         1 RES1    0.0000
@<TRIPOS>BOND
     1    1    2 1
     2    2    3 1
     3    4    6 2
     4    5    8 2
     5    7    4 2
     6    9    5 2
     7   10    1 2
     8   11   10 1
     9   12   11 1
    10   13   11 1
    11   14   13 1
    12   15   13 1
    13   16   13 1
    14   17   16 1
    15   18   16 1
    16   19   16 1
    17   20   19 1
    18   21   19 1
    19   22   19 1
    20   23   22 1
    21   24   22 1
    22   25   11 1
    23   26   25 1
    24   27   25 1
    25   28   27 1
    26   29   27 1
    27   30   27 1
    28   31   30 1
    29   32   30 1
    30   33   10 1
    31   34   33 1
    32   35   32 1
    33   36   35 1
    34   37   35 1
    35   38   35 1
    36   39   32 1
    37   40   39 1
    38   41   39 1
    39   42   39 1
    40   43    2 1
    41   44    4 1
    42   45   44 ar
    43   46   45 1
    44   47    5 1
    45   48   47 ar
    46   49   48 1
    47   50   43 ar
    48   51   50 1
    49   22   25 1
    50   30   33 1
    51   32   33 1
    52   43   44 ar
    53   45   47 ar
    54   48   50 ar
@<TRIPOS>SUBSTRUCTURE
     1 RES1 1

@<TRIPOS>CRYSIN
  33.5240    5.9919   19.3340  90.0000 109.3170  90.0000  15 1

