# MOL2 file generated by ConQuest
# Please check atom types

@<TRIPOS>MOLECULE
UJAWAE
    48    50     1
SMALL
NO_CHARGES
****
Generated from CSD

@<TRIPOS>ATOM
      1 O1         3.3813    2.4829    3.5573 O.2       1 RES1    0.0000
      2 O2         1.9804    1.4189    2.1133 O.3       1 RES1    0.0000
      3 O3         6.9292   -3.1645    0.6860 O.2       1 RES1    0.0000
      4 O4         8.3924   -1.8560    1.5321 O.2       1 RES1    0.0000
      5 N1         7.2404   -2.1294    1.2559 N.pl3     1 RES1    0.0000
      6 C1         3.1491    1.6346    2.7233 C.2       1 RES1    0.0000
      7 C2         0.7774    2.2861    2.3782 C.3       1 RES1    0.0000
      8 C3        -0.1781    1.8272    1.2695 C.3       1 RES1    0.0000
      9 H1        -0.3509    0.8876    1.3634 H         1 RES1    0.0000
     10 H2         0.2221    1.9937    0.4141 H         1 RES1    0.0000
     11 H3        -1.0040    2.3128    1.3382 H         1 RES1    0.0000
     12 C4         1.1485    3.7619    2.2022 C.3       1 RES1    0.0000
     13 H4         1.6737    3.8666    1.4063 H         1 RES1    0.0000
     14 H5         1.6564    4.0563    2.9617 H         1 RES1    0.0000
     15 H6         0.3485    4.2861    2.1285 H         1 RES1    0.0000
     16 C5         0.2549    1.9389    3.8019 C.3       1 RES1    0.0000
     17 H7         0.9858    2.1020    4.4336 H         1 RES1    0.0000
     18 C6        -0.1381    0.4828    3.9216 C.2       1 RES1    0.0000
     19 H8         0.3908   -0.1511    3.4919 H         1 RES1    0.0000
     20 C7        -1.2100    0.0527    4.6129 C.2       1 RES1    0.0000
     21 H9        -1.4072   -0.8560    4.6053 H         1 RES1    0.0000
     22 C8        -2.0834    0.9558    5.3800 C.2       1 RES1    0.0000
     23 C9        -3.2427    0.5306    5.9374 C.2       1 RES1    0.0000
     24 H10       -3.4810   -0.3619    5.8274 H         1 RES1    0.0000
     25 C10       -4.1703    1.4203    6.7280 C.3       1 RES1    0.0000
     26 H11       -4.4627    0.9487    7.5241 H         1 RES1    0.0000
     27 H12       -4.9551    1.6185    6.1935 H         1 RES1    0.0000
     28 C11       -3.5037    2.7169    7.1335 C.3       1 RES1    0.0000
     29 H13       -2.9001    2.5517    7.8750 H         1 RES1    0.0000
     30 H14       -4.1778    3.3472    7.4306 H         1 RES1    0.0000
     31 C12       -2.7211    3.3205    5.9667 C.3       1 RES1    0.0000
     32 H15       -2.3387    4.1695    6.2389 H         1 RES1    0.0000
     33 H16       -3.3247    3.4871    5.2264 H         1 RES1    0.0000
     34 C13       -1.5977    2.3767    5.5097 C.3       1 RES1    0.0000
     35 H17       -0.9099    2.3852    6.2086 H         1 RES1    0.0000
     36 C14       -0.9299    2.8441    4.2115 C.3       1 RES1    0.0000
     37 H18       -0.6111    3.7527    4.3276 H         1 RES1    0.0000
     38 H19       -1.5876    2.8483    3.4994 H         1 RES1    0.0000
     39 C15        4.1993    0.6451    2.2633 C.ar      1 RES1    0.0000
     40 C16        3.8704   -0.5200    1.5712 C.ar      1 RES1    0.0000
     41 H20        2.9861   -0.6845    1.3331 H         1 RES1    0.0000
     42 C17        4.8635   -1.4400    1.2334 C.ar      1 RES1    0.0000
     43 H21        4.6546   -2.2235    0.7777 H         1 RES1    0.0000
     44 C18        6.1713   -1.1525    1.5965 C.ar      1 RES1    0.0000
     45 C19        6.5316    0.0021    2.2630 C.ar      1 RES1    0.0000
     46 H22        7.4214    0.1736    2.4744 H         1 RES1    0.0000
     47 C20        5.5305    0.9009    2.6097 C.ar      1 RES1    0.0000
     48 H23        5.7469    1.6775    3.0753 H         1 RES1    0.0000
@<TRIPOS>BOND
     1    1    6 2
     2    2    6 1
     3    3    5 2
     4    4    5 2
     5    5   44 1
     6    6   39 1
     7    7    2 1
     8    8    7 1
     9    9    8 1
    10   10    8 1
    11   11    8 1
    12   12    7 1
    13   13   12 1
    14   14   12 1
    15   15   12 1
    16   16    7 1
    17   17   16 1
    18   18   16 1
    19   19   18 1
    20   20   18 2
    21   21   20 1
    22   22   20 1
    23   23   22 2
    24   24   23 1
    25   25   23 1
    26   26   25 1
    27   27   25 1
    28   28   25 1
    29   29   28 1
    30   30   28 1
    31   31   28 1
    32   32   31 1
    33   33   31 1
    34   34   22 1
    35   35   34 1
    36   36   16 1
    37   37   36 1
    38   38   36 1
    39   39   40 ar
    40   40   41 1
    41   42   40 ar
    42   43   42 1
    43   44   42 ar
    44   45   44 ar
    45   46   45 1
    46   47   39 ar
    47   48   47 1
    48   31   34 1
    49   34   36 1
    50   45   47 ar
@<TRIPOS>SUBSTRUCTURE
     1 RES1 1

@<TRIPOS>CRYSIN
  10.4559    7.0276   25.2520  90.0000  90.9480  90.0000  14 1

