# MOL2 file generated by ConQuest
# Please check atom types

@<TRIPOS>MOLECULE
UJEMEB
    20    20     1
SMALL
NO_CHARGES
****
Generated from CSD

@<TRIPOS>ATOM
      1 O1         0.8226    1.1742   10.7128 O.2       1 RES1    0.0000
      2 C1         1.6411    0.2571   10.5948 C.2       1 RES1    0.0000
      3 C2         3.9674   -0.2660    9.7431 C.ar      1 RES1    0.0000
      4 O2         6.3488   -1.5686    9.8687 O.2       1 RES1    0.0000
      5 C3         2.5608    1.2456    8.5286 C.ar      1 RES1    0.0000
      6 N1         1.5983   -0.8497   11.3189 N.am      1 RES1    0.0000
      7 C4         4.9471   -0.0747    8.7964 C.ar      1 RES1    0.0000
      8 C5         2.7582    0.3979    9.6067 C.ar      1 RES1    0.0000
      9 C6         3.5594    1.3808    7.5932 C.ar      1 RES1    0.0000
     10 O3         7.1435   -0.4484    8.2120 O.2       1 RES1    0.0000
     11 N2         3.3217    2.2679    6.4384 N.pl3     1 RES1    0.0000
     12 N3         6.2427   -0.7465    8.9744 N.pl3     1 RES1    0.0000
     13 C7         4.7629    0.7251    7.6950 C.ar      1 RES1    0.0000
     14 O4         2.5114    3.1683    6.5711 O.2       1 RES1    0.0000
     15 O5         3.9435    2.0526    5.4305 O.2       1 RES1    0.0000
     16 H1         1.7439    1.6727    8.4099 H         1 RES1    0.0000
     17 H2         4.1295   -0.8274   10.4876 H         1 RES1    0.0000
     18 H3         5.4127    0.8274    7.1066 H         1 RES1    0.0000
     19 H4         2.1470   -1.4858   11.1652 H         1 RES1    0.0000
     20 H5         0.9460   -0.9431   11.8853 H         1 RES1    0.0000
@<TRIPOS>BOND
     1    1    2 2
     2    2    6 1
     3    3    7 ar
     4    4   12 2
     5    5    8 ar
     6    6   19 1
     7    7   12 1
     8    8    2 1
     9    9    5 ar
    10   10   12 2
    11   11    9 1
    12   13    7 ar
    13   14   11 2
    14   15   11 2
    15   16    5 1
    16   17    3 1
    17   18   13 1
    18   20    6 1
    19    3    8 ar
    20    9   13 ar
@<TRIPOS>SUBSTRUCTURE
     1 RES1 1

@<TRIPOS>CRYSIN
   8.2260    8.8971   23.6100  90.0000  90.0000  90.0000  61 1

