# MOL2 file generated by ConQuest
# Please check atom types

@<TRIPOS>MOLECULE
UJEREG
    32    16     2
SMALL
USER_CHARGES
****
Generated from CSD

@<TRIPOS>ATOM
      1 C1         6.8279    4.3234    7.2693 C.ar      1 RES1    0.0000
      2 C2         6.6499    4.6331    5.9161 C.ar      1 RES1    0.0000
      3 C3         6.9760    5.8809    5.3899 C.ar      1 RES1    0.0000
      4 H1         6.8755    6.0487    4.5029 H         1 RES1    0.0000
      5 C4         7.5158    6.8489    6.2234 C.ar      1 RES1    0.0000
      6 H2         7.7571    7.7277    5.8332 H         1 RES1    0.0000
      7 C5         7.6951    6.5605    7.5746 C.ar      1 RES1    0.0000
      8 H3         8.0731    7.2337    8.1711 H         1 RES1    0.0000
      9 C6         7.3489    5.3242    8.0987 C.ar      1 RES1    0.0000
     10 H4         7.4599    5.1715    8.9933 H         1 RES1    0.0000
     11 N1         6.4224    3.0465    7.7392 N.2       1 RES1    0.0000
     12 N2         6.6106    2.8429    8.9559 N.1       1 RES1    1.0000
     13 N3         6.7236    2.5131   10.0292 N.2       1 RES1   -1.0000
     14 N4         6.1199    3.6410    4.9795 N.pl3     1 RES1    0.0000
     15 O1         5.3974    4.0630    4.0653 O.2       1 RES1    0.0000
     16 O2         6.4494    2.4687    5.1036 O.2       1 RES1    0.0000
     17 C7         6.7318    4.5422    7.0311 Du        2 SUP2    0.0000
     18 C8         6.6443    5.0931    5.7489 Du        2 SUP2    0.0000
     19 C9         7.1837    6.2588    5.4771 Du        2 SUP2    0.0000
     20 H5         7.1140    6.5978    4.5900 Du        2 SUP2    0.0000
     21 C10        7.7754    6.9295    6.3551 Du        2 SUP2    0.0000
     22 H6         8.1929    7.7562    6.1349 Du        2 SUP2    0.0000
     23 C11        7.8030    6.4343    7.6791 Du        2 SUP2    0.0000
     24 H7         8.1832    6.9855    8.3509 Du        2 SUP2    0.0000
     25 C12        7.3365    5.2701    8.0484 Du        2 SUP2    0.0000
     26 H8         7.4019    4.9458    8.9362 Du        2 SUP2    0.0000
     27 N5         6.2785    3.2738    7.1844 Du        2 SUP2    0.0000
     28 N6         7.2405    2.4288   10.1320 Du        2 SUP2    0.0000
     29 N7         6.3059    2.2843   10.2783 Du        2 SUP2    0.0000
     30 N8         6.0816    4.0606    5.1008 Du        2 SUP2    0.0000
     31 O3         5.6594    3.9510    3.9720 Du        2 SUP2    0.0000
     32 O4         5.8063    2.9287    5.9370 Du        2 SUP2    0.0000
@<TRIPOS>BOND
     1    1    2 ar
     2    2    3 ar
     3    3    4 1
     4    5    3 ar
     5    6    5 1
     6    7    5 ar
     7    8    7 1
     8    9    1 ar
     9   10    9 1
    10   11    1 1
    11   12   11 2
    12   13   12 2
    13   14    2 1
    14   15   14 2
    15   16   14 2
    16    7    9 ar
@<TRIPOS>SUBSTRUCTURE
     1 RES1 1
     2 SUP2 17

@<TRIPOS>CRYSIN
   7.2746    7.5857    7.8993  72.2940  63.2820  67.1060   2 1

