# MOL2 file generated by ConQuest
# Please check atom types

@<TRIPOS>MOLECULE
UJESEH
    44    46     1
SMALL
NO_CHARGES
****
Generated from CSD

@<TRIPOS>ATOM
      1 O1         0.3243    1.0259    1.2895 O.3       1 RES1    0.0000
      2 H1        -0.2550    0.4465    1.3238 H         1 RES1    0.0000
      3 O2         2.6412    0.6817   -2.0001 O.2       1 RES1    0.0000
      4 N1         4.7454    6.9132    5.3448 N.pl3     1 RES1    0.0000
      5 N2         1.0830    0.8532    0.1484 N.2       1 RES1    0.0000
      6 C1         6.0398    6.9745    5.9840 C.3       1 RES1    0.0000
      7 H2         6.1721    7.8743    6.3201 H         1 RES1    0.0000
      8 H3         6.7205    6.8121    5.3116 H         1 RES1    0.0000
      9 C2         6.2545    5.9963    7.1316 C.3       1 RES1    0.0000
     10 H4         7.1480    6.0895    7.4701 H         1 RES1    0.0000
     11 H5         6.1247    5.0988    6.8163 H         1 RES1    0.0000
     12 H6         5.6261    6.1827    7.8341 H         1 RES1    0.0000
     13 C3         3.6390    7.5619    6.0860 C.3       1 RES1    0.0000
     14 H7         3.8689    7.6130    7.0273 H         1 RES1    0.0000
     15 H8         2.8365    7.0234    6.0025 H         1 RES1    0.0000
     16 C4         3.3727    8.9309    5.5666 C.3       1 RES1    0.0000
     17 H9         4.1107    9.5046    5.7846 H         1 RES1    0.0000
     18 H10        2.5707    9.2740    5.9677 H         1 RES1    0.0000
     19 H11        3.2646    8.8957    4.6138 H         1 RES1    0.0000
     20 C5         4.4821    6.0213    4.3263 C.ar      1 RES1    0.0000
     21 C6         5.4362    5.0716    3.8881 C.ar      1 RES1    0.0000
     22 H12        6.2637    5.0261    4.3100 H         1 RES1    0.0000
     23 C7         5.1611    4.2149    2.8471 C.ar      1 RES1    0.0000
     24 H13        5.8003    3.5867    2.6013 H         1 RES1    0.0000
     25 C8         3.9679    4.2570    2.1562 C.ar      1 RES1    0.0000
     26 C9         3.0184    5.2056    2.5689 C.ar      1 RES1    0.0000
     27 H14        2.2015    5.2567    2.1260 H         1 RES1    0.0000
     28 C10        3.2722    6.0600    3.6099 C.ar      1 RES1    0.0000
     29 H15        2.6250    6.6825    3.8510 H         1 RES1    0.0000
     30 C11        3.6329    3.3083    1.0665 C.2       1 RES1    0.0000
     31 C12        2.5063    2.5505    1.1546 C.2       1 RES1    0.0000
     32 H16        1.9732    2.6323    1.9127 H         1 RES1    0.0000
     33 C13        2.1031    1.6224    0.1229 C.2       1 RES1    0.0000
     34 C14        2.9804    1.4667   -1.0874 C.2       1 RES1    0.0000
     35 C15        4.1867    2.2972   -1.1755 C.ar      1 RES1    0.0000
     36 C16        4.9925    2.1722   -2.2837 C.ar      1 RES1    0.0000
     37 H17        4.7760    1.5610   -2.9514 H         1 RES1    0.0000
     38 C17        6.1190    2.9527   -2.4043 C.ar      1 RES1    0.0000
     39 H18        6.6593    2.8698   -3.1554 H         1 RES1    0.0000
     40 C18        6.4539    3.8627   -1.4143 C.ar      1 RES1    0.0000
     41 H19        7.2164    4.3888   -1.4954 H         1 RES1    0.0000
     42 C19        5.6470    3.9764   -0.3130 C.ar      1 RES1    0.0000
     43 H20        5.8659    4.6012    0.3408 H         1 RES1    0.0000
     44 C20        4.5169    3.1924   -0.1345 C.ar      1 RES1    0.0000
@<TRIPOS>BOND
     1    1    2 1
     2    3   34 2
     3    4    6 1
     4    5    1 1
     5    6    7 1
     6    8    6 1
     7    9    6 1
     8   10    9 1
     9   11    9 1
    10   12    9 1
    11   13    4 1
    12   14   13 1
    13   15   13 1
    14   16   13 1
    15   17   16 1
    16   18   16 1
    17   19   16 1
    18   20    4 1
    19   21   20 ar
    20   22   21 1
    21   23   21 ar
    22   24   23 1
    23   25   23 ar
    24   26   25 ar
    25   27   26 1
    26   28   20 ar
    27   29   28 1
    28   30   25 1
    29   31   30 2
    30   32   31 1
    31   33    5 2
    32   34   33 1
    33   35   34 1
    34   36   35 ar
    35   37   36 1
    36   38   36 ar
    37   39   38 1
    38   40   38 ar
    39   41   40 1
    40   42   40 ar
    41   43   42 1
    42   44   30 1
    43   26   28 ar
    44   31   33 1
    45   35   44 ar
    46   42   44 ar
@<TRIPOS>SUBSTRUCTURE
     1 RES1 1

@<TRIPOS>CRYSIN
   6.2650   11.3610   23.1960  90.0000  91.7900  90.0000  14 1

