# MOL2 file generated by ConQuest
# Please check atom types

@<TRIPOS>MOLECULE
UJIGIE
    36    37     1
SMALL
NO_CHARGES
****
Generated from CSD

@<TRIPOS>ATOM
      1 O1        10.1109    4.3963    7.9122 O.2       1 RES1    0.0000
      2 O2        -1.2493    1.0385    9.4719 O.2       1 RES1    0.0000
      3 O3        -2.5913    0.5886    7.8406 O.2       1 RES1    0.0000
      4 N1        10.0378    4.2446    5.6324 N.am      1 RES1    0.0000
      5 H1        10.5156    4.4105    4.9127 H         1 RES1    0.0000
      6 N2         3.9751    2.0342    5.1858 N.2       1 RES1    0.0000
      7 N3         2.7751    1.5620    4.7199 N.pl3     1 RES1    0.0000
      8 H2         2.6704    1.3749    3.8667 H         1 RES1    0.0000
      9 N4        -1.4714    0.8791    8.2599 N.pl3     1 RES1    0.0000
     10 C1        12.0307    5.1085    6.6578 C.3       1 RES1    0.0000
     11 H3        12.4429    5.2020    7.5418 H         1 RES1    0.0000
     12 H4        11.9843    5.9858    6.2249 H         1 RES1    0.0000
     13 H5        12.5694    4.5014    6.1089 H         1 RES1    0.0000
     14 C2        10.6427    4.5502    6.8088 C.2       1 RES1    0.0000
     15 C3         8.7591    3.7007    5.3883 C.ar      1 RES1    0.0000
     16 C4         8.4791    3.3094    4.0771 C.ar      1 RES1    0.0000
     17 H6         9.1363    3.4176    3.3994 H         1 RES1    0.0000
     18 C5         7.2475    2.7655    3.7624 C.ar      1 RES1    0.0000
     19 H7         7.0738    2.4937    2.8693 H         1 RES1    0.0000
     20 C6         6.2532    2.6067    4.7293 C.ar      1 RES1    0.0000
     21 C7         6.5545    2.9952    6.0374 C.ar      1 RES1    0.0000
     22 H8         5.8985    2.8823    6.7159 H         1 RES1    0.0000
     23 C8         7.7850    3.5404    6.3715 C.ar      1 RES1    0.0000
     24 H9         7.9625    3.8040    7.2673 H         1 RES1    0.0000
     25 C9         4.9439    2.0765    4.3486 C.2       1 RES1    0.0000
     26 H10        4.8098    1.7581    3.4644 H         1 RES1    0.0000
     27 C10        1.7442    1.3855    5.5993 C.ar      1 RES1    0.0000
     28 C11        0.4853    0.9645    5.1155 C.ar      1 RES1    0.0000
     29 H11        0.3673    0.7937    4.1886 H         1 RES1    0.0000
     30 C12       -0.5688    0.8014    5.9792 C.ar      1 RES1    0.0000
     31 H12       -1.4182    0.5287    5.6534 H         1 RES1    0.0000
     32 C13       -0.3800    1.0401    7.3415 C.ar      1 RES1    0.0000
     33 C14        0.8574    1.4346    7.8386 C.ar      1 RES1    0.0000
     34 H13        0.9712    1.5840    8.7699 H         1 RES1    0.0000
     35 C15        1.9122    1.6062    6.9809 C.ar      1 RES1    0.0000
     36 H14        2.7586    1.8741    7.3181 H         1 RES1    0.0000
@<TRIPOS>BOND
     1    1   14 2
     2    2    9 2
     3    3    9 2
     4    4    5 1
     5    6    7 1
     6    7    8 1
     7    9   32 1
     8   10   11 1
     9   12   10 1
    10   13   10 1
    11   14    4 1
    12   15    4 1
    13   16   15 ar
    14   17   16 1
    15   18   16 ar
    16   19   18 1
    17   20   18 ar
    18   21   20 ar
    19   22   21 1
    20   23   15 ar
    21   24   23 1
    22   25    6 2
    23   26   25 1
    24   27    7 1
    25   28   27 ar
    26   29   28 1
    27   30   28 ar
    28   31   30 1
    29   32   30 ar
    30   33   32 ar
    31   34   33 1
    32   35   27 ar
    33   36   35 1
    34   10   14 1
    35   20   25 1
    36   21   23 ar
    37   33   35 ar
@<TRIPOS>SUBSTRUCTURE
     1 RES1 1

@<TRIPOS>CRYSIN
  10.8152   10.9469   12.9198  90.0000 113.6790  90.0000  14 1

