# MOL2 file generated by ConQuest
# Please check atom types

@<TRIPOS>MOLECULE
UJIHUS
    54    56     1
SMALL
NO_CHARGES
****
Generated from CSD

@<TRIPOS>ATOM
      1 O1        -1.6233   10.1930   12.7133 O.2       1 RES1    0.0000
      2 O2        -0.8902    8.1888   13.1897 O.2       1 RES1    0.0000
      3 N1        -5.3287    8.5303   12.8718 N.pl3     1 RES1    0.0000
      4 H1        -6.2391    8.7539   12.8528 H         1 RES1    0.0000
      5 N2        -4.3012   10.6237   12.4854 N.pl3     1 RES1    0.0000
      6 H2        -3.5568   11.0905   12.5271 H         1 RES1    0.0000
      7 N3        -1.8437    8.9762   12.9765 N.pl3     1 RES1    0.0000
      8 C1        -4.2495    9.3211   12.7648 C.2       1 RES1    0.0000
      9 C2        -3.1278    8.5157   13.0244 C.2       1 RES1    0.0000
     10 C3        -3.5769    7.1689   13.3250 C.2       1 RES1    0.0000
     11 C4        -4.9201    7.2336   13.2186 C.2       1 RES1    0.0000
     12 H3        -5.5084    6.5017   13.3596 H         1 RES1    0.0000
     13 C5        -2.7588    5.9861   13.7222 C.3       1 RES1    0.0000
     14 H4        -3.3682    5.2932   14.0811 H         1 RES1    0.0000
     15 H5        -2.1547    6.2586   14.4579 H         1 RES1    0.0000
     16 C6        -1.9237    5.3622   12.6289 C.ar      1 RES1    0.0000
     17 C7        -2.3736    5.2550   11.3214 C.ar      1 RES1    0.0000
     18 H6        -3.2073    5.6445   11.0826 H         1 RES1    0.0000
     19 C8        -1.6300    4.5895   10.3503 C.ar      1 RES1    0.0000
     20 C9        -0.4021    4.0482   10.7204 C.ar      1 RES1    0.0000
     21 H7         0.1075    3.5764   10.0734 H         1 RES1    0.0000
     22 C10        0.0976    4.1776   12.0013 C.ar      1 RES1    0.0000
     23 C11       -0.6790    4.8184   12.9506 C.ar      1 RES1    0.0000
     24 H8        -0.3573    4.8888   13.8416 H         1 RES1    0.0000
     25 C12        1.4655    3.6428   12.3328 C.3       1 RES1    0.0000
     26 H9         1.6080    2.7957   11.8611 H         1 RES1    0.0000
     27 H10        1.5328    3.4945   13.2982 H         1 RES1    0.0000
     28 H11        2.1455    4.2913   12.0539 H         1 RES1    0.0000
     29 C13       -2.1356    4.4891    8.9473 C.3       1 RES1    0.0000
     30 H12       -2.0363    5.3561    8.5004 H         1 RES1    0.0000
     31 H13       -3.0816    4.2332    8.9575 H         1 RES1    0.0000
     32 H14       -1.6198    3.8119    8.4609 H         1 RES1    0.0000
     33 C14       -5.5301   11.3106   12.1151 C.3       1 RES1    0.0000
     34 H15       -5.4156   12.2799   12.2846 H         1 RES1    0.0000
     35 H16       -6.2616   10.9891   12.6994 H         1 RES1    0.0000
     36 C15       -5.9259   11.1222   10.7218 C.1       1 RES1    0.0000
     37 C16       -6.2425   11.0223    9.5739 C.1       1 RES1    0.0000
     38 C17       -6.6145   10.9419    8.1896 C.ar      1 RES1    0.0000
     39 C18       -7.7885   11.5583    7.7321 C.ar      1 RES1    0.0000
     40 H17       -8.3377   12.0386    8.3412 H         1 RES1    0.0000
     41 C19       -8.1521   11.4708    6.3943 C.ar      1 RES1    0.0000
     42 C20       -7.3329   10.7760    5.5355 C.ar      1 RES1    0.0000
     43 H18       -7.5724   10.7221    4.6182 H         1 RES1    0.0000
     44 C21       -6.1637   10.1491    5.9634 C.ar      1 RES1    0.0000
     45 C22       -5.8170   10.2419    7.2951 C.ar      1 RES1    0.0000
     46 H19       -5.0229    9.8214    7.6036 H         1 RES1    0.0000
     47 C23       -5.3041    9.3947    5.0009 C.3       1 RES1    0.0000
     48 H20       -4.8033   10.0268    4.4444 H         1 RES1    0.0000
     49 H21       -5.8680    8.8321    4.4298 H         1 RES1    0.0000
     50 H22       -4.6766    8.8289    5.4975 H         1 RES1    0.0000
     51 C24       -9.4220   12.1088    5.9050 C.3       1 RES1    0.0000
     52 H23       -9.4149   12.1398    4.9249 H         1 RES1    0.0000
     53 H24       -9.4876   13.0204    6.2599 H         1 RES1    0.0000
     54 H25      -10.1907   11.5837    6.2102 H         1 RES1    0.0000
@<TRIPOS>BOND
     1    1    7 2
     2    2    7 2
     3    3    4 1
     4    5    6 1
     5    7    9 1
     6    8    3 1
     7    9    8 2
     8   10    9 1
     9   11    3 1
    10   12   11 1
    11   13   10 1
    12   14   13 1
    13   15   13 1
    14   16   13 1
    15   17   16 ar
    16   18   17 1
    17   19   17 ar
    18   20   19 ar
    19   21   20 1
    20   22   20 ar
    21   23   16 ar
    22   24   23 1
    23   25   22 1
    24   26   25 1
    25   27   25 1
    26   28   25 1
    27   29   19 1
    28   30   29 1
    29   31   29 1
    30   32   29 1
    31   33    5 1
    32   34   33 1
    33   35   33 1
    34   36   33 1
    35   37   36 3
    36   38   37 1
    37   39   38 ar
    38   40   39 1
    39   41   39 ar
    40   42   41 ar
    41   43   42 1
    42   44   42 ar
    43   45   38 ar
    44   46   45 1
    45   47   44 1
    46   48   47 1
    47   49   47 1
    48   50   47 1
    49   51   41 1
    50   52   51 1
    51   53   51 1
    52   54   51 1
    53    5    8 1
    54   10   11 2
    55   22   23 ar
    56   44   45 ar
@<TRIPOS>SUBSTRUCTURE
     1 RES1 1

@<TRIPOS>CRYSIN
   7.1591   10.0850   14.8070  91.4970  98.5770 105.7750   2 1

