# MOL2 file generated by ConQuest
# Please check atom types

@<TRIPOS>MOLECULE
UJIKOP
    78    82     2
SMALL
USER_CHARGES
****
Generated from CSD

@<TRIPOS>ATOM
      1 C1         5.3088    5.4289    3.9331 C.ar      1 RES1    0.0000
      2 C2         6.1544    4.3303    4.0286 C.ar      1 RES1    0.0000
      3 H1         6.7038    4.1151    3.3108 H         1 RES1    0.0000
      4 C3         6.1943    3.5495    5.1709 C.ar      1 RES1    0.0000
      5 H2         6.7625    2.8138    5.2118 H         1 RES1    0.0000
      6 C4         5.3941    3.8610    6.2456 C.ar      1 RES1    0.0000
      7 H3         5.4220    3.3407    7.0167 H         1 RES1    0.0000
      8 C5         4.5519    4.9466    6.1739 C.ar      1 RES1    0.0000
      9 H4         4.0197    5.1590    6.9062 H         1 RES1    0.0000
     10 C6         4.4779    5.7353    5.0284 C.ar      1 RES1    0.0000
     11 C7         3.4593    6.8394    5.0876 C.2       1 RES1    0.0000
     12 C8         1.9967    8.2392    3.6978 C.ar      1 RES1    0.0000
     13 C9         1.2616    8.9170    4.6517 C.ar      1 RES1    0.0000
     14 H5         1.3735    8.7191    5.5536 H         1 RES1    0.0000
     15 C10        0.3631    9.8857    4.2651 C.ar      1 RES1    0.0000
     16 H6        -0.1291   10.3479    4.9052 H         1 RES1    0.0000
     17 C11        0.1938   10.1685    2.9284 C.ar      1 RES1    0.0000
     18 H7        -0.4055   10.8270    2.6611 H         1 RES1    0.0000
     19 C12        0.9124    9.4750    2.0008 C.ar      1 RES1    0.0000
     20 H8         0.7906    9.6594    1.0980 H         1 RES1    0.0000
     21 C13        6.0149    7.5117    2.9191 C.3       1 RES1    0.0000
     22 H9         6.9649    7.3325    3.0042 H         1 RES1    0.0000
     23 H10        5.7187    7.9605    3.7253 H         1 RES1    0.0000
     24 C14        5.7700    8.4015    1.7208 C.3       1 RES1    0.0000
     25 H11        4.8297    8.6375    1.6840 H         1 RES1    0.0000
     26 H12        6.2809    9.2201    1.8191 H         1 RES1    0.0000
     27 C15        5.7188    5.6035    1.5160 C.3       1 RES1    0.0000
     28 H13        5.2430    4.7678    1.3903 H         1 RES1    0.0000
     29 H14        6.6684    5.4104    1.5593 H         1 RES1    0.0000
     30 C16        5.4360    6.5316    0.3654 C.3       1 RES1    0.0000
     31 H15        5.6987    6.1035   -0.4652 H         1 RES1    0.0000
     32 H16        4.4842    6.7109    0.3222 H         1 RES1    0.0000
     33 N1         2.9607    7.2720    3.8989 N.am      1 RES1    0.0000
     34 H17        3.2822    6.9017    3.1926 H         1 RES1    0.0000
     35 N2         1.7993    8.5225    2.3696 N.pl3     1 RES1    1.0000
     36 N3         5.2835    6.2432    2.7600 N.3       1 RES1    0.0000
     37 O1         3.0829    7.2905    6.1508 O.2       1 RES1    0.0000
     38 O2         2.4958    7.8712    1.4758 O.2       1 RES1   -1.0000
     39 O3         6.1414    7.7595    0.5074 O.3       1 RES1    0.0000
     40 C17       -2.6270   11.8017    9.5120 C.ar      2 RES2    0.0000
     41 C18       -3.6840   12.6783    9.3055 C.ar      2 RES2    0.0000
     42 H18       -4.3400   12.7611    9.9598 H         2 RES2    0.0000
     43 C19       -3.7839   13.4269    8.1553 C.ar      2 RES2    0.0000
     44 H19       -4.5032   14.0035    8.0367 H         2 RES2    0.0000
     45 C20       -2.8148   13.3225    7.1761 C.ar      2 RES2    0.0000
     46 H20       -2.8689   13.8394    6.4060 H         2 RES2    0.0000
     47 C21       -1.7701   12.4460    7.3520 C.ar      2 RES2    0.0000
     48 H21       -1.1269   12.3678    6.6853 H         2 RES2    0.0000
     49 C22       -1.6518   11.6692    8.5068 C.ar      2 RES2    0.0000
     50 C23       -0.4615   10.7458    8.5184 C.2       2 RES2    0.0000
     51 C24        0.7170    9.0525    9.8284 C.ar      2 RES2    0.0000
     52 C25        1.6677    8.6093    8.9240 C.ar      2 RES2    0.0000
     53 H22        1.7163    8.9913    8.0783 H         2 RES2    0.0000
     54 C26        2.5382    7.6064    9.2744 C.ar      2 RES2    0.0000
     55 H23        3.1733    7.3057    8.6643 H         2 RES2    0.0000
     56 C27        2.4692    7.0472   10.5299 C.ar      2 RES2    0.0000
     57 H24        3.0563    6.3684   10.7732 H         2 RES2    0.0000
     58 C28        1.5317    7.4949   11.4178 C.ar      2 RES2    0.0000
     59 H25        1.4862    7.1199   12.2675 H         2 RES2    0.0000
     60 C29       -2.4556   11.9192   11.9341 C.3       2 RES2    0.0000
     61 H26       -3.2623   12.4522   12.0089 H         2 RES2    0.0000
     62 H27       -1.7002   12.5212   11.8465 H         2 RES2    0.0000
     63 C30       -2.2894   11.0677   13.1702 C.3       2 RES2    0.0000
     64 H28       -1.4547   10.5768   13.1108 H         2 RES2    0.0000
     65 H29       -2.2419   11.6421   13.9502 H         2 RES2    0.0000
     66 C31       -3.6752   10.1251   10.9205 C.3       2 RES2    0.0000
     67 H30       -3.7385    9.5324   10.1560 H         2 RES2    0.0000
     68 H31       -4.5013   10.6298   10.9824 H         2 RES2    0.0000
     69 C32       -3.4765    9.3142   12.1783 C.3       2 RES2    0.0000
     70 H32       -4.2286    8.7121   12.2935 H         2 RES2    0.0000
     71 H33       -2.6735    8.7770   12.0895 H         2 RES2    0.0000
     72 N4        -0.2535   10.0170    9.6488 N.am      2 RES2    0.0000
     73 H34       -0.7768   10.1726   10.3132 H         2 RES2    0.0000
     74 N5         0.6682    8.4791   11.0720 N.pl3     2 RES2    1.0000
     75 N6        -2.5416   11.0480   10.7411 N.3       2 RES2    0.0000
     76 O4         0.2622   10.6650    7.5477 O.2       2 RES2    0.0000
     77 O5        -0.2456    8.8822   11.9195 O.2       2 RES2   -1.0000
     78 O6        -3.3615   10.1481   13.3299 O.3       2 RES2    0.0000
@<TRIPOS>BOND
     1    1    2 ar
     2    2    3 1
     3    4    2 ar
     4    5    4 1
     5    6    4 ar
     6    7    6 1
     7    8    6 ar
     8    9    8 1
     9   10    1 ar
    10   11   10 1
    11   12   13 ar
    12   13   14 1
    13   15   13 ar
    14   16   15 1
    15   17   15 ar
    16   18   17 1
    17   19   17 ar
    18   20   19 1
    19   21   22 1
    20   23   21 1
    21   24   21 1
    22   25   24 1
    23   26   24 1
    24   27   28 1
    25   29   27 1
    26   30   27 1
    27   31   30 1
    28   32   30 1
    29   33   11 1
    30   34   33 1
    31   35   12 ar
    32   36    1 1
    33   37   11 2
    34   38   35 1
    35   39   24 1
    36   40   41 ar
    37   41   42 1
    38   43   41 ar
    39   44   43 1
    40   45   43 ar
    41   46   45 1
    42   47   45 ar
    43   48   47 1
    44   49   40 ar
    45   50   49 1
    46   51   52 ar
    47   52   53 1
    48   54   52 ar
    49   55   54 1
    50   56   54 ar
    51   57   56 1
    52   58   56 ar
    53   59   58 1
    54   60   61 1
    55   62   60 1
    56   63   60 1
    57   64   63 1
    58   65   63 1
    59   66   67 1
    60   68   66 1
    61   69   66 1
    62   70   69 1
    63   71   69 1
    64   72   50 1
    65   73   72 1
    66   74   51 ar
    67   75   40 1
    68   76   50 2
    69   77   74 1
    70   78   63 1
    71    8   10 ar
    72   12   33 1
    73   19   35 ar
    74   21   36 1
    75   27   36 1
    76   30   39 1
    77   47   49 ar
    78   51   72 1
    79   58   74 ar
    80   60   75 1
    81   66   75 1
    82   69   78 1
@<TRIPOS>SUBSTRUCTURE
     1 RES1 1
     2 RES2 40

@<TRIPOS>CRYSIN
   8.6512   13.1178   13.2085  94.7550  97.9210 102.3750   2 1

