# MOL2 file generated by ConQuest
# Please check atom types

@<TRIPOS>MOLECULE
UJIWEP
    78    78     1
SMALL
NO_CHARGES
****
Generated from CSD

@<TRIPOS>ATOM
      1 O1         0.4233    4.1922    5.7695 O.3       1 RES1    0.0000
      2 O2        -3.1282    7.6965    5.9015 O.2       1 RES1    0.0000
      3 O3        -1.3177    8.7853    5.1893 O.3       1 RES1    0.0000
      4 N1        -0.8294    4.6502    5.1333 N.3       1 RES1    0.0000
      5 C1        -1.2161   10.8375    4.0380 C.3       1 RES1    0.0000
      6 C2        -2.0866    9.6889    4.3940 C.3       1 RES1    0.0000
      7 C3        -1.9257    7.8441    5.8979 C.2       1 RES1    0.0000
      8 C4        -0.9515    7.0380    6.6805 C.3       1 RES1    0.0000
      9 C5        -1.4603    5.7306    7.2463 C.3       1 RES1    0.0000
     10 C6        -1.8390    4.6641    6.2214 C.3       1 RES1    0.0000
     11 C7        -2.0740    3.2983    6.8884 C.3       1 RES1    0.0000
     12 C8        -3.1236    3.2426    8.0000 C.3       1 RES1    0.0000
     13 C9        -4.4698    3.6339    7.4975 C.3       1 RES1    0.0000
     14 C10       -3.1567    1.8559    8.6218 C.3       1 RES1    0.0000
     15 C11       -1.0884    3.6478    4.0687 C.3       1 RES1    0.0000
     16 C12       -2.4859    3.8566    3.4343 C.3       1 RES1    0.0000
     17 C13        0.0171    3.6422    3.0059 C.ar      1 RES1    0.0000
     18 C14        0.3628    4.7992    2.2738 C.ar      1 RES1    0.0000
     19 C15        1.3314    4.7059    1.2707 C.ar      1 RES1    0.0000
     20 C16        1.9577    3.5364    0.9471 C.ar      1 RES1    0.0000
     21 C17        1.5869    2.3919    1.6575 C.ar      1 RES1    0.0000
     22 C18        0.6457    2.4170    2.6805 C.ar      1 RES1    0.0000
     23 C19        0.3297    1.0902    3.4017 C.3       1 RES1    0.0000
     24 C20        0.3537   -0.0835    2.3190 C.3       1 RES1    0.0000
     25 C21        1.2378    0.6836    4.3615 C.3       1 RES1    0.0000
     26 C22        2.9707    3.4598   -0.2024 C.3       1 RES1    0.0000
     27 C23        2.6205    2.4657   -1.2381 C.3       1 RES1    0.0000
     28 C24        4.3603    3.2287    0.2928 C.3       1 RES1    0.0000
     29 C25       -0.2613    6.1762    2.4907 C.3       1 RES1    0.0000
     30 C26        0.7883    7.2371    2.8016 C.3       1 RES1    0.0000
     31 C27       -1.1180    6.5994    1.2833 C.3       1 RES1    0.0000
     32 H1         0.7199    5.1612    5.6069 H         1 RES1    0.0000
     33 H2        -1.7101   11.4571    3.5138 H         1 RES1    0.0000
     34 H3        -0.9138   11.2635    4.8314 H         1 RES1    0.0000
     35 H4        -0.4700   10.5256    3.5391 H         1 RES1    0.0000
     36 H5        -2.3844    9.2503    3.6042 H         1 RES1    0.0000
     37 H6        -2.8384    9.9938    4.8893 H         1 RES1    0.0000
     38 H7        -0.2168    6.8403    6.1112 H         1 RES1    0.0000
     39 H8        -0.6548    7.5712    7.4089 H         1 RES1    0.0000
     40 H9        -2.2303    5.9186    7.7686 H         1 RES1    0.0000
     41 H10       -0.7792    5.3700    7.8030 H         1 RES1    0.0000
     42 H11       -2.6639    4.9301    5.8328 H         1 RES1    0.0000
     43 H12       -2.3410    2.6885    6.2106 H         1 RES1    0.0000
     44 H13       -1.2469    3.0157    7.2607 H         1 RES1    0.0000
     45 H14       -2.8704    3.8608    8.6742 H         1 RES1    0.0000
     46 H15       -4.7288    3.0491    6.7944 H         1 RES1    0.0000
     47 H16       -4.4401    4.5263    7.1722 H         1 RES1    0.0000
     48 H17       -5.1018    3.5754    8.2042 H         1 RES1    0.0000
     49 H18       -3.3586    1.2127    7.9530 H         1 RES1    0.0000
     50 H19       -2.3091    1.6596    9.0050 H         1 RES1    0.0000
     51 H20       -3.8230    1.8281    9.2996 H         1 RES1    0.0000
     52 H21       -1.0895    2.7915    4.4808 H         1 RES1    0.0000
     53 H22       -2.6456    3.1772    2.7908 H         1 RES1    0.0000
     54 H23       -3.1499    3.8148    4.1121 H         1 RES1    0.0000
     55 H24       -2.5178    4.7073    3.0113 H         1 RES1    0.0000
     56 H25        1.5652    5.4925    0.7917 H         1 RES1    0.0000
     57 H26        1.9953    1.5649    1.4315 H         1 RES1    0.0000
     58 H27       -0.5351    1.1445    3.7903 H         1 RES1    0.0000
     59 H28       -0.2978    0.0947    1.6466 H         1 RES1    0.0000
     60 H29        0.1472   -0.9092    2.7420 H         1 RES1    0.0000
     61 H30        1.2116   -0.1337    1.9214 H         1 RES1    0.0000
     62 H31        2.1117    0.6753    3.9892 H         1 RES1    0.0000
     63 H32        1.2127    1.2851    5.0972 H         1 RES1    0.0000
     64 H33        1.0131   -0.1894    4.6597 H         1 RES1    0.0000
     65 H34        2.9685    4.3105   -0.6254 H         1 RES1    0.0000
     66 H35        1.7694    2.6746   -1.6033 H         1 RES1    0.0000
     67 H36        2.5943    1.5983   -0.8495 H         1 RES1    0.0000
     68 H37        3.2742    2.4824   -1.9268 H         1 RES1    0.0000
     69 H38        4.9558    3.1786   -0.4465 H         1 RES1    0.0000
     70 H39        4.6193    3.9471    0.8586 H         1 RES1    0.0000
     71 H40        4.3922    2.4156    0.7808 H         1 RES1    0.0000
     72 H41       -0.8374    6.1135    3.2445 H         1 RES1    0.0000
     73 H42        1.3827    7.3192    2.0642 H         1 RES1    0.0000
     74 H43        0.3605    8.0710    2.9571 H         1 RES1    0.0000
     75 H44        1.2777    6.9823    3.5752 H         1 RES1    0.0000
     76 H45       -1.8037    5.9590    1.1423 H         1 RES1    0.0000
     77 H46       -0.5693    6.6537    0.5097 H         1 RES1    0.0000
     78 H47       -1.5082    7.4487    1.4550 H         1 RES1    0.0000
@<TRIPOS>BOND
     1    1    4 1
     2    2    7 2
     3    3    6 1
     4    4   10 1
     5    5    6 1
     6    6   36 1
     7    7    3 1
     8    8    7 1
     9    9    8 1
    10   10    9 1
    11   11   10 1
    12   12   11 1
    13   13   12 1
    14   14   12 1
    15   15    4 1
    16   16   15 1
    17   17   15 1
    18   18   17 ar
    19   19   18 ar
    20   20   19 ar
    21   21   20 ar
    22   22   17 ar
    23   23   22 1
    24   24   23 1
    25   25   23 1
    26   26   20 1
    27   27   26 1
    28   28   26 1
    29   29   18 1
    30   30   29 1
    31   31   29 1
    32   32    1 1
    33   33    5 1
    34   34    5 1
    35   35    5 1
    36   37    6 1
    37   38    8 1
    38   39    8 1
    39   40    9 1
    40   41    9 1
    41   42   10 1
    42   43   11 1
    43   44   11 1
    44   45   12 1
    45   46   13 1
    46   47   13 1
    47   48   13 1
    48   49   14 1
    49   50   14 1
    50   51   14 1
    51   52   15 1
    52   53   16 1
    53   54   16 1
    54   55   16 1
    55   56   19 1
    56   57   21 1
    57   58   23 1
    58   59   24 1
    59   60   24 1
    60   61   24 1
    61   62   25 1
    62   63   25 1
    63   64   25 1
    64   65   26 1
    65   66   27 1
    66   67   27 1
    67   68   27 1
    68   69   28 1
    69   70   28 1
    70   71   28 1
    71   72   29 1
    72   73   30 1
    73   74   30 1
    74   75   30 1
    75   76   31 1
    76   77   31 1
    77   78   31 1
    78   21   22 ar
@<TRIPOS>SUBSTRUCTURE
     1 RES1 1

@<TRIPOS>CRYSIN
  11.4084   13.9228   18.0750  90.0000  90.0000  90.0000  29 1

