# MOL2 file generated by ConQuest
# Please check atom types

@<TRIPOS>MOLECULE
UJOKOT
    34    34     1
SMALL
NO_CHARGES
****
Generated from CSD

@<TRIPOS>ATOM
      1 O1        -0.0710   10.9257    3.7508 O.3       1 RES1    0.0000
      2 H1         0.2748   10.5677    3.0989 H         1 RES1    0.0000
      3 N1         0.8172   11.8545    4.2957 N.2       1 RES1    0.0000
      4 N2         1.0897   13.5415    7.2732 N.2       1 RES1    0.0000
      5 C1        -0.9161   11.9639    6.0229 C.3       1 RES1    0.0000
      6 H2        -1.1917   12.6597    6.6258 H         1 RES1    0.0000
      7 H3        -0.8201   11.1415    6.5065 H         1 RES1    0.0000
      8 H4        -1.5781   11.8560    5.3354 H         1 RES1    0.0000
      9 C2         0.3854   12.3313    5.4045 C.2       1 RES1    0.0000
     10 C3         1.2844   13.2929    6.0430 C.2       1 RES1    0.0000
     11 C4         2.3866   13.8761    5.2228 C.3       1 RES1    0.0000
     12 H5         2.0140   14.3357    4.4662 H         1 RES1    0.0000
     13 H6         2.9652   13.1741    4.9175 H         1 RES1    0.0000
     14 H7         2.8896   14.4952    5.7566 H         1 RES1    0.0000
     15 C5         1.9743   14.4249    7.9752 C.ar      1 RES1    0.0000
     16 C6         3.1618   13.9089    8.4677 C.ar      1 RES1    0.0000
     17 C7         3.9567   14.7485    9.2210 C.ar      1 RES1    0.0000
     18 H8         4.7580   14.4217    9.5609 H         1 RES1    0.0000
     19 C8         3.6118   16.0446    9.4862 C.ar      1 RES1    0.0000
     20 C9         2.4184   16.5121    8.9814 C.ar      1 RES1    0.0000
     21 H9         2.1628   17.3877    9.1653 H         1 RES1    0.0000
     22 C10        1.5921   15.7210    8.2114 C.ar      1 RES1    0.0000
     23 C11        3.5380   12.4783    8.2783 C.3       1 RES1    0.0000
     24 H10        2.8435   11.9154    8.6304 H         1 RES1    0.0000
     25 H11        4.3592   12.3001    8.7419 H         1 RES1    0.0000
     26 H12        3.6523   12.2985    7.3423 H         1 RES1    0.0000
     27 C12        4.4961   16.9499   10.3052 C.3       1 RES1    0.0000
     28 H13        4.8891   17.6144    9.7347 H         1 RES1    0.0000
     29 H14        5.1901   16.4308   10.7175 H         1 RES1    0.0000
     30 H15        3.9713   17.3799   10.9850 H         1 RES1    0.0000
     31 C13        0.2963   16.2510    7.6810 C.3       1 RES1    0.0000
     32 H16        0.3463   16.3198    6.7249 H         1 RES1    0.0000
     33 H17        0.1264   17.1172    8.0565 H         1 RES1    0.0000
     34 H18       -0.4160   15.6538    7.9217 H         1 RES1    0.0000
@<TRIPOS>BOND
     1    1    2 1
     2    3    1 1
     3    4   10 2
     4    5    6 1
     5    7    5 1
     6    8    5 1
     7    9    3 2
     8   10    9 1
     9   11   10 1
    10   12   11 1
    11   13   11 1
    12   14   11 1
    13   15    4 1
    14   16   15 ar
    15   17   16 ar
    16   18   17 1
    17   19   17 ar
    18   20   19 ar
    19   21   20 1
    20   22   15 ar
    21   23   16 1
    22   24   23 1
    23   25   23 1
    24   26   23 1
    25   27   19 1
    26   28   27 1
    27   29   27 1
    28   30   27 1
    29   31   22 1
    30   32   31 1
    31   33   31 1
    32   34   31 1
    33    5    9 1
    34   20   22 ar
@<TRIPOS>SUBSTRUCTURE
     1 RES1 1

@<TRIPOS>CRYSIN
   7.3790   15.6350   11.1670  90.0000  93.7400  90.0000  14 1

