# MOL2 file generated by ConQuest
# Please check atom types

@<TRIPOS>MOLECULE
UJOKUA
    68    70     2
SMALL
NO_CHARGES
****
Generated from CSD

@<TRIPOS>ATOM
      1 C1         2.9550    4.1493    4.4349 C.2       1 RES1    0.0000
      2 N1         3.0927    3.4959    5.5833 N.am      1 RES1    0.0000
      3 H1         2.7680    2.7250    5.6332 H         1 RES1    0.0000
      4 N2         3.3390    3.9058    1.5370 N.pl3     1 RES1    0.0000
      5 O1         3.6146    5.1507    4.1198 O.2       1 RES1    0.0000
      6 O2         3.4231    4.6985    0.6019 O.2       1 RES1    0.0000
      7 O3         4.2806    3.2681    1.9921 O.2       1 RES1    0.0000
      8 C2         1.8563    3.6750    3.5146 C.ar      1 RES1    0.0000
      9 C3         2.0041    3.6764    2.1254 C.ar      1 RES1    0.0000
     10 C4         0.9649    3.4291    1.2500 C.ar      1 RES1    0.0000
     11 H2         1.1099    3.4319    0.3100 H         1 RES1    0.0000
     12 C5        -0.2937    3.1764    1.7735 C.ar      1 RES1    0.0000
     13 H3        -1.0266    3.0108    1.1907 H         1 RES1    0.0000
     14 C6        -0.4822    3.1652    3.1448 C.ar      1 RES1    0.0000
     15 H4        -1.3462    2.9896    3.4982 H         1 RES1    0.0000
     16 C7         0.5793    3.4087    4.0093 C.ar      1 RES1    0.0000
     17 H5         0.4330    3.3939    4.9475 H         1 RES1    0.0000
     18 C8         4.0814    3.8822    6.6026 C.3       1 RES1    0.0000
     19 H6         4.2124    4.8723    6.5529 H         1 RES1    0.0000
     20 C9         3.5402    3.5409    7.9893 C.3       1 RES1    0.0000
     21 H7         3.3096    2.5790    8.0248 H         1 RES1    0.0000
     22 H8         2.7131    4.0601    8.1562 H         1 RES1    0.0000
     23 C10        4.5671    3.8575    9.0790 C.3       1 RES1    0.0000
     24 H9         4.7060    4.8369    9.1231 H         1 RES1    0.0000
     25 H10        4.2190    3.5576    9.9566 H         1 RES1    0.0000
     26 C11        5.8989    3.1701    8.8029 C.3       1 RES1    0.0000
     27 H11        5.7782    2.1880    8.8460 H         1 RES1    0.0000
     28 H12        6.5537    3.4284    9.4988 H         1 RES1    0.0000
     29 C12        6.4381    3.5567    7.4286 C.3       1 RES1    0.0000
     30 H13        7.2866    3.0754    7.2570 H         1 RES1    0.0000
     31 H14        6.6273    4.5290    7.4089 H         1 RES1    0.0000
     32 C13        5.4228    3.2092    6.3377 C.3       1 RES1    0.0000
     33 H15        5.7708    3.5027    5.4587 H         1 RES1    0.0000
     34 H16        5.2984    2.2278    6.3045 H         1 RES1    0.0000
     35 C14       10.1119    6.4362    4.5271 C.2       2 RES2    0.0000
     36 N3        10.2494    5.7756    5.6783 N.am      2 RES2    0.0000
     37 H17        9.9223    5.0342    5.7214 H         2 RES2    0.0000
     38 N4        10.5681    6.1888    1.6571 N.pl3     2 RES2    0.0000
     39 O4        10.7624    7.4431    4.2251 O.2       2 RES2    0.0000
     40 O5        10.6819    6.9707    0.7156 O.2       2 RES2    0.0000
     41 O6        11.4915    5.5351    2.1350 O.2       2 RES2    0.0000
     42 C15        9.0381    5.9424    3.5932 C.ar      2 RES2    0.0000
     43 C16        9.2212    5.9720    2.2065 C.ar      2 RES2    0.0000
     44 C17        8.2017    5.7366    1.3050 C.ar      2 RES2    0.0000
     45 H18        8.3610    5.7792    0.3695 H         2 RES2    0.0000
     46 C18        6.9420    5.4376    1.7947 C.ar      2 RES2    0.0000
     47 H19        6.2236    5.2846    1.1927 H         2 RES2    0.0000
     48 C19        6.7270    5.3605    3.1643 C.ar      2 RES2    0.0000
     49 H20        5.8664    5.1342    3.4961 H         2 RES2    0.0000
     50 C20        7.7642    5.6133    4.0520 C.ar      2 RES2    0.0000
     51 H21        7.6027    5.5607    4.9865 H         2 RES2    0.0000
     52 C21       11.3162    6.1058    6.6313 C.3       2 RES2    0.0000
     53 H22       11.4741    7.0930    6.5980 H         2 RES2    0.0000
     54 C22       10.8874    5.7358    8.0499 C.3       2 RES2    0.0000
     55 H23       10.6324    4.7794    8.0782 H         2 RES2    0.0000
     56 H24       10.0961    6.2729    8.3061 H         2 RES2    0.0000
     57 C23       12.0234    5.9924    9.0457 C.3       2 RES2    0.0000
     58 H25       12.1955    6.9665    9.1005 H         2 RES2    0.0000
     59 H26       11.7470    5.6801    9.9443 H         2 RES2    0.0000
     60 C24       13.2994    5.2828    8.6390 C.3       2 RES2    0.0000
     61 H27       13.1573    4.3034    8.6735 H         2 RES2    0.0000
     62 H28       14.0210    5.5093    9.2771 H         2 RES2    0.0000
     63 C25       13.7249    5.6854    7.2293 C.3       2 RES2    0.0000
     64 H29       13.9462    6.6507    7.2119 H         2 RES2    0.0000
     65 H30       14.5364    5.1802    6.9717 H         2 RES2    0.0000
     66 C26       12.6068    5.4005    6.2304 C.3       2 RES2    0.0000
     67 H31       12.8828    5.7075    5.3314 H         2 RES2    0.0000
     68 H32       12.4478    4.4246    6.1854 H         2 RES2    0.0000
@<TRIPOS>BOND
     1    1    2 1
     2    2    3 1
     3    4    6 2
     4    5    1 2
     5    7    4 2
     6    8    1 1
     7    9    4 1
     8   10    9 ar
     9   11   10 1
    10   12   10 ar
    11   13   12 1
    12   14   12 ar
    13   15   14 1
    14   16    8 ar
    15   17   16 1
    16   18    2 1
    17   19   18 1
    18   20   18 1
    19   21   20 1
    20   22   20 1
    21   23   20 1
    22   24   23 1
    23   25   23 1
    24   26   23 1
    25   27   26 1
    26   28   26 1
    27   29   26 1
    28   30   29 1
    29   31   29 1
    30   32   18 1
    31   33   32 1
    32   34   32 1
    33   35   36 1
    34   36   37 1
    35   38   40 2
    36   39   35 2
    37   41   38 2
    38   42   35 1
    39   43   38 1
    40   44   43 ar
    41   45   44 1
    42   46   44 ar
    43   47   46 1
    44   48   46 ar
    45   49   48 1
    46   50   42 ar
    47   51   50 1
    48   52   36 1
    49   53   52 1
    50   54   52 1
    51   55   54 1
    52   56   54 1
    53   57   54 1
    54   58   57 1
    55   59   57 1
    56   60   57 1
    57   61   60 1
    58   62   60 1
    59   63   60 1
    60   64   63 1
    61   65   63 1
    62   66   52 1
    63   67   66 1
    64   68   66 1
    65    8    9 ar
    66   14   16 ar
    67   29   32 1
    68   42   43 ar
    69   48   50 ar
    70   63   66 1
@<TRIPOS>SUBSTRUCTURE
     1 RES1 1
     2 RES2 35

@<TRIPOS>CRYSIN
  13.9913    8.8475   20.5627  90.0000  93.2780  90.0000 231 1

