# MOL2 file generated by ConQuest
# Please check atom types

@<TRIPOS>MOLECULE
UJUDOU
    38    40     1
SMALL
NO_CHARGES
****
Generated from CSD

@<TRIPOS>ATOM
      1 O1         5.0643    5.2375    8.2875 O.2       1 RES1    0.0000
      2 O2         7.2010    5.4202    8.3184 O.2       1 RES1    0.0000
      3 O3        -1.2331    5.7011   -2.5116 O.3       1 RES1    0.0000
      4 H1        -0.9053    6.2919   -2.9762 H         1 RES1    0.0000
      5 O4         1.1467    6.9177   -2.3597 O.3       1 RES1    0.0000
      6 N1         6.1413    5.2916    7.7284 N.pl3     1 RES1    0.0000
      7 N2         2.6054    5.1115    4.0506 N.2       1 RES1    0.0000
      8 N3         1.5888    5.1275    3.0752 N.3       1 RES1    0.0000
      9 C1         2.3844    7.6099   -2.2975 C.3       1 RES1    0.0000
     10 C2         0.8709    6.0171   -1.3731 C.ar      1 RES1    0.0000
     11 C3         1.7006    5.7112   -0.3047 C.ar      1 RES1    0.0000
     12 C4         1.3149    4.7507    0.6343 C.ar      1 RES1    0.0000
     13 C5         0.1105    4.0899    0.4544 C.ar      1 RES1    0.0000
     14 C6        -0.7307    4.4132   -0.5971 C.ar      1 RES1    0.0000
     15 C7        -0.3719    5.3882   -1.4963 C.ar      1 RES1    0.0000
     16 C8         2.1237    4.4268    1.8687 C.3       1 RES1    0.0000
     17 C9         3.5795    4.8357    1.9600 C.3       1 RES1    0.0000
     18 C10        3.7260    4.9766    3.4480 C.2       1 RES1    0.0000
     19 C11        4.9932    5.0348    4.1960 C.ar      1 RES1    0.0000
     20 C12        6.2189    4.9705    3.5403 C.ar      1 RES1    0.0000
     21 C13        7.4054    5.0115    4.2495 C.ar      1 RES1    0.0000
     22 C14        7.4030    5.1105    5.6225 C.ar      1 RES1    0.0000
     23 C15        6.1789    5.1808    6.2592 C.ar      1 RES1    0.0000
     24 C16        4.9839    5.1488    5.5821 C.ar      1 RES1    0.0000
     25 H2         2.3716    8.1732   -3.0925 H         1 RES1    0.0000
     26 H3         2.4129    8.1814   -1.4597 H         1 RES1    0.0000
     27 H4         3.1588    6.9685   -2.3173 H         1 RES1    0.0000
     28 H5         2.5712    6.1749   -0.2227 H         1 RES1    0.0000
     29 H6        -0.1351    3.4033    1.0803 H         1 RES1    0.0000
     30 H7        -1.6550    3.9355   -0.6845 H         1 RES1    0.0000
     31 H8         2.0643    3.4237    2.0534 H         1 RES1    0.0000
     32 H9         4.1569    4.2064    1.5504 H         1 RES1    0.0000
     33 H10        3.7469    5.6984    1.5504 H         1 RES1    0.0000
     34 H11        6.2243    4.8980    2.5894 H         1 RES1    0.0000
     35 H12        8.2562    4.9129    3.7687 H         1 RES1    0.0000
     36 H13        8.1719    5.1294    6.1107 H         1 RES1    0.0000
     37 H14        4.1937    5.2192    6.0118 H         1 RES1    0.0000
     38 H15        0.8253    4.7972    3.4059 H         1 RES1    0.0000
@<TRIPOS>BOND
     1    1    6 2
     2    2    6 2
     3    3    4 1
     4    5    9 1
     5    6   23 1
     6    7    8 1
     7    8   16 1
     8    9   25 1
     9   10    5 1
    10   11   10 ar
    11   12   11 ar
    12   13   12 ar
    13   14   13 ar
    14   15    3 1
    15   16   12 1
    16   17   16 1
    17   18    7 2
    18   19   18 1
    19   20   19 ar
    20   21   20 ar
    21   22   21 ar
    22   23   22 ar
    23   24   19 ar
    24   26    9 1
    25   27    9 1
    26   28   11 1
    27   29   13 1
    28   30   14 1
    29   31   16 1
    30   32   17 1
    31   33   17 1
    32   34   20 1
    33   35   21 1
    34   36   22 1
    35   37   24 1
    36   38    8 1
    37   10   15 ar
    38   14   15 ar
    39   17   18 1
    40   23   24 ar
@<TRIPOS>SUBSTRUCTURE
     1 RES1 1

@<TRIPOS>CRYSIN
  13.1432   13.6130    8.3381  90.0000  98.4950  90.0000  14 1

