# MOL2 file generated by ConQuest
# Please check atom types

@<TRIPOS>MOLECULE
UJUJOA
    22    23     1
SMALL
NO_CHARGES
****
Generated from CSD

@<TRIPOS>ATOM
      1 O1         2.6134   10.4251    1.4069 O.2       1 RES1    0.0000
      2 O2         3.2378   11.0812    3.3649 O.2       1 RES1    0.0000
      3 N1         0.2701    5.9495    5.0404 N.3       1 RES1    0.0000
      4 N2         0.5814    6.1551    6.3604 N.2       1 RES1    0.0000
      5 N3         2.6487   10.2931    2.6266 N.pl3     1 RES1    0.0000
      6 C1         1.2717    7.2790    6.4028 C.2       1 RES1    0.0000
      7 H1         1.6175    7.6654    7.1981 H         1 RES1    0.0000
      8 C2         1.4317    7.8355    5.1034 C.ar      1 RES1    0.0000
      9 C3         2.0531    8.9739    4.5847 C.ar      1 RES1    0.0000
     10 H2         2.5014    9.5997    5.1423 H         1 RES1    0.0000
     11 C4         1.9790    9.1381    3.2194 C.ar      1 RES1    0.0000
     12 C5         1.3225    8.2390    2.3537 C.ar      1 RES1    0.0000
     13 H3         1.3070    8.4071    1.4193 H         1 RES1    0.0000
     14 C6         0.7068    7.1220    2.8580 C.ar      1 RES1    0.0000
     15 H4         0.2594    6.5045    2.2919 H         1 RES1    0.0000
     16 C7         0.7672    6.9324    4.2488 C.ar      1 RES1    0.0000
     17 C8        -0.5206    4.7891    4.6620 C.3       1 RES1    0.0000
     18 H5        -0.9199    4.9495    3.7699 H         1 RES1    0.0000
     19 H6        -1.2609    4.6798    5.3100 H         1 RES1    0.0000
     20 C9         0.2639    3.5479    4.6182 C.1       1 RES1    0.0000
     21 C10        0.8669    2.5316    4.5659 C.1       1 RES1    0.0000
     22 H7         1.3520    1.7678    4.5197 H         1 RES1    0.0000
@<TRIPOS>BOND
     1    1    5 2
     2    2    5 2
     3    3    4 1
     4    4    6 2
     5    5   11 1
     6    6    7 1
     7    8    6 1
     8    9    8 ar
     9   10    9 1
    10   11    9 ar
    11   12   11 ar
    12   13   12 1
    13   14   12 ar
    14   15   14 1
    15   16    3 1
    16   17    3 1
    17   18   17 1
    18   19   17 1
    19   20   17 1
    20   21   20 3
    21   22   21 1
    22    8   16 ar
    23   14   16 ar
@<TRIPOS>SUBSTRUCTURE
     1 RES1 1

@<TRIPOS>CRYSIN
   4.0105   21.0705   10.7451  90.0000  96.3230  90.0000 231 1

