# MOL2 file generated by ConQuest
# Please check atom types

@<TRIPOS>MOLECULE
UJUKUF
    20    20     1
SMALL
NO_CHARGES
****
Generated from CSD

@<TRIPOS>ATOM
      1 O1         3.1145    1.0979    1.9492 O.3       1 RES1    0.0000
      2 N1         2.1222    2.0953    1.8902 N.2       1 RES1    0.0000
      3 C1         0.9454    4.0808   -0.9153 C.ar      1 RES1    0.0000
      4 C2         0.9658    3.5490    0.3768 C.ar      1 RES1    0.0000
      5 C3        -0.0011    3.9880    1.2901 C.ar      1 RES1    0.0000
      6 C4         1.9677    2.5340    0.7013 C.2       1 RES1    0.0000
      7 H1         2.9735    0.7115    2.8297 H         1 RES1    0.0000
      8 H2         1.6125    3.8097   -1.5570 H         1 RES1    0.0000
      9 H3        -0.0589    3.6296    2.2046 H         1 RES1    0.0000
     10 H4         2.5068    2.1615   -0.0365 H         1 RES1    0.0000
     11 C3D        0.0011    5.0184   -1.2901 C.ar      1 RES1    0.0000
     12 C2D       -0.9658    5.4574   -0.3768 C.ar      1 RES1    0.0000
     13 C1D       -0.9454    4.9256    0.9153 C.ar      1 RES1    0.0000
     14 H2D       -1.6125    5.1967    1.5570 H         1 RES1    0.0000
     15 C4D       -1.9677    6.4724   -0.7013 C.2       1 RES1    0.0000
     16 N1D       -2.1222    6.9111   -1.8902 N.2       1 RES1    0.0000
     17 O1D       -3.1145    7.9085   -1.9492 O.3       1 RES1    0.0000
     18 H1D       -2.9735    8.2949   -2.8297 H         1 RES1    0.0000
     19 H4D       -2.5068    6.8449    0.0365 H         1 RES1    0.0000
     20 H3D        0.0589    5.3768   -2.2046 H         1 RES1    0.0000
@<TRIPOS>BOND
     1    1    2 1
     2    2    6 2
     3    3    4 ar
     4    4    5 ar
     5    5    9 1
     6    6    4 1
     7    7    1 1
     8    8    3 1
     9   10    6 1
    10   11    3 ar
    11   12   11 ar
    12   13    5 ar
    13   14   13 1
    14   15   12 1
    15   16   15 2
    16   17   16 1
    17   18   17 1
    18   19   15 1
    19   20   11 1
    20   12   13 ar
@<TRIPOS>SUBSTRUCTURE
     1 RES1 1

@<TRIPOS>CRYSIN
  13.6142    4.5032   13.1697  90.0000 107.2630  90.0000  15 1

