# MOL2 file generated by ConQuest
# Please check atom types

@<TRIPOS>MOLECULE
UJUKEP
    20    20     1
SMALL
NO_CHARGES
****
Generated from CSD

@<TRIPOS>ATOM
      1 C1        -0.9406    3.7546    1.6662 C.ar      1 RES1    0.0000
      2 O1        -0.6891    4.3154   -2.9518 O.3       1 RES1    0.0000
      3 N1        -0.7236    3.3406   -1.9311 N.2       1 RES1    0.0000
      4 C2        -0.9001    3.0727    0.4513 C.ar      1 RES1    0.0000
      5 C3        -0.8597    3.8694   -0.7823 C.2       1 RES1    0.0000
      6 C4        -0.9406    0.9892    1.6662 C.ar      1 RES1    0.0000
      7 C5        -0.9102    1.6718    0.4597 C.ar      1 RES1    0.0000
      8 H1        -0.9363    1.1946   -0.3532 H         1 RES1    0.0000
      9 H2        -0.9406    0.0221    1.6662 H         1 RES1    0.0000
     10 H3        -0.9406    4.7409    1.6662 H         1 RES1    0.0000
     11 H4        -0.9171    4.8006   -0.6598 H         1 RES1    0.0000
     12 H5        -0.6453    3.7905   -3.8190 H         1 RES1    0.0000
     13 C5F       -0.9710    1.6718    2.8728 C.ar      1 RES1    0.0000
     14 C2F       -0.9811    3.0727    2.8812 C.ar      1 RES1    0.0000
     15 C3F       -1.0215    3.8694    4.1148 C.2       1 RES1    0.0000
     16 N1F       -1.1576    3.3406    5.2636 N.2       1 RES1    0.0000
     17 O1F       -1.1921    4.3154    6.2843 O.3       1 RES1    0.0000
     18 H5F       -1.2359    3.7905    7.1515 H         1 RES1    0.0000
     19 H4F       -0.9641    4.8006    3.9923 H         1 RES1    0.0000
     20 H1F       -0.9449    1.1946    3.6857 H         1 RES1    0.0000
@<TRIPOS>BOND
     1    1    4 ar
     2    2    3 1
     3    3    5 2
     4    4    5 1
     5    5   11 1
     6    6    7 ar
     7    7    4 ar
     8    8    7 1
     9    9    6 1
    10   10    1 1
    11   12    2 1
    12   13    6 ar
    13   14    1 ar
    14   15   14 1
    15   16   15 2
    16   17   16 1
    17   18   17 1
    18   19   15 1
    19   20   13 1
    20   13   14 ar
@<TRIPOS>SUBSTRUCTURE
     1 RES1 1

@<TRIPOS>CRYSIN
  10.1860   11.0510    7.6536  90.0000 119.4450  90.0000  15 1

