# MOL2 file generated by ConQuest
# Please check atom types

@<TRIPOS>MOLECULE
UJUKOB
    60    64     2
SMALL
NO_CHARGES
****
Generated from CSD

@<TRIPOS>ATOM
      1 O1         3.6417    3.4196   16.9875 O.2       1 RES1    0.0000
      2 O2         5.4848    3.8286   18.0367 O.2       1 RES1    0.0000
      3 N1         8.0018    1.9497   12.7762 N.3       1 RES1    0.0000
      4 N2         9.2586    2.0390   13.3129 N.2       1 RES1    0.0000
      5 N3         4.8754    3.4180   17.0526 N.pl3     1 RES1    0.0000
      6 C1         9.0948    2.3614   14.5786 C.2       1 RES1    0.0000
      7 H1         9.8056    2.4799   15.1988 H         1 RES1    0.0000
      8 C2         7.7195    2.5088   14.8998 C.ar      1 RES1    0.0000
      9 C3         6.9987    2.8719   16.0359 C.ar      1 RES1    0.0000
     10 H2         7.4303    3.0621   16.8598 H         1 RES1    0.0000
     11 C4         5.6339    2.9416   15.9048 C.ar      1 RES1    0.0000
     12 C5         4.9451    2.6409   14.7093 C.ar      1 RES1    0.0000
     13 H3         3.9968    2.6843   14.6851 H         1 RES1    0.0000
     14 C6         5.6452    2.2861   13.5845 C.ar      1 RES1    0.0000
     15 H4         5.2032    2.0818   12.7696 H         1 RES1    0.0000
     16 C7         7.0453    2.2381   13.6924 C.ar      1 RES1    0.0000
     17 C8         7.8322    1.7356   11.3454 C.3       1 RES1    0.0000
     18 H5         7.0110    1.2043   11.1893 H         1 RES1    0.0000
     19 H6         8.6014    1.2183   10.9985 H         1 RES1    0.0000
     20 C9         7.7308    3.0444   10.5941 C.ar      1 RES1    0.0000
     21 C10        8.8137    3.9249   10.5868 C.ar      1 RES1    0.0000
     22 H7         9.6213    3.6814   11.0230 H         1 RES1    0.0000
     23 C11        8.7227    5.1521    9.9473 C.ar      1 RES1    0.0000
     24 H8         9.4611    5.7499    9.9588 H         1 RES1    0.0000
     25 C12        7.5549    5.5043    9.2932 C.ar      1 RES1    0.0000
     26 H9         7.4913    6.3419    8.8507 H         1 RES1    0.0000
     27 C13        6.4818    4.6331    9.2873 C.ar      1 RES1    0.0000
     28 H10        5.6807    4.8738    8.8360 H         1 RES1    0.0000
     29 C14        6.5683    3.4057    9.9378 C.ar      1 RES1    0.0000
     30 H11        5.8251    2.8137    9.9319 H         1 RES1    0.0000
     31 O3         7.4244    2.2818   22.6382 O.2       2 RES2    0.0000
     32 O4         6.4465    2.0937   24.5502 O.2       2 RES2    0.0000
     33 N4         1.4284    2.6056   21.0361 N.3       2 RES2    0.0000
     34 N5         0.6020    2.3526   22.0968 N.2       2 RES2    0.0000
     35 N6         6.4160    2.2591   23.3400 N.pl3     2 RES2    0.0000
     36 C15        1.3829    2.2037   23.1455 C.2       2 RES2    0.0000
     37 H12        1.0706    2.0342   24.0274 H         2 RES2    0.0000
     38 C16        2.7573    2.3294   22.7898 C.ar      2 RES2    0.0000
     39 C17        3.9844    2.2287   23.4528 C.ar      2 RES2    0.0000
     40 H13        4.0367    2.0426   24.3821 H         2 RES2    0.0000
     41 C18        5.1127    2.4132   22.6888 C.ar      2 RES2    0.0000
     42 C19        5.0911    2.7230   21.3157 C.ar      2 RES2    0.0000
     43 H14        5.9060    2.8662   20.8473 H         2 RES2    0.0000
     44 C20        3.8974    2.8184   20.6550 C.ar      2 RES2    0.0000
     45 H15        3.8576    3.0258   19.7293 H         2 RES2    0.0000
     46 C21        2.7334    2.5964   21.4065 C.ar      2 RES2    0.0000
     47 C22        0.8872    2.6227   19.6840 C.3       2 RES2    0.0000
     48 H16        1.4551    3.2014   19.1177 H         2 RES2    0.0000
     49 H17       -0.0203    3.0167   19.7048 H         2 RES2    0.0000
     50 C23        0.8116    1.2424   19.0615 C.ar      2 RES2    0.0000
     51 C24       -0.2414    0.3905   19.3736 C.ar      2 RES2    0.0000
     52 H18       -0.9075    0.6676   19.9910 H         2 RES2    0.0000
     53 C25       -0.3232   -0.8663   18.7838 C.ar      2 RES2    0.0000
     54 H19       -1.0463   -1.4436   18.9979 H         2 RES2    0.0000
     55 C26        0.6463   -1.2785   17.8855 C.ar      2 RES2    0.0000
     56 H20        0.5807   -2.1322   17.4738 H         2 RES2    0.0000
     57 C27        1.7094   -0.4485   17.5883 C.ar      2 RES2    0.0000
     58 H21        2.3835   -0.7354   16.9821 H         2 RES2    0.0000
     59 C28        1.7917    0.8096   18.1781 C.ar      2 RES2    0.0000
     60 H22        2.5251    1.3778   17.9753 H         2 RES2    0.0000
@<TRIPOS>BOND
     1    1    5 2
     2    2    5 2
     3    3    4 1
     4    4    6 2
     5    5   11 1
     6    6    7 1
     7    8    6 1
     8    9    8 ar
     9   10    9 1
    10   11    9 ar
    11   12   11 ar
    12   13   12 1
    13   14   12 ar
    14   15   14 1
    15   16    3 1
    16   17    3 1
    17   18   17 1
    18   19   17 1
    19   20   17 1
    20   21   20 ar
    21   22   21 1
    22   23   21 ar
    23   24   23 1
    24   25   23 ar
    25   26   25 1
    26   27   25 ar
    27   28   27 1
    28   29   20 ar
    29   30   29 1
    30   31   35 2
    31   32   35 2
    32   33   34 1
    33   34   36 2
    34   35   41 1
    35   36   37 1
    36   38   36 1
    37   39   38 ar
    38   40   39 1
    39   41   39 ar
    40   42   41 ar
    41   43   42 1
    42   44   42 ar
    43   45   44 1
    44   46   33 1
    45   47   33 1
    46   48   47 1
    47   49   47 1
    48   50   47 1
    49   51   50 ar
    50   52   51 1
    51   53   51 ar
    52   54   53 1
    53   55   53 ar
    54   56   55 1
    55   57   55 ar
    56   58   57 1
    57   59   50 ar
    58   60   59 1
    59    8   16 ar
    60   14   16 ar
    61   27   29 ar
    62   38   46 ar
    63   44   46 ar
    64   57   59 ar
@<TRIPOS>SUBSTRUCTURE
     1 RES1 1
     2 RES2 31

@<TRIPOS>CRYSIN
  14.0236    6.9976   25.3551  90.0000 105.2450  90.0000 231 1

