# MOL2 file generated by ConQuest
# Please check atom types

@<TRIPOS>MOLECULE
UJULAM
    26    26     1
SMALL
NO_CHARGES
****
Generated from CSD

@<TRIPOS>ATOM
      1 O1         6.0852    3.4042   11.9486 O.3       1 RES1    0.0000
      2 H1         6.3471    2.7592   12.6904 H         1 RES1    0.0000
      3 O2         0.6587    0.1790    4.2065 O.3       1 RES1    0.0000
      4 H2         0.4791    0.7758    3.4452 H         1 RES1    0.0000
      5 N1         5.3776    2.5915   11.0057 N.2       1 RES1    0.0000
      6 N2         1.3260    0.9917    5.1525 N.2       1 RES1    0.0000
      7 C1         4.1124    2.5162    9.0498 C.ar      1 RES1    0.0000
      8 C2         4.2215    1.1196    8.9505 C.ar      1 RES1    0.0000
      9 H3         4.7614    0.6436    9.5713 H         1 RES1    0.0000
     10 C3         3.5495    0.4291    7.9577 C.ar      1 RES1    0.0000
     11 H4         3.6687   -0.5101    7.8939 H         1 RES1    0.0000
     12 C4         2.7175    1.0514    7.0624 C.ar      1 RES1    0.0000
     13 C5         2.5625    2.4452    7.1892 C.ar      1 RES1    0.0000
     14 H5         1.9681    2.9070    6.6096 H         1 RES1    0.0000
     15 C6         3.2598    3.1385    8.1385 C.ar      1 RES1    0.0000
     16 H6         3.1592    4.0820    8.1780 H         1 RES1    0.0000
     17 C7         4.8525    3.3133   10.0952 C.2       1 RES1    0.0000
     18 C8         4.9195    4.7838    9.9733 C.3       1 RES1    0.0000
     19 H7         5.4554    5.1476   10.7079 H         1 RES1    0.0000
     20 H8         4.0140    5.1561   10.0129 H         1 RES1    0.0000
     21 H9         5.3342    5.0211    9.1176 H         1 RES1    0.0000
     22 C9         1.9847    0.3339    5.9735 C.2       1 RES1    0.0000
     23 C10        2.0494   -1.2048    5.9630 C.3       1 RES1    0.0000
     24 H10        1.5631   -1.5473    5.1848 H         1 RES1    0.0000
     25 H11        1.6408   -1.5544    6.7831 H         1 RES1    0.0000
     26 H12        2.9850   -1.4918    5.9162 H         1 RES1    0.0000
@<TRIPOS>BOND
     1    1    2 1
     2    3    4 1
     3    5    1 1
     4    6    3 1
     5    7    8 ar
     6    8    9 1
     7   10    8 ar
     8   11   10 1
     9   12   10 ar
    10   13   12 ar
    11   14   13 1
    12   15    7 ar
    13   16   15 1
    14   17    5 2
    15   18   17 1
    16   19   18 1
    17   20   18 1
    18   21   18 1
    19   22    6 2
    20   23   22 1
    21   24   23 1
    22   25   23 1
    23   26   23 1
    24    7   17 1
    25   12   22 1
    26   13   15 ar
@<TRIPOS>SUBSTRUCTURE
     1 RES1 1

@<TRIPOS>CRYSIN
   8.1553   14.2080    8.5134  90.0000 108.5250  90.0000  14 1

