# MOL2 file generated by ConQuest
# Please check atom types

@<TRIPOS>MOLECULE
UKABAJ
    46    50     1
SMALL
USER_CHARGES
****
Generated from CSD

@<TRIPOS>ATOM
      1 O1         4.4490    4.8602    1.2078 O.3       1 RES1    0.0000
      2 O2         6.2900    4.0525    6.7908 O.2       1 RES1    0.0000
      3 O3         7.1512    4.0144    4.7408 O.3       1 RES1    0.0000
      4 O4         8.0866    2.2803    2.4355 O.3       1 RES1    0.0000
      5 O5         4.4834    2.7010    2.0821 O.3       1 RES1    0.0000
      6 O6         7.2951    0.7427    0.8544 O.3       1 RES1    0.0000
      7 O7         7.4700    4.8745    2.6248 O.3       1 RES1    0.0000
      8 O8         7.5099    7.1724    2.5006 O.2       1 RES1   -1.0000
      9 N1         6.7948    6.2041    2.8054 N.pl3     1 RES1    1.0000
     10 C1         4.2752    4.0857    2.3522 C.3       1 RES1    0.0000
     11 H1         3.3586    4.2068    2.6769 H         1 RES1    0.0000
     12 C2         5.2527    4.6149    3.4210 C.3       1 RES1    0.0000
     13 C3         6.6863    4.0056    3.3628 C.3       1 RES1    0.0000
     14 C4         6.7472    2.6092    2.8089 C.3       1 RES1    0.0000
     15 H2         6.4627    1.9882    3.5113 H         1 RES1    0.0000
     16 C5         5.8173    2.4491    1.6280 C.3       1 RES1    0.0000
     17 H3         6.0619    3.0604    0.9030 H         1 RES1    0.0000
     18 C6         5.9269    0.9999    1.1791 C.3       1 RES1    0.0000
     19 H4         5.6346    0.4082    1.8885 H         1 RES1    0.0000
     20 H5         5.3656    0.8496    0.4020 H         1 RES1    0.0000
     21 C7         3.5003    4.5407    0.1598 C.3       1 RES1    0.0000
     22 H6         3.6719    5.0915   -0.6061 H         1 RES1    0.0000
     23 H7         2.6081    4.6989    0.4767 H         1 RES1    0.0000
     24 H8         3.5933    3.6150   -0.0834 H         1 RES1    0.0000
     25 C8         4.8265    4.2986    4.8502 C.3       1 RES1    0.0000
     26 H9         4.2974    5.0251    5.2175 H         1 RES1    0.0000
     27 H10        4.2985    3.4861    4.8780 H         1 RES1    0.0000
     28 C9         5.5837    6.0582    3.2291 C.2       1 RES1    0.0000
     29 C10        4.6992    7.2241    3.4297 C.3       1 RES1    0.0000
     30 H11        5.1763    8.0288    3.2092 H         1 RES1    0.0000
     31 H12        4.4191    7.2593    4.3466 H         1 RES1    0.0000
     32 H13        3.9299    7.1421    2.8619 H         1 RES1    0.0000
     33 C11        8.1531    0.9218    1.9562 C.3       1 RES1    0.0000
     34 H14        7.8951    0.3066    2.6752 H         1 RES1    0.0000
     35 C12        9.5767    0.6523    1.5499 C.ar      1 RES1    0.0000
     36 C13       10.2209   -0.4668    2.0214 C.ar      1 RES1    0.0000
     37 H15        9.7693   -1.0644    2.5727 H         1 RES1    0.0000
     38 C14       11.5427   -0.7089    1.6793 C.ar      1 RES1    0.0000
     39 H16       11.9822   -1.4569    2.0144 H         1 RES1    0.0000
     40 C15       12.1969    0.1523    0.8509 C.ar      1 RES1    0.0000
     41 H17       13.0914    0.0039    0.6425 H         1 RES1    0.0000
     42 C16       11.5471    1.2284    0.3239 C.ar      1 RES1    0.0000
     43 H18       11.9899    1.7889   -0.2718 H         1 RES1    0.0000
     44 C17       10.2342    1.4960    0.6694 C.ar      1 RES1    0.0000
     45 H19        9.7958    2.2362    0.3126 H         1 RES1    0.0000
     46 C18        6.0940    4.1306    5.6221 C.2       1 RES1    0.0000
@<TRIPOS>BOND
     1    1   10 1
     2    2   46 2
     3    3   13 1
     4    4   14 1
     5    5   10 1
     6    6   18 1
     7    7    9 1
     8    8    9 1
     9    9   28 2
    10   10   11 1
    11   12   10 1
    12   13    7 1
    13   14   13 1
    14   15   14 1
    15   16    5 1
    16   17   16 1
    17   18   16 1
    18   19   18 1
    19   20   18 1
    20   21    1 1
    21   22   21 1
    22   23   21 1
    23   24   21 1
    24   25   12 1
    25   26   25 1
    26   27   25 1
    27   28   12 1
    28   29   28 1
    29   30   29 1
    30   31   29 1
    31   32   29 1
    32   33    4 1
    33   34   33 1
    34   35   33 1
    35   36   35 ar
    36   37   36 1
    37   38   36 ar
    38   39   38 1
    39   40   38 ar
    40   41   40 1
    41   42   40 ar
    42   43   42 1
    43   44   35 ar
    44   45   44 1
    45   46    3 1
    46    6   33 1
    47   12   13 1
    48   14   16 1
    49   25   46 1
    50   42   44 ar
@<TRIPOS>SUBSTRUCTURE
     1 RES1 1

@<TRIPOS>CRYSIN
  11.0700   19.5300    8.6828  90.0000  90.0000  90.0000  19 1

