# MOL2 file generated by ConQuest
# Please check atom types

@<TRIPOS>MOLECULE
UKADOB
    47    52     1
SMALL
USER_CHARGES
****
Generated from CSD

@<TRIPOS>ATOM
      1 O1         6.4290   10.3813    1.5727 O.2       1 RES1   -1.0000
      2 O2         5.3135    8.3981    1.4105 O.3       1 RES1    0.0000
      3 O3         3.9020   16.0288    5.2400 O.2       1 RES1    0.0000
      4 N1         5.4398    9.7385    1.9142 N.pl3     1 RES1    1.0000
      5 N2         4.1278    7.8873    1.8904 N.2       1 RES1    0.0000
      6 N3         4.6361   11.3609    4.6169 N.ar      1 RES1    0.0000
      7 C1         4.3881    9.9837    2.6739 C.2       1 RES1    0.0000
      8 C2         3.5647    8.8181    2.6356 C.2       1 RES1    0.0000
      9 C3         2.2415    8.5967    3.2292 C.ar      1 RES1    0.0000
     10 C4         1.5841    9.5906    3.9553 C.ar      1 RES1    0.0000
     11 H1         2.0138   10.4372    4.1006 H         1 RES1    0.0000
     12 C5         0.3216    9.3632    4.4719 C.ar      1 RES1    0.0000
     13 H2        -0.1257   10.0410    4.9591 H         1 RES1    0.0000
     14 C6        -0.3014    8.1377    4.2860 C.ar      1 RES1    0.0000
     15 H3        -1.1825    7.9393    4.6585 H         1 RES1    0.0000
     16 C7         0.3499    7.1420    3.5677 C.ar      1 RES1    0.0000
     17 H4        -0.0872    6.2504    3.4462 H         1 RES1    0.0000
     18 C8         1.6032    7.3656    3.0398 C.ar      1 RES1    0.0000
     19 H5         2.0643    6.6995    2.5433 H         1 RES1    0.0000
     20 C9         4.2702   11.3183    3.3136 C.ar      1 RES1    0.0000
     21 C10        3.8499   12.4049    2.5408 C.ar      1 RES1    0.0000
     22 C11        3.5389   12.2098    1.0730 C.3       1 RES1    0.0000
     23 H6         2.9784   11.3900    0.9716 H         1 RES1    0.0000
     24 H7         4.4041   12.0654    0.6189 H         1 RES1    0.0000
     25 C12        2.8364   13.3997    0.4255 C.3       1 RES1    0.0000
     26 H8         1.8609   13.4125    0.6644 H         1 RES1    0.0000
     27 H9         2.8973   13.3070   -0.5224 H         1 RES1    0.0000
     28 C13        3.4636   14.7148    0.8636 C.3       1 RES1    0.0000
     29 H10        3.0288   15.4575    0.4093 H         1 RES1    0.0000
     30 H11        4.4288   14.7434    0.5978 H         1 RES1    0.0000
     31 C14        3.3453   14.8961    2.3773 C.3       1 RES1    0.0000
     32 H12        2.3981   15.0703    2.6210 H         1 RES1    0.0000
     33 H13        3.8758   15.6720    2.6919 H         1 RES1    0.0000
     34 C15        3.7791   13.6746    3.1480 C.ar      1 RES1    0.0000
     35 C16        4.1439   13.7259    4.4858 C.ar      1 RES1    0.0000
     36 C17        4.2278   14.8747    5.4395 C.2       1 RES1    0.0000
     37 C18        4.7712   14.3005    6.7085 C.ar      1 RES1    0.0000
     38 C19        5.0722   14.9357    7.9050 C.ar      1 RES1    0.0000
     39 H14        4.9483   15.8866    8.0026 H         1 RES1    0.0000
     40 C20        5.5499   14.1492    8.9507 C.ar      1 RES1    0.0000
     41 H15        5.7769   14.5644    9.8206 H         1 RES1    0.0000
     42 C21        5.7172   12.7775    8.7993 C.ar      1 RES1    0.0000
     43 H16        6.0212   12.2319    9.5555 H         1 RES1    0.0000
     44 C22        5.4339   12.1400    7.5843 C.ar      1 RES1    0.0000
     45 H17        5.5620   11.1797    7.4980 H         1 RES1    0.0000
     46 C23        4.9563   12.9211    6.5464 C.ar      1 RES1    0.0000
     47 C24        4.5682   12.5709    5.1581 C.ar      1 RES1    0.0000
@<TRIPOS>BOND
     1    1    4 1
     2    2    4 1
     3    3   36 2
     4    4    7 2
     5    5    2 1
     6    6   20 ar
     7    7    8 1
     8    8    5 2
     9    9    8 1
    10   10    9 ar
    11   11   10 1
    12   12   10 ar
    13   13   12 1
    14   14   12 ar
    15   15   14 1
    16   16   14 ar
    17   17   16 1
    18   18    9 ar
    19   19   18 1
    20   20    7 1
    21   21   20 ar
    22   22   21 1
    23   23   22 1
    24   24   22 1
    25   25   22 1
    26   26   25 1
    27   27   25 1
    28   28   25 1
    29   29   28 1
    30   30   28 1
    31   31   28 1
    32   32   31 1
    33   33   31 1
    34   34   21 ar
    35   35   34 ar
    36   36   35 1
    37   37   36 1
    38   38   37 ar
    39   39   38 1
    40   40   38 ar
    41   41   40 1
    42   42   40 ar
    43   43   42 1
    44   44   42 ar
    45   45   44 1
    46   46   37 ar
    47   47    6 ar
    48   16   18 ar
    49   31   34 1
    50   35   47 ar
    51   44   46 ar
    52   46   47 1
@<TRIPOS>SUBSTRUCTURE
     1 RES1 1

@<TRIPOS>CRYSIN
   7.3636   11.5643   12.4114  63.4030  86.7660  78.9160   2 1

