# MOL2 file generated by ConQuest
# Please check atom types

@<TRIPOS>MOLECULE
UKAXAG
    38    41     1
SMALL
NO_CHARGES
****
Generated from CSD

@<TRIPOS>ATOM
      1 N1         1.6281   -1.8468    4.7967 N.pl3     1 RES1    0.0000
      2 N2        -0.9832   -2.3846    3.2390 N.2       1 RES1    0.0000
      3 N3        -2.3086   -0.6857    2.4369 N.2       1 RES1    0.0000
      4 N4        -1.8998    2.1110    2.8269 N.3       1 RES1    0.0000
      5 H1        -2.5818    1.8550    2.3187 H         1 RES1    0.0000
      6 N5        -3.7796    3.4110    1.5961 N.ar      1 RES1    0.0000
      7 N6        -0.1242    3.4180    1.1095 N.ar      1 RES1    0.0000
      8 O1         1.3093   -3.0352    4.6647 O.2       1 RES1    0.0000
      9 O2         2.6812   -1.4767    5.3208 O.2       1 RES1    0.0000
     10 O3        -2.1362   -2.0399    2.5317 O.3       1 RES1    0.0000
     11 C1         0.7234   -0.8605    4.2972 C.2       1 RES1    0.0000
     12 C2         0.9792    0.4791    4.4812 C.2       1 RES1    0.0000
     13 H2         1.7642    0.7239    4.9572 H         1 RES1    0.0000
     14 C3         0.1452    1.5062    4.0045 C.2       1 RES1    0.0000
     15 H3         0.3783    2.4115    4.1746 H         1 RES1    0.0000
     16 C4        -1.0138    1.2237    3.2877 C.2       1 RES1    0.0000
     17 C5        -1.2825   -0.1784    3.0712 C.2       1 RES1    0.0000
     18 C6        -0.4502   -1.2277    3.5719 C.2       1 RES1    0.0000
     19 C7        -1.7442    3.5437    2.9282 C.3       1 RES1    0.0000
     20 H4        -1.7044    3.7953    3.8943 H         1 RES1    0.0000
     21 C8        -2.9736    4.2011    2.2986 C.ar      1 RES1    0.0000
     22 C9        -3.1798    5.5707    2.4404 C.ar      1 RES1    0.0000
     23 H5        -2.5945    6.0980    2.9706 H         1 RES1    0.0000
     24 C10       -4.2585    6.1475    1.7900 C.ar      1 RES1    0.0000
     25 H6        -4.4234    7.0810    1.8600 H         1 RES1    0.0000
     26 C11       -5.0964    5.3371    1.0317 C.ar      1 RES1    0.0000
     27 H7        -5.8371    5.7078    0.5667 H         1 RES1    0.0000
     28 C12       -4.8307    3.9799    0.9667 C.ar      1 RES1    0.0000
     29 H8        -5.4110    3.4264    0.4588 H         1 RES1    0.0000
     30 C13       -0.4767    4.0474    2.2347 C.ar      1 RES1    0.0000
     31 C14        0.2150    5.1276    2.7601 C.ar      1 RES1    0.0000
     32 H9        -0.0691    5.5415    3.5663 H         1 RES1    0.0000
     33 C15        1.3356    5.5920    2.0788 C.ar      1 RES1    0.0000
     34 H10        1.8307    6.3326    2.4101 H         1 RES1    0.0000
     35 C16        1.7152    4.9557    0.9125 C.ar      1 RES1    0.0000
     36 H11        2.4756    5.2494    0.4256 H         1 RES1    0.0000
     37 C17        0.9622    3.8810    0.4687 C.ar      1 RES1    0.0000
     38 H12        1.2288    3.4477   -0.3342 H         1 RES1    0.0000
@<TRIPOS>BOND
     1    1    8 2
     2    2   10 1
     3    3   10 1
     4    4    5 1
     5    6   21 ar
     6    7   30 ar
     7    9    1 2
     8   11    1 1
     9   12   11 2
    10   13   12 1
    11   14   12 1
    12   15   14 1
    13   16    4 1
    14   17    3 2
    15   18    2 2
    16   19    4 1
    17   20   19 1
    18   21   19 1
    19   22   21 ar
    20   23   22 1
    21   24   22 ar
    22   25   24 1
    23   26   24 ar
    24   27   26 1
    25   28    6 ar
    26   29   28 1
    27   30   19 1
    28   31   30 ar
    29   32   31 1
    30   33   31 ar
    31   34   33 1
    32   35   33 ar
    33   36   35 1
    34   37    7 ar
    35   38   37 1
    36   11   18 1
    37   14   16 2
    38   16   17 1
    39   17   18 1
    40   26   28 ar
    41   35   37 ar
@<TRIPOS>SUBSTRUCTURE
     1 RES1 1

@<TRIPOS>CRYSIN
  13.9662   10.6609   21.2035  90.0000 101.7580  90.0000  15 1

