# MOL2 file generated by ConQuest
# Please check atom types

@<TRIPOS>MOLECULE
UKEPIK01
    30    31     1
SMALL
NO_CHARGES
****
Generated from CSD

@<TRIPOS>ATOM
      1 O1         2.3858    5.2153    1.8349 O.3       1 RES1    0.0000
      2 C1         0.3105    4.2032    2.5932 C.ar      1 RES1    0.0000
      3 C2         0.1610    5.2695    3.6495 C.3       1 RES1    0.0000
      4 H1        -0.7989    5.4608    3.7029 H         1 RES1    0.0000
      5 O2         3.0569    7.1640    2.5219 O.2       1 RES1    0.0000
      6 C3         1.6093    3.2575    0.7846 C.ar      1 RES1    0.0000
      7 H2         2.3591    3.2906    0.2349 H         1 RES1    0.0000
      8 C4        -0.6108    3.1799    2.4152 C.ar      1 RES1    0.0000
      9 H3        -1.3623    3.1460    2.9615 H         1 RES1    0.0000
     10 C5         2.1674    6.3681    2.5290 C.2       1 RES1    0.0000
     11 C6         1.4085    4.2228    1.7530 C.ar      1 RES1    0.0000
     12 C7         0.8228    6.5737    3.1777 C.3       1 RES1    0.0000
     13 H4         0.2421    6.9148    2.4655 H         1 RES1    0.0000
     14 N1         1.9515    4.2145    5.0830 N.pl3     1 RES1    0.0000
     15 C8         0.5593    4.7409    5.0315 C.3       1 RES1    0.0000
     16 H5         0.4696    5.4570    5.6803 H         1 RES1    0.0000
     17 H6        -0.0535    4.0331    5.2861 H         1 RES1    0.0000
     18 C9         0.8881    7.6972    4.2156 C.3       1 RES1    0.0000
     19 H7         1.5157    7.4411    4.9102 H         1 RES1    0.0000
     20 H8         1.2361    8.4946    3.7864 H         1 RES1    0.0000
     21 O3         2.8494    4.9909    4.8690 O.2       1 RES1    0.0000
     22 C10        0.6784    2.2394    0.6419 C.ar      1 RES1    0.0000
     23 H9         0.8083    1.5768    0.0026 H         1 RES1    0.0000
     24 C11       -0.4375    2.2123    1.4471 C.ar      1 RES1    0.0000
     25 H10       -1.0738    1.5429    1.3391 H         1 RES1    0.0000
     26 C12       -0.4400    8.0368    4.8651 C.3       1 RES1    0.0000
     27 H11       -1.0792    8.2657    4.1858 H         1 RES1    0.0000
     28 H12       -0.3246    8.7815    5.4597 H         1 RES1    0.0000
     29 H13       -0.7579    7.2777    5.3605 H         1 RES1    0.0000
     30 O4         2.1266    3.0617    5.3605 O.2       1 RES1    0.0000
@<TRIPOS>BOND
     1    1   10 1
     2    2    3 1
     3    3    4 1
     4    5   10 2
     5    6    7 1
     6    8    2 ar
     7    9    8 1
     8   10   12 1
     9   11    1 1
    10   12    3 1
    11   13   12 1
    12   14   15 1
    13   15    3 1
    14   16   15 1
    15   17   15 1
    16   18   12 1
    17   19   18 1
    18   20   18 1
    19   21   14 2
    20   22    6 ar
    21   23   22 1
    22   24    8 ar
    23   25   24 1
    24   26   18 1
    25   27   26 1
    26   28   26 1
    27   29   26 1
    28   30   14 2
    29    2   11 ar
    30    6   11 ar
    31   22   24 ar
@<TRIPOS>SUBSTRUCTURE
     1 RES1 1

@<TRIPOS>CRYSIN
   5.7278    7.5300   13.2170  90.0000  99.0590  90.0000   4 1

