# MOL2 file generated by ConQuest
# Please check atom types

@<TRIPOS>MOLECULE
UKEQOR
    43    45     1
SMALL
NO_CHARGES
****
Generated from CSD

@<TRIPOS>ATOM
      1 C1         8.6268    2.9128    5.1906 C.ar      1 RES1    0.0000
      2 C2         7.5705    3.7960    5.1956 C.ar      1 RES1    0.0000
      3 H1         7.3908    4.3191    5.9428 H         1 RES1    0.0000
      4 C3         6.7887    3.8861    4.0677 C.ar      1 RES1    0.0000
      5 H2         6.0679    4.4740    4.0552 H         1 RES1    0.0000
      6 C4         7.0609    3.1094    2.9476 C.ar      1 RES1    0.0000
      7 C5         8.1263    2.2349    2.9877 C.ar      1 RES1    0.0000
      8 H3         8.3161    1.7068    2.2462 H         1 RES1    0.0000
      9 C6         8.9149    2.1341    4.1170 C.ar      1 RES1    0.0000
     10 H4         9.6322    1.5424    4.1418 H         1 RES1    0.0000
     11 C7         6.2373    3.2597    1.6892 C.3       1 RES1    0.0000
     12 H5         6.7412    2.8826    0.9388 H         1 RES1    0.0000
     13 C8         4.8760    2.5777    1.7550 C.3       1 RES1    0.0000
     14 H6         4.3631    2.9964    2.4778 H         1 RES1    0.0000
     15 C9         4.0920    2.7475    0.4643 C.2       1 RES1    0.0000
     16 C10        4.7709    2.6281   -0.8590 C.3       1 RES1    0.0000
     17 H7         4.1292    2.7593   -1.5612 H         1 RES1    0.0000
     18 H8         5.1618    1.7542   -0.9408 H         1 RES1    0.0000
     19 H9         5.4590    3.2935   -0.9267 H         1 RES1    0.0000
     20 C11        4.9969    1.0745    2.0675 C.3       1 RES1    0.0000
     21 H10        5.5098    0.6416    1.3678 H         1 RES1    0.0000
     22 H11        5.4748    0.9577    2.9029 H         1 RES1    0.0000
     23 C12        3.0774   -0.2473    1.1283 C.2       1 RES1    0.0000
     24 C13        1.7398   -0.6440    1.6400 C.ar      1 RES1    0.0000
     25 C14        0.7355   -1.3528    1.0326 C.ar      1 RES1    0.0000
     26 H12        0.8213   -1.6610    0.1591 H         1 RES1    0.0000
     27 C15       -0.4078   -1.5883    1.7718 C.ar      1 RES1    0.0000
     28 H13       -1.1105   -2.0576    1.3840 H         1 RES1    0.0000
     29 C16       -0.5265   -1.1473    3.0620 C.ar      1 RES1    0.0000
     30 H14       -1.3060   -1.3291    3.5354 H         1 RES1    0.0000
     31 C17        0.4869   -0.4362    3.6769 C.ar      1 RES1    0.0000
     32 H15        0.4011   -0.1328    4.5528 H         1 RES1    0.0000
     33 C18        1.6291   -0.1930    2.9442 C.ar      1 RES1    0.0000
     34 C19        2.8741    0.5239    3.2907 C.2       1 RES1    0.0000
     35 N1         9.4820    2.8273    6.3848 N.pl3     1 RES1    0.0000
     36 N2         3.6959    0.4455    2.1670 N.am      1 RES1    0.0000
     37 O1        10.4694    2.0948    6.3294 O.2       1 RES1    0.0000
     38 O2         9.1691    3.4641    7.3779 O.2       1 RES1    0.0000
     39 O3         5.9578    4.6276    1.4089 O.3       1 RES1    0.0000
     40 H16        6.2803    5.0982    1.9984 H         1 RES1    0.0000
     41 O4         2.8891    2.8987    0.5187 O.2       1 RES1    0.0000
     42 O5         3.5805   -0.4531    0.0459 O.2       1 RES1    0.0000
     43 O6         3.1904    1.0726    4.3183 O.2       1 RES1    0.0000
@<TRIPOS>BOND
     1    1    2 ar
     2    2    3 1
     3    4    2 ar
     4    5    4 1
     5    6    4 ar
     6    7    6 ar
     7    8    7 1
     8    9    1 ar
     9   10    9 1
    10   11    6 1
    11   12   11 1
    12   13   11 1
    13   14   13 1
    14   15   13 1
    15   16   15 1
    16   17   16 1
    17   18   16 1
    18   19   16 1
    19   20   13 1
    20   21   20 1
    21   22   20 1
    22   23   24 1
    23   24   25 ar
    24   25   26 1
    25   27   25 ar
    26   28   27 1
    27   29   27 ar
    28   30   29 1
    29   31   29 ar
    30   32   31 1
    31   33   24 ar
    32   34   33 1
    33   35    1 1
    34   36   20 1
    35   37   35 2
    36   38   35 2
    37   39   11 1
    38   40   39 1
    39   41   15 2
    40   42   23 2
    41   43   34 2
    42    7    9 ar
    43   23   36 1
    44   31   33 ar
    45   34   36 1
@<TRIPOS>SUBSTRUCTURE
     1 RES1 1

@<TRIPOS>CRYSIN
  11.2975   15.8036   20.1450  90.0000  90.0000  90.0000  61 3

