# MOL2 file generated by ConQuest
# Please check atom types

@<TRIPOS>MOLECULE
UKEYEQ
    37    38     1
SMALL
NO_CHARGES
****
Generated from CSD

@<TRIPOS>ATOM
      1 C1         4.8304   10.4163    9.1220 C.ar      1 RES1    0.0000
      2 C2         4.8950   11.7499    9.5039 C.ar      1 RES1    0.0000
      3 C3         5.3223   12.6924    8.5848 C.ar      1 RES1    0.0000
      4 C4         5.6909   12.2899    7.3149 C.ar      1 RES1    0.0000
      5 C5         5.6481   10.9483    6.9574 C.ar      1 RES1    0.0000
      6 C6         5.2061    9.9676    7.8516 C.ar      1 RES1    0.0000
      7 C7         5.2284    8.5460    7.4179 C.2       1 RES1    0.0000
      8 C8         4.7407    8.1792    6.2244 C.2       1 RES1    0.0000
      9 C9         4.8725    6.8135    5.6029 C.3       1 RES1    0.0000
     10 C10        5.9556    6.0008    6.3062 C.3       1 RES1    0.0000
     11 C11        5.8022    6.1072    7.8219 C.3       1 RES1    0.0000
     12 C12        5.8877    7.5385    8.2920 C.2       1 RES1    0.0000
     13 N1         4.2773    9.4806   10.1109 N.pl3     1 RES1    0.0000
     14 O1         3.5942    8.5438    9.7029 O.2       1 RES1    0.0000
     15 O2         4.4949    9.7069   11.2987 O.2       1 RES1    0.0000
     16 C13        5.1208    6.9580    4.0836 C.3       1 RES1    0.0000
     17 C14        3.8540    7.1719    3.3000 C.3       1 RES1    0.0000
     18 C15        5.9910    4.5271    5.8535 C.3       1 RES1    0.0000
     19 C16        4.7305    3.8429    6.1310 C.1       1 RES1    0.0000
     20 N2         3.7390    3.3275    6.3595 N.1       1 RES1    0.0000
     21 O3         6.4487    7.8538    9.3283 O.2       1 RES1    0.0000
     22 H1         4.6363   12.0069   10.3926 H         1 RES1    0.0000
     23 H2         5.3492   13.6039    8.8501 H         1 RES1    0.0000
     24 H3         6.0201   12.9281    6.6949 H         1 RES1    0.0000
     25 H4         5.9413   10.6551    6.0935 H         1 RES1    0.0000
     26 H5         4.2628    8.8560    5.6902 H         1 RES1    0.0000
     27 H6         4.0117    6.3522    5.7256 H         1 RES1    0.0000
     28 H7         6.8555    6.3787    6.0581 H         1 RES1    0.0000
     29 H8         4.9045    5.7653    8.0789 H         1 RES1    0.0000
     30 H9         6.5017    5.5885    8.2699 H         1 RES1    0.0000
     31 H10        5.5831    6.1393    3.7288 H         1 RES1    0.0000
     32 H11        5.7160    7.7448    3.8859 H         1 RES1    0.0000
     33 H12        4.0948    7.2794    2.3491 H         1 RES1    0.0000
     34 H13        3.3151    6.3378    3.3920 H         1 RES1    0.0000
     35 H14        3.3194    7.9950    3.6312 H         1 RES1    0.0000
     36 H15        6.1358    4.4545    4.8935 H         1 RES1    0.0000
     37 H16        6.7407    4.0312    6.3142 H         1 RES1    0.0000
@<TRIPOS>BOND
     1    1    2 ar
     2    2    3 ar
     3    3    4 ar
     4    4    5 ar
     5    5    6 ar
     6    6    1 ar
     7    7    6 1
     8    8    7 2
     9    9    8 1
    10   10    9 1
    11   11   10 1
    12   12    7 1
    13   13    1 1
    14   14   13 2
    15   15   13 2
    16   16    9 1
    17   17   16 1
    18   18   10 1
    19   19   18 1
    20   20   19 3
    21   21   12 2
    22   22    2 1
    23   23    3 1
    24   24    4 1
    25   25    5 1
    26   26    8 1
    27   27    9 1
    28   28   10 1
    29   29   11 1
    30   30   11 1
    31   31   16 1
    32   32   16 1
    33   33   17 1
    34   34   17 1
    35   35   17 1
    36   36   18 1
    37   37   18 1
    38   11   12 1
@<TRIPOS>SUBSTRUCTURE
     1 RES1 1

@<TRIPOS>CRYSIN
   8.5684   12.0261   14.1512  90.0000  90.0000  90.0000  19 1

