# MOL2 file generated by ConQuest
# Please check atom types

@<TRIPOS>MOLECULE
UKIGAY
    36    37     1
SMALL
USER_CHARGES
****
Generated from CSD

@<TRIPOS>ATOM
      1 O1         4.5327    6.2304    2.2484 O.2       1 RES1   -1.0000
      2 N1         3.9638    5.1910    1.7370 N.pl3     1 RES1    1.0000
      3 C1         2.1882    6.0744    3.9321 C.ar      1 RES1    0.0000
      4 H1         3.0926    6.0779    4.1487 H         1 RES1    0.0000
      5 C2         1.2822    6.6638    4.7949 C.ar      1 RES1    0.0000
      6 H2         1.5804    7.0489    5.5871 H         1 RES1    0.0000
      7 C3        -0.0558    6.6833    4.4871 C.ar      1 RES1    0.0000
      8 H3        -0.6635    7.0818    5.0678 H         1 RES1    0.0000
      9 C4        -0.4869    6.1164    3.3270 C.ar      1 RES1    0.0000
     10 H4        -1.3909    6.1389    3.1090 H         1 RES1    0.0000
     11 C5         0.4118    5.5071    2.4720 C.ar      1 RES1    0.0000
     12 H5         0.0998    5.1070    1.6926 H         1 RES1    0.0000
     13 C6         1.7732    5.4800    2.7523 C.ar      1 RES1    0.0000
     14 C7         2.7203    4.7944    1.8677 C.2       1 RES1    0.0000
     15 C8         2.4513    3.5893    0.9827 C.3       1 RES1    0.0000
     16 C9         3.8843    3.1110    0.6904 C.3       1 RES1    0.0000
     17 H6         4.1639    2.4499    1.3431 H         1 RES1    0.0000
     18 H7         3.9391    2.7167   -0.1950 H         1 RES1    0.0000
     19 C10        4.7539    4.3469    0.7782 C.3       1 RES1    0.0000
     20 H8         4.7720    4.7878   -0.0964 H         1 RES1    0.0000
     21 C11        6.1614    4.1226    1.2433 C.2       1 RES1    0.0000
     22 C12        7.1541    4.2956    0.3889 C.2       1 RES1    0.0000
     23 H9         6.9877    4.6172   -0.5149 H         1 RES1    0.0000
     24 H10        8.1080    4.0386    0.6683 H         1 RES1    0.0000
     25 C13        6.3620    3.6317    2.6478 C.3       1 RES1    0.0000
     26 H11        7.2832    3.3953    2.7760 H         1 RES1    0.0000
     27 H12        5.8083    2.8617    2.8001 H         1 RES1    0.0000
     28 H13        6.1206    4.3261    3.2668 H         1 RES1    0.0000
     29 C14        1.6556    2.4901    1.6893 C.3       1 RES1    0.0000
     30 H14        0.7618    2.7984    1.8547 H         1 RES1    0.0000
     31 H15        2.0789    2.2745    2.5240 H         1 RES1    0.0000
     32 H16        1.6270    1.7080    1.1338 H         1 RES1    0.0000
     33 C15        1.7632    4.0037   -0.3221 C.3       1 RES1    0.0000
     34 H17        1.6707    3.2369   -0.8928 H         1 RES1    0.0000
     35 H18        2.2928    4.6708   -0.7658 H         1 RES1    0.0000
     36 H19        0.8948    4.3626   -0.1260 H         1 RES1    0.0000
@<TRIPOS>BOND
     1    1    2 1
     2    2   14 2
     3    3    4 1
     4    5    3 ar
     5    6    5 1
     6    7    5 ar
     7    8    7 1
     8    9    7 ar
     9   10    9 1
    10   11    9 ar
    11   12   11 1
    12   13    3 ar
    13   14   13 1
    14   15   14 1
    15   16   15 1
    16   17   16 1
    17   18   16 1
    18   19    2 1
    19   20   19 1
    20   21   19 1
    21   22   21 2
    22   23   22 1
    23   24   22 1
    24   25   21 1
    25   26   25 1
    26   27   25 1
    27   28   25 1
    28   29   15 1
    29   30   29 1
    30   31   29 1
    31   32   29 1
    32   33   15 1
    33   34   33 1
    34   35   33 1
    35   36   33 1
    36   11   13 ar
    37   16   19 1
@<TRIPOS>SUBSTRUCTURE
     1 RES1 1

@<TRIPOS>CRYSIN
   9.9162   12.1827   11.4435  90.0000 106.8010  90.0000  14 1

