# MOL2 file generated by ConQuest
# Please check atom types

@<TRIPOS>MOLECULE
UKIHIH
    36    36     2
SMALL
NO_CHARGES
****
Generated from CSD

@<TRIPOS>ATOM
      1 O1         1.5585    0.2517    3.2535 O.2       1 RES1    0.0000
      2 N1         3.6340   -2.8597    8.0656 N.pl3     1 RES1    0.0000
      3 N2         1.6084    0.9336    4.2740 N.pl3     1 RES1    0.0000
      4 N3         3.3572   -1.0288    6.5419 N.pl3     1 RES1    0.0000
      5 N4         2.7336   -0.8541    5.3434 N.2       1 RES1    0.0000
      6 O2         6.0043   -0.9721    6.6079 O.2       1 RES1    0.0000
      7 O3         1.1324    2.0480    4.3983 O.2       1 RES1    0.0000
      8 N5         5.5564   -2.0838    6.7573 N.pl3     1 RES1    0.0000
      9 O4         6.1792   -3.1132    6.8928 O.2       1 RES1    0.0000
     10 C1         4.0335   -2.2496    6.7285 C.3       1 RES1    0.0000
     11 H1         3.7850   -2.8800    5.9921 H         1 RES1    0.0000
     12 O5         2.6385   -3.5433    8.0406 O.2       1 RES1    0.0000
     13 C2         2.3012    0.3794    5.4265 C.2       1 RES1    0.0000
     14 C3         3.3089    0.0922    7.3240 C.2       1 RES1    0.0000
     15 H2         3.6935    0.1973    8.1862 H         1 RES1    0.0000
     16 C4         2.6055    1.0273    6.6314 C.2       1 RES1    0.0000
     17 H3         2.3751    1.9087    6.9003 H         1 RES1    0.0000
     18 O6         4.2682   -2.5835    9.0485 O.2       1 RES1    0.0000
     19 O7        -2.4715   -2.6709    9.1776 O.2       2 RES2    0.0000
     20 N6         2.2943    0.2453   11.4347 N.pl3     2 RES2    0.0000
     21 O8        -0.4897   -3.8856    6.8716 O.2       2 RES2    0.0000
     22 N7         0.1045   -1.6997    9.5561 N.3       2 RES2    0.0000
     23 N8        -1.5649   -3.4768    9.2938 N.pl3     2 RES2    0.0000
     24 N9        -0.0866   -2.8986    7.4584 N.pl3     2 RES2    0.0000
     25 O9         3.2769   -0.4603   11.6524 O.2       2 RES2    0.0000
     26 O10        0.3943   -1.9130    6.9516 O.2       2 RES2    0.0000
     27 N10        1.2411   -1.5723   10.2992 N.2       2 RES2    0.0000
     28 O11       -1.6604   -4.6424    9.5894 O.2       2 RES2    0.0000
     29 O12        2.1349    1.3742   11.8519 O.2       2 RES2    0.0000
     30 C5        -0.5546   -0.5113    9.4028 C.2       2 RES2    0.0000
     31 H4        -1.3530   -0.3654    8.9087 H         2 RES2    0.0000
     32 C6         0.1507    0.4203   10.0932 C.2       2 RES2    0.0000
     33 H5        -0.0446    1.3437   10.2010 H         2 RES2    0.0000
     34 C7        -0.1575   -2.9617    8.9973 C.3       2 RES2    0.0000
     35 H6         0.5156   -3.6201    9.3345 H         2 RES2    0.0000
     36 C8         1.2264   -0.2965   10.6055 C.2       2 RES2    0.0000
@<TRIPOS>BOND
     1    1    3 2
     2    2   10 1
     3    3    7 2
     4    4    5 1
     5    5   13 2
     6    6    8 2
     7    8    9 2
     8   10    4 1
     9   11   10 1
    10   12    2 2
    11   13    3 1
    12   14    4 1
    13   15   14 1
    14   16   13 1
    15   17   16 1
    16   18    2 2
    17   19   23 2
    18   20   25 2
    19   21   24 2
    20   22   27 1
    21   23   28 2
    22   24   26 2
    23   27   36 2
    24   29   20 2
    25   30   22 1
    26   31   30 1
    27   32   30 2
    28   33   32 1
    29   34   22 1
    30   35   34 1
    31   36   20 1
    32    8   10 1
    33   14   16 2
    34   23   34 1
    35   24   34 1
    36   32   36 1
@<TRIPOS>SUBSTRUCTURE
     1 RES1 1
     2 RES2 19

@<TRIPOS>CRYSIN
  12.7070   11.6741   10.8273  90.0000  99.7270  90.0000  14 1

