# MOL2 file generated by ConQuest
# Please check atom types

@<TRIPOS>MOLECULE
UKIJIJ
    20    20     1
SMALL
NO_CHARGES
****
Generated from CSD

@<TRIPOS>ATOM
      1 O1        -1.1772    0.9520    7.6659 O.3       1 RES1    0.0000
      2 O2         1.7843    4.9669    2.8188 O.2       1 RES1    0.0000
      3 O3        -0.3607    5.2351    2.5191 O.2       1 RES1    0.0000
      4 O4         2.4056    3.0290    8.0362 O.2       1 RES1    0.0000
      5 O5         3.2536    1.6005    6.6426 O.2       1 RES1    0.0000
      6 O6         1.3548   -0.5075    6.7525 O.2       1 RES1    0.0000
      7 O7         0.6424    0.3976    4.9075 O.2       1 RES1    0.0000
      8 N1        -0.8411    4.1639    4.9821 N.2       1 RES1    0.0000
      9 N2        -0.7473    3.3519    5.9957 N.2       1 RES1    0.0000
     10 N3         0.4649    2.7901    5.8928 N.3       1 RES1    0.0000
     11 N4         1.1839    3.2027    4.8436 N.2       1 RES1    0.0000
     12 N5         0.6123    4.8099    3.1162 N.pl3     1 RES1    0.0000
     13 N6         2.3405    2.1536    7.2030 N.pl3     1 RES1    0.0000
     14 N7         0.9896    0.4277    6.0733 N.pl3     1 RES1    0.0000
     15 C1         0.3297    4.0475    4.3194 C.2       1 RES1    0.0000
     16 C2         0.9107    1.7746    6.8030 C.3       1 RES1    0.0000
     17 C3         0.0010    1.6128    8.0339 C.3       1 RES1    0.0000
     18 H1         0.4727    1.0922    8.7313 H         1 RES1    0.0000
     19 H2        -0.2182    2.5032    8.4071 H         1 RES1    0.0000
     20 H3        -1.7487    1.5111    7.4426 H         1 RES1    0.0000
@<TRIPOS>BOND
     1    1   17 1
     2    2   12 2
     3    3   12 2
     4    4   13 2
     5    5   13 2
     6    6   14 2
     7    7   14 2
     8    8    9 2
     9    9   10 1
    10   10   11 1
    11   11   15 2
    12   12   15 1
    13   13   16 1
    14   14   16 1
    15   15    8 1
    16   16   10 1
    17   17   16 1
    18   18   17 1
    19   19   17 1
    20   20    1 1
@<TRIPOS>SUBSTRUCTURE
     1 RES1 1

@<TRIPOS>CRYSIN
  11.4810    6.6275   12.7220  90.0000 110.4330  90.0000  14 1

