# MOL2 file generated by ConQuest
# Please check atom types

@<TRIPOS>MOLECULE
UKIMIM
    46    48     1
SMALL
NO_CHARGES
****
Generated from CSD

@<TRIPOS>ATOM
      1 C1         1.7818    7.3027    9.5863 C.ar      1 RES1    0.0000
      2 C2         0.8458    7.9230    8.7837 C.ar      1 RES1    0.0000
      3 H1         0.3483    8.6752    9.0828 H         1 RES1    0.0000
      4 C3         0.6736    7.3900    7.5186 C.ar      1 RES1    0.0000
      5 C4         1.3758    6.2913    7.0665 C.ar      1 RES1    0.0000
      6 H2         1.2174    5.9411    6.1973 H         1 RES1    0.0000
      7 C5         2.3196    5.7050    7.9029 C.ar      1 RES1    0.0000
      8 C6         2.5248    6.2175    9.1868 C.ar      1 RES1    0.0000
      9 H3         3.1643    5.8251    9.7697 H         1 RES1    0.0000
     10 N1         1.9841    7.8343   10.9500 N.pl3     1 RES1    0.0000
     11 O1         1.3732    8.8420   11.2738 O.2       1 RES1    0.0000
     12 O2         2.7391    7.2135   11.6838 O.2       1 RES1    0.0000
     13 N2        -0.3013    8.0256    6.6240 N.pl3     1 RES1    0.0000
     14 O3        -0.9587    8.9673    7.0569 O.2       1 RES1    0.0000
     15 O4        -0.4016    7.5845    5.4793 O.2       1 RES1    0.0000
     16 C7         3.0838    4.5394    7.3807 C.2       1 RES1    0.0000
     17 O5         2.8999    4.0634    6.2872 O.2       1 RES1    0.0000
     18 O6         3.9934    4.1125    8.2525 O.3       1 RES1    0.0000
     19 C8         4.8251    2.9935    7.8270 C.3       1 RES1    0.0000
     20 H4         5.1449    3.1415    6.9017 H         1 RES1    0.0000
     21 H5         4.2998    2.1547    7.8457 H         1 RES1    0.0000
     22 C9         5.9993    2.8902    8.7697 C.3       1 RES1    0.0000
     23 H6         5.6747    2.8432    9.7148 H         1 RES1    0.0000
     24 C10        6.8362    1.6438    8.4403 C.3       1 RES1    0.0000
     25 H7         6.9882    1.0963    9.2510 H         1 RES1    0.0000
     26 H8         6.3872    1.0876    7.7557 H         1 RES1    0.0000
     27 C11        8.1305    2.1972    7.9169 C.3       1 RES1    0.0000
     28 H9         8.0402    2.3772    6.9380 H         1 RES1    0.0000
     29 O7         8.3014    3.4427    8.6134 O.3       1 RES1    0.0000
     30 C12        7.0138    4.0595    8.6155 C.3       1 RES1    0.0000
     31 H10        6.8656    4.4970    7.7288 H         1 RES1    0.0000
     32 C13        9.3342    1.3242    8.1529 C.3       1 RES1    0.0000
     33 H11       10.1374    1.7782    7.8211 H         1 RES1    0.0000
     34 H12        9.2194    0.4745    7.6786 H         1 RES1    0.0000
     35 H13        9.4299    1.1524    9.1132 H         1 RES1    0.0000
     36 C14        6.9465    5.1152    9.6961 C.ar      1 RES1    0.0000
     37 C15        7.6181    4.9519   10.9087 C.ar      1 RES1    0.0000
     38 H14        8.1421    4.1741   11.0617 H         1 RES1    0.0000
     39 C16        7.5222    5.9257   11.8923 C.ar      1 RES1    0.0000
     40 H15        7.9883    5.8147   12.7124 H         1 RES1    0.0000
     41 C17        6.7542    7.0577   11.6879 C.ar      1 RES1    0.0000
     42 H16        6.6920    7.7205   12.3643 H         1 RES1    0.0000
     43 C18        6.0767    7.2204   10.4963 C.ar      1 RES1    0.0000
     44 H17        5.5418    7.9922   10.3550 H         1 RES1    0.0000
     45 C19        6.1787    6.2535    9.5057 C.ar      1 RES1    0.0000
     46 H18        5.7163    6.3745    8.6844 H         1 RES1    0.0000
@<TRIPOS>BOND
     1    1    2 ar
     2    2    3 1
     3    4    2 ar
     4    5    4 ar
     5    6    5 1
     6    7    5 ar
     7    8    1 ar
     8    9    8 1
     9   10    1 1
    10   11   10 2
    11   12   10 2
    12   13    4 1
    13   14   13 2
    14   15   13 2
    15   16    7 1
    16   17   16 2
    17   18   16 1
    18   19   18 1
    19   20   19 1
    20   21   19 1
    21   22   19 1
    22   23   22 1
    23   24   22 1
    24   25   24 1
    25   26   24 1
    26   27   24 1
    27   28   27 1
    28   29   27 1
    29   30   22 1
    30   31   30 1
    31   32   27 1
    32   33   32 1
    33   34   32 1
    34   35   32 1
    35   36   30 1
    36   37   36 ar
    37   38   37 1
    38   39   37 ar
    39   40   39 1
    40   41   39 ar
    41   42   41 1
    42   43   41 ar
    43   44   43 1
    44   45   36 ar
    45   46   45 1
    46    7    8 ar
    47   29   30 1
    48   43   45 ar
@<TRIPOS>SUBSTRUCTURE
     1 RES1 1

@<TRIPOS>CRYSIN
   8.1304   10.1754   12.5578  68.6020  84.7810  69.5820   2 1

