# MOL2 file generated by ConQuest
# Please check atom types

@<TRIPOS>MOLECULE
UKOZUP02
    55    57     1
SMALL
NO_CHARGES
****
Generated from CSD

@<TRIPOS>ATOM
      1 H1         4.1726    3.3821    2.9168 H         1 RES1    0.0000
      2 H2         7.1433    3.1609    4.9177 H         1 RES1    0.0000
      3 H3         9.4034   -1.4439   -0.9587 H         1 RES1    0.0000
      4 H4         7.6195    6.0877    1.4278 H         1 RES1    0.0000
      5 H5         9.1766   -1.3268    3.4063 H         1 RES1    0.0000
      6 H6         7.5968   -1.0406    3.2431 H         1 RES1    0.0000
      7 H7         6.4781    2.5626    0.4691 H         1 RES1    0.0000
      8 H8         9.7662    4.6569    2.3049 H         1 RES1    0.0000
      9 H9         6.2211   -3.0569   -2.2029 H         1 RES1    0.0000
     10 H10        8.2166   -0.3902    0.4283 H         1 RES1    0.0000
     11 H11        8.4585    1.8081    2.3253 H         1 RES1    0.0000
     12 H12        5.1099    3.1479    0.6731 H         1 RES1    0.0000
     13 H13        9.5395    4.7869    3.8142 H         1 RES1    0.0000
     14 H14        5.8658   -0.0260    4.0998 H         1 RES1    0.0000
     15 H15        5.0419    3.6683    4.1406 H         1 RES1    0.0000
     16 H16        5.0645    4.5918    3.0188 H         1 RES1    0.0000
     17 H17        6.3420    4.8910   -0.0612 H         1 RES1    0.0000
     18 H18        9.3051    5.9316    2.9984 H         1 RES1    0.0000
     19 H19        4.8151    1.3268    2.5231 H         1 RES1    0.0000
     20 H20        7.2869    5.1642    3.4675 H         1 RES1    0.0000
     21 H21        7.3398    1.1967    5.4868 H         1 RES1    0.0000
     22 H22        8.5946    3.0048    4.6954 H         1 RES1    0.0000
     23 H23        5.4425    1.2618    4.6097 H         1 RES1    0.0000
     24 O1         6.3685    0.5645    1.7074 O.3       1 RES1    0.0000
     25 C1         6.4849   -1.0667    0.0469 C.ar      1 RES1    0.0000
     26 O2         8.4290    2.5418    2.1413 O.3       1 RES1    0.0000
     27 C2         7.7389    4.6881    2.8433 C.3       1 RES1    0.0000
     28 O3         4.5225   -0.6192    1.2832 O.2       1 RES1    0.0000
     29 C3         7.4653    3.1831    2.9749 C.3       1 RES1    0.0000
     30 C4         7.3851    1.2293    4.6240 C.3       1 RES1    0.0000
     31 C5         5.6965    1.3867    2.6985 C.3       1 RES1    0.0000
     32 C6         8.5500    0.3265    4.2630 C.2       1 RES1    0.0000
     33 C7         5.6609   -0.3668    1.0749 C.2       1 RES1    0.0000
     34 C8         6.0419    2.8566    2.4680 C.3       1 RES1    0.0000
     35 C9         6.0223    0.8572    4.0753 C.3       1 RES1    0.0000
     36 C10        6.6043   -2.6497   -1.7011 C.ar      1 RES1    0.0000
     37 C11        7.6633    2.7239    4.3996 C.3       1 RES1    0.0000
     38 C12        7.2793    5.2149    1.5155 C.2       1 RES1    0.0000
     39 C13        5.9618    3.2208    0.9750 C.3       1 RES1    0.0000
     40 C14        8.5492   -1.5336   -1.0219 C.ar      1 RES1    0.0000
     41 N1         8.7072   -3.2039   -2.8005 N.pl3     1 RES1    0.0000
     42 O4         8.0964   -3.7905   -3.6796 O.2       1 RES1    0.0000
     43 C15        6.5219    4.5736    0.6996 C.2       1 RES1    0.0000
     44 O5         9.9023   -3.1909   -2.6904 O.2       1 RES1    0.0000
     45 C16        5.8733   -1.9759   -0.7710 C.ar      1 RES1    0.0000
     46 C17        9.1902    5.0562    3.0514 C.3       1 RES1    0.0000
     47 C18        7.8092   -0.8637   -0.0959 C.ar      1 RES1    0.0000
     48 C19        8.4245   -0.7701    3.5838 C.2       1 RES1    0.0000
     49 C20        7.9279   -2.4364   -1.8133 C.ar      1 RES1    0.0000
     50 C21        4.9844    3.6709    3.2166 C.3       1 RES1    0.0000
     51 C22        9.8660    0.6829    4.8524 C.3       1 RES1    0.0000
     52 H24       10.4866   -0.0351    4.7097 H         1 RES1    0.0000
     53 H25        9.7647    0.8351    5.7948 H         1 RES1    0.0000
     54 H26       10.1986    1.4803    4.4343 H         1 RES1    0.0000
     55 H27        4.9663   -2.1333   -0.7139 H         1 RES1    0.0000
@<TRIPOS>BOND
     1    1   50 1
     2    2   37 1
     3    3   40 1
     4    4   38 1
     5    5   48 1
     6    6   48 1
     7    7   39 1
     8    8   46 1
     9    9   36 1
    10   10   47 1
    11   11   26 1
    12   12   39 1
    13   13   46 1
    14   14   35 1
    15   15   50 1
    16   16   50 1
    17   17   43 1
    18   18   46 1
    19   19   31 1
    20   20   27 1
    21   21   30 1
    22   22   37 1
    23   23   35 1
    24   24   31 1
    25   25   33 1
    26   26   29 1
    27   27   29 1
    28   28   33 2
    29   29   34 1
    30   30   32 1
    31   31   34 1
    32   32   48 2
    33   33   24 1
    34   34   39 1
    35   35   30 1
    36   36   45 ar
    37   37   29 1
    38   38   27 1
    39   39   43 1
    40   40   47 ar
    41   41   42 2
    42   43   38 2
    43   44   41 2
    44   45   25 ar
    45   46   27 1
    46   47   25 ar
    47   49   36 ar
    48   50   34 1
    49   51   32 1
    50   52   51 1
    51   53   51 1
    52   54   51 1
    53   55   45 1
    54   30   37 1
    55   31   35 1
    56   40   49 ar
    57   41   49 1
@<TRIPOS>SUBSTRUCTURE
     1 RES1 1

@<TRIPOS>CRYSIN
   7.5590   13.0080   20.3970  90.0000  90.0000  90.0000  19 1

