# MOL2 file generated by ConQuest
# Please check atom types

@<TRIPOS>MOLECULE
UKOZUP
   110   114     2
SMALL
NO_CHARGES
****
Generated from CSD

@<TRIPOS>ATOM
      1 O1         3.2861   -1.2479    6.5983 O.3       1 RES1    0.0000
      2 H1         2.5510   -0.7611    6.5920 H         1 RES1    0.0000
      3 O2         2.0867    1.2448    6.9563 O.3       1 RES1    0.0000
      4 C1         4.3812    0.7336    7.5297 C.3       1 RES1    0.0000
      5 C2         3.7939   -1.2729    8.9386 C.3       1 RES1    0.0000
      6 H2         3.6800   -2.1784    8.9358 H         1 RES1    0.0000
      7 H3         4.4957   -1.1010    9.5461 H         1 RES1    0.0000
      8 C3         2.5447    0.8832    9.3106 C.3       1 RES1    0.0000
      9 H4         1.6546    1.2861    9.5180 H         1 RES1    0.0000
     10 H5         3.0863    1.2336    9.9518 H         1 RES1    0.0000
     11 C4         4.2588   -0.8005    7.5535 C.3       1 RES1    0.0000
     12 C5         2.4731   -0.6338    9.3645 C.3       1 RES1    0.0000
     13 H6         1.8019   -0.9291    8.7329 H         1 RES1    0.0000
     14 C6         5.5775   -1.4580    7.1101 C.3       1 RES1    0.0000
     15 H7         5.6742   -1.2204    6.1450 H         1 RES1    0.0000
     16 C7         0.4129    2.0422    5.5104 C.ar      1 RES1    0.0000
     17 C8        -1.1866    1.7257    3.3178 C.ar      1 RES1    0.0000
     18 C9         1.2805    2.2663    6.7084 C.2       1 RES1    0.0000
     19 N1        -2.0280    1.5406    2.1000 N.pl3     1 RES1    0.0000
     20 C10       -1.1187    2.9409    3.9024 C.ar      1 RES1    0.0000
     21 H8        -1.5807    3.7269    3.5927 H         1 RES1    0.0000
     22 C11       -0.3091    3.1010    5.0227 C.ar      1 RES1    0.0000
     23 H9        -0.1831    3.8975    5.4201 H         1 RES1    0.0000
     24 C12        3.1010    1.4173    8.0110 C.3       1 RES1    0.0000
     25 H10        3.2883    2.3490    8.0625 H         1 RES1    0.0000
     26 C13        0.3164    0.8149    4.8867 C.ar      1 RES1    0.0000
     27 H11        0.8327    0.0525    5.2003 H         1 RES1    0.0000
     28 C14       -0.4898    0.6535    3.7771 C.ar      1 RES1    0.0000
     29 H12       -0.5327   -0.1837    3.2697 H         1 RES1    0.0000
     30 C15        4.7435    1.2493    6.1238 C.3       1 RES1    0.0000
     31 H13        4.0645    0.9055    5.4276 H         1 RES1    0.0000
     32 H14        5.6603    0.9317    5.8783 H         1 RES1    0.0000
     33 H15        4.6340    2.1522    6.1281 H         1 RES1    0.0000
     34 C16        2.0280   -1.1023   10.7379 C.2       1 RES1    0.0000
     35 C17        5.5128    1.1679    8.4925 C.3       1 RES1    0.0000
     36 H16        5.6077    2.0866    8.3348 H         1 RES1    0.0000
     37 H17        5.1637    1.0892    9.4522 H         1 RES1    0.0000
     38 O3         1.2427    3.2654    7.3603 O.2       1 RES1    0.0000
     39 O4        -2.5048    2.5524    1.6273 O.2       1 RES1    0.0000
     40 C18        6.7495   -0.8464    7.7657 C.2       1 RES1    0.0000
     41 H18        7.6521   -1.2729    7.7188 H         1 RES1    0.0000
     42 O5        -2.1742    0.4173    1.6625 O.2       1 RES1    0.0000
     43 C19        6.7426    0.3071    8.3667 C.2       1 RES1    0.0000
     44 H19        7.4957    0.6562    8.8588 H         1 RES1    0.0000
     45 C20        5.5749   -2.9724    7.2624 C.3       1 RES1    0.0000
     46 H20        5.7795   -3.3464    8.2446 H         1 RES1    0.0000
     47 H21        6.2955   -3.2939    6.9300 H         1 RES1    0.0000
     48 H22        4.6575   -3.4251    6.8361 H         1 RES1    0.0000
     49 C21        0.8279   -1.6732   10.8645 C.2       1 RES1    0.0000
     50 H23        0.6092   -1.9422   11.7566 H         1 RES1    0.0000
     51 H24        0.2705   -2.0341    9.9161 H         1 RES1    0.0000
     52 C22        2.9347   -0.9435   11.8636 C.3       1 RES1    0.0000
     53 H25        2.6341   -1.2992   12.6768 H         1 RES1    0.0000
     54 H26        3.0299    0.1706   12.0007 H         1 RES1    0.0000
     55 H27        3.8710   -1.5748   11.6815 H         1 RES1    0.0000
     56 O6         5.6807    3.8215   17.1919 O.3       2 RES2    0.0000
     57 O7         4.1451    1.4472   17.2602 O.3       2 RES2    0.0000
     58 H28        3.9008    1.6666   17.9335 H         2 RES2    0.0000
     59 C23        7.1741    4.2578   18.9403 C.ar      2 RES2    0.0000
     60 C24        4.7409    4.1757   16.1244 C.3       2 RES2    0.0000
     61 H29        4.7092    5.1377   16.1174 H         2 RES2    0.0000
     62 N2         9.8759    2.9238   21.8598 N.pl3     2 RES2    0.0000
     63 C25        5.3245    3.6416   14.8351 C.3       2 RES2    0.0000
     64 H30        6.2334    3.9631   14.8047 H         2 RES2    0.0000
     65 H31        4.8636    4.0156   14.0854 H         2 RES2    0.0000
     66 C26        7.4425    2.9088   19.0697 C.ar      2 RES2    0.0000
     67 H32        7.0422    2.3162   18.4988 H         2 RES2    0.0000
     68 C27        3.2700    2.1062   16.3268 C.3       2 RES2    0.0000
     69 C28        8.9385    3.3910   20.8285 C.ar      2 RES2    0.0000
     70 C29        3.8114    1.6666   14.9699 C.3       2 RES2    0.0000
     71 H33        3.2067    2.0472   14.2544 H         2 RES2    0.0000
     72 H34        3.7546    0.7218   14.9098 H         2 RES2    0.0000
     73 C30        8.3291    2.4724   20.0161 C.ar      2 RES2    0.0000
     74 H35        8.5468    1.5616   20.1027 H         2 RES2    0.0000
     75 C31        6.2174    4.7781   17.9239 C.2       2 RES2    0.0000
     76 C32        5.2486    2.1325   14.7297 C.3       2 RES2    0.0000
     77 H36        5.7710    1.7821   15.3737 H         2 RES2    0.0000
     78 C33        8.7019    4.7400   20.7046 C.ar      2 RES2    0.0000
     79 H37        9.1518    5.2754   21.2295 H         2 RES2    0.0000
     80 C34        3.3528    3.6456   16.4519 C.3       2 RES2    0.0000
     81 C35        5.8169    1.5879   13.4474 C.2       2 RES2    0.0000
     82 C36        7.8178    5.1626   19.7586 C.ar      2 RES2    0.0000
     83 H38        7.6277    6.0235   19.6669 H         2 RES2    0.0000
     84 C37        2.3872    4.2978   15.4209 C.3       2 RES2    0.0000
     85 H39        2.2500    5.1573   15.7193 H         2 RES2    0.0000
     86 H40        2.7550    4.3043   14.5586 H         2 RES2    0.0000
     87 C38        2.9124    4.1298   17.8404 C.3       2 RES2    0.0000
     88 H41        3.1417    5.0261   17.9166 H         2 RES2    0.0000
     89 H42        3.4082    3.7138   18.5777 H         2 RES2    0.0000
     90 H43        1.9376    3.9763   17.9955 H         2 RES2    0.0000
     91 O8        10.1345    1.7362   21.8956 O.2       2 RES2    0.0000
     92 O9         5.9689    5.9397   17.8047 O.2       2 RES2    0.0000
     93 C39        1.8283    1.6207   16.5734 C.3       2 RES2    0.0000
     94 H44        1.6733    1.7716   17.5335 H         2 RES2    0.0000
     95 C40        1.0823    3.6429   15.3386 C.2       2 RES2    0.0000
     96 H45        0.3863    4.1600   14.8573 H         2 RES2    0.0000
     97 O10       10.3599    3.7322   22.6114 O.2       2 RES2    0.0000
     98 C41        5.8108    2.2703   12.3144 C.2       2 RES2    0.0000
     99 H46        6.2208    1.9028   11.5312 H         2 RES2    0.0000
    100 H47        5.5345    3.1889   12.2261 H         2 RES2    0.0000
    101 C42        1.6108    0.1339   16.3334 C.3       2 RES2    0.0000
    102 H48        1.6034    0.0131   15.2873 H         2 RES2    0.0000
    103 H49        0.8268   -0.1968   16.6621 H         2 RES2    0.0000
    104 H50        2.2559   -0.3674   16.9025 H         2 RES2    0.0000
    105 C43        0.8215    2.4684   15.8391 C.2       2 RES2    0.0000
    106 H51       -0.0469    2.1128   15.8245 H         2 RES2    0.0000
    107 C44        6.3021    0.1942   13.5051 C.3       2 RES2    0.0000
    108 H52        6.7143    0.0262   12.7144 H         2 RES2    0.0000
    109 H53        5.4529   -0.3412   13.9351 H         2 RES2    0.0000
    110 H54        7.0978    0.2100   14.0478 H         2 RES2    0.0000
@<TRIPOS>BOND
     1    1    2 1
     2    3   18 1
     3    4   11 1
     4    5    6 1
     5    7    5 1
     6    8    9 1
     7   10    8 1
     8   11    1 1
     9   12    5 1
    10   13   12 1
    11   14   11 1
    12   15   14 1
    13   16   18 1
    14   17   19 1
    15   18   38 2
    16   19   39 2
    17   20   17 ar
    18   21   20 1
    19   22   16 ar
    20   23   22 1
    21   24    3 1
    22   25   24 1
    23   26   16 ar
    24   27   26 1
    25   28   17 ar
    26   29   28 1
    27   30    4 1
    28   31   30 1
    29   32   30 1
    30   33   30 1
    31   34   12 1
    32   35    4 1
    33   36   35 1
    34   37   35 1
    35   40   14 1
    36   41   40 1
    37   42   19 2
    38   43   35 1
    39   44   43 1
    40   45   14 1
    41   46   45 1
    42   47   45 1
    43   48   45 1
    44   49   34 2
    45   50   49 1
    46   51   49 1
    47   52   34 1
    48   53   52 1
    49   54   52 1
    50   55   52 1
    51   56   60 1
    52   57   58 1
    53   59   66 ar
    54   60   61 1
    55   62   69 1
    56   63   60 1
    57   64   63 1
    58   65   63 1
    59   66   67 1
    60   68   57 1
    61   69   73 ar
    62   70   68 1
    63   71   70 1
    64   72   70 1
    65   73   66 ar
    66   74   73 1
    67   75   56 1
    68   76   63 1
    69   77   76 1
    70   78   69 ar
    71   79   78 1
    72   80   60 1
    73   81   76 1
    74   82   59 ar
    75   83   82 1
    76   84   80 1
    77   85   84 1
    78   86   84 1
    79   87   80 1
    80   88   87 1
    81   89   87 1
    82   90   87 1
    83   91   62 2
    84   92   75 2
    85   93   68 1
    86   94   93 1
    87   95   84 1
    88   96   95 1
    89   97   62 2
    90   98   81 2
    91   99   98 1
    92  100   98 1
    93  101   93 1
    94  102  101 1
    95  103  101 1
    96  104  101 1
    97  105   93 1
    98  106  105 1
    99  107   81 1
   100  108  107 1
   101  109  107 1
   102  110  107 1
   103    4   24 1
   104    5   11 1
   105    8   12 1
   106    8   24 1
   107   20   22 ar
   108   26   28 ar
   109   40   43 2
   110   59   75 1
   111   68   80 1
   112   70   76 1
   113   78   82 ar
   114   95  105 2
@<TRIPOS>SUBSTRUCTURE
     1 RES1 1
     2 RES2 56

@<TRIPOS>CRYSIN
   8.2650   13.1230   18.8290  90.0000  94.1130  90.0000   4 1

