# MOL2 file generated by ConQuest
# Please check atom types

@<TRIPOS>MOLECULE
ULABAM
    66    66     3
SMALL
NO_CHARGES
****
Generated from CSD

@<TRIPOS>ATOM
      1 O1         3.7220    3.2602   10.0422 O.2       1 RES1    0.0000
      2 O2         3.8716    4.1982   12.0012 O.2       1 RES1    0.0000
      3 N1         1.2804    6.3588    9.0756 N.pl3     1 RES1    0.0000
      4 N2         0.6782    6.4759    7.8371 N.2       1 RES1    0.0000
      5 N3         2.3754    4.5327    8.2232 N.pl3     1 RES1    0.0000
      6 H1         2.9091    3.8605    8.2817 H         1 RES1    0.0000
      7 H2         1.9838    4.7071    7.4780 H         1 RES1    0.0000
      8 N4         2.6350    5.2303   10.5139 N.2       1 RES1    0.0000
      9 N5         3.4439    4.1785   10.8416 N.pl3     1 RES1    0.0000
     10 C1        -0.0896    7.5475    7.9421 C.2       1 RES1    0.0000
     11 C2         0.0097    8.1373    9.2281 C.2       1 RES1    0.0000
     12 H3        -0.4394    8.8941    9.5281 H         1 RES1    0.0000
     13 C3         0.8909    7.3802    9.9399 C.2       1 RES1    0.0000
     14 C4         1.3710    7.5756   11.3365 C.3       1 RES1    0.0000
     15 H4         1.0701    6.8459   11.8833 H         1 RES1    0.0000
     16 H5         1.0209    8.4005   11.6827 H         1 RES1    0.0000
     17 H6         2.3298    7.6063   11.3435 H         1 RES1    0.0000
     18 C5        -0.9361    8.0086    6.7982 C.3       1 RES1    0.0000
     19 H7        -0.5265    7.7481    5.9702 H         1 RES1    0.0000
     20 H8        -1.0200    8.9651    6.8263 H         1 RES1    0.0000
     21 H9        -1.8073    7.6094    6.8639 H         1 RES1    0.0000
     22 C6         2.1591    5.2885    9.2672 C.2       1 RES1    0.0000
     23 O3         3.4405    6.2021    5.0619 O.2       2 RES2    0.0000
     24 O4         5.0055    5.5568    6.4218 O.2       2 RES2    0.0000
     25 N6         2.8452    9.2573    7.6677 N.pl3     2 RES2    0.0000
     26 N7         1.9074   10.2604    7.4562 N.2       2 RES2    0.0000
     27 N8         2.2742    8.4604    5.5971 N.pl3     2 RES2    0.0000
     28 H10        2.3364    7.9010    4.9464 H         2 RES2    0.0000
     29 H11        1.7365    9.1290    5.5398 H         2 RES2    0.0000
     30 N9         3.8895    7.3515    6.9999 N.2       2 RES2    0.0000
     31 N10        4.1037    6.3401    6.1098 N.pl3     2 RES2    0.0000
     32 C7         1.9547   10.9966    8.5522 C.2       2 RES2    0.0000
     33 C8         2.9086   10.4927    9.4757 C.2       2 RES2    0.0000
     34 H12        3.1098   10.8466   10.3123 H         2 RES2    0.0000
     35 C9         3.4715    9.3963    8.9055 C.2       2 RES2    0.0000
     36 C10        4.5467    8.5131    9.4394 C.3       2 RES2    0.0000
     37 H13        4.2041    7.6236    9.5536 H         2 RES2    0.0000
     38 H14        4.8479    8.8517   10.2856 H         2 RES2    0.0000
     39 H15        5.2824    8.4959    8.8228 H         2 RES2    0.0000
     40 C11        1.0842   12.2020    8.7172 C.3       2 RES2    0.0000
     41 H16        0.6736   12.4180    7.8768 H         2 RES2    0.0000
     42 H17        1.6179   12.9442    9.0125 H         2 RES2    0.0000
     43 H18        0.4029   12.0183    9.3688 H         2 RES2    0.0000
     44 C12        2.9965    8.2935    6.6733 C.2       2 RES2    0.0000
     45 O5         0.9726    4.0045   15.0135 O.2       3 RES3    0.0000
     46 O6        -0.2696    5.7190   15.5109 O.2       3 RES3    0.0000
     47 N11       -0.6315    4.3069   11.2943 N.pl3     3 RES3    0.0000
     48 N12       -0.2782    3.4700   10.2467 N.2       3 RES3    0.0000
     49 N13        0.8682    3.1318   12.5679 N.pl3     3 RES3    0.0000
     50 H19        1.3029    2.9757   13.2938 H         3 RES3    0.0000
     51 H20        1.0002    2.6423   11.8736 H         3 RES3    0.0000
     52 N14       -0.3715    5.0040   13.4423 N.2       3 RES3    0.0000
     53 N15        0.1453    4.8842   14.6975 N.pl3     3 RES3    0.0000
     54 C13       -1.0430    3.8543    9.2415 C.2       3 RES3    0.0000
     55 C14       -1.8913    4.9247    9.6129 C.2       3 RES3    0.0000
     56 H21       -2.5114    5.3533    9.0684 H         3 RES3    0.0000
     57 C15       -1.6278    5.2090   10.9163 C.2       3 RES3    0.0000
     58 C16       -2.2365    6.2565   11.7830 C.3       3 RES3    0.0000
     59 H22       -2.6079    5.8466   12.5679 H         3 RES3    0.0000
     60 H23       -2.9319    6.7079   11.2985 H         3 RES3    0.0000
     61 H24       -1.5633    6.8903   12.0414 H         3 RES3    0.0000
     62 C17       -0.9476    3.2060    7.8948 C.3       3 RES3    0.0000
     63 H25       -0.6616    3.8540    7.2470 H         3 RES3    0.0000
     64 H26       -1.8076    2.8607    7.6446 H         3 RES3    0.0000
     65 H27       -0.3123    2.4873    7.9303 H         3 RES3    0.0000
     66 C18        0.0053    4.1178   12.5204 C.2       3 RES3    0.0000
@<TRIPOS>BOND
     1    1    9 2
     2    2    9 2
     3    3    4 1
     4    4   10 2
     5    5    6 1
     6    7    5 1
     7    8    9 1
     8   10   11 1
     9   11   12 1
    10   13    3 1
    11   14   13 1
    12   15   14 1
    13   16   14 1
    14   17   14 1
    15   18   10 1
    16   19   18 1
    17   20   18 1
    18   21   18 1
    19   22    3 1
    20   23   31 2
    21   24   31 2
    22   25   26 1
    23   26   32 2
    24   27   28 1
    25   29   27 1
    26   30   31 1
    27   32   33 1
    28   33   34 1
    29   35   25 1
    30   36   35 1
    31   37   36 1
    32   38   36 1
    33   39   36 1
    34   40   32 1
    35   41   40 1
    36   42   40 1
    37   43   40 1
    38   44   25 1
    39   45   53 2
    40   46   53 2
    41   47   48 1
    42   48   54 2
    43   49   50 1
    44   51   49 1
    45   52   53 1
    46   54   55 1
    47   55   56 1
    48   57   47 1
    49   58   57 1
    50   59   58 1
    51   60   58 1
    52   61   58 1
    53   62   54 1
    54   63   62 1
    55   64   62 1
    56   65   62 1
    57   66   47 1
    58    5   22 1
    59    8   22 2
    60   11   13 2
    61   27   44 1
    62   30   44 2
    63   33   35 2
    64   49   66 1
    65   52   66 2
    66   55   57 2
@<TRIPOS>SUBSTRUCTURE
     1 RES1 1
     2 RES2 23
     3 RES3 45

@<TRIPOS>CRYSIN
   8.5457   11.8721   12.6530 105.5330  93.3380  92.3450   2 1

