# MOL2 file generated by ConQuest
# Please check atom types

@<TRIPOS>MOLECULE
ULAFIX
    32    33     1
SMALL
NO_CHARGES
****
Generated from CSD

@<TRIPOS>ATOM
      1 O1         7.1270    2.0592    3.6069 O.3       1 RES1    0.0000
      2 H1         7.5233    1.3855    3.3606 H         1 RES1    0.0000
      3 O2         6.3207    4.4965   -2.0606 O.2       1 RES1    0.0000
      4 N1         5.6748    4.7324    0.5890 N.2       1 RES1    0.0000
      5 N2         6.3463    3.6605    0.0574 N.am      1 RES1    0.0000
      6 H2         6.6041    3.0171    0.5663 H         1 RES1    0.0000
      7 N3         6.6691    2.7454    2.5139 N.2       1 RES1    0.0000
      8 N4         8.5999    0.0939   -2.6740 N.ar      1 RES1    0.0000
      9 C1         4.8226    5.9619    2.3990 C.ar      1 RES1    0.0000
     10 C2         4.1819    5.9534    3.6345 C.ar      1 RES1    0.0000
     11 H3         4.1761    5.1764    4.1463 H         1 RES1    0.0000
     12 C3         3.5530    7.0936    4.1070 C.ar      1 RES1    0.0000
     13 H4         3.1251    7.0796    4.9321 H         1 RES1    0.0000
     14 C4         3.5616    8.2439    3.3582 C.ar      1 RES1    0.0000
     15 H5         3.1478    9.0108    3.6819 H         1 RES1    0.0000
     16 C5         4.1788    8.2664    2.1312 C.ar      1 RES1    0.0000
     17 H6         4.1662    9.0418    1.6186 H         1 RES1    0.0000
     18 C6         4.8166    7.1378    1.6625 C.ar      1 RES1    0.0000
     19 H7         5.2502    7.1650    0.8406 H         1 RES1    0.0000
     20 C7         5.5226    4.7596    1.8711 C.2       1 RES1    0.0000
     21 C8         6.0396    3.8080    2.8329 C.2       1 RES1    0.0000
     22 H8         5.9049    3.9819    3.7368 H         1 RES1    0.0000
     23 C9         6.6006    3.6202   -1.2735 C.2       1 RES1    0.0000
     24 C10        7.3023    2.3588   -1.7199 C.ar      1 RES1    0.0000
     25 C11        7.1639    1.1457   -1.0834 C.ar      1 RES1    0.0000
     26 H9         6.6458    1.0696   -0.3155 H         1 RES1    0.0000
     27 C12        7.8123    0.0419   -1.6099 C.ar      1 RES1    0.0000
     28 H10        7.6886   -0.7808   -1.1933 H         1 RES1    0.0000
     29 C13        8.7302    1.2683   -3.2646 C.ar      1 RES1    0.0000
     30 H11        9.2937    1.3250   -4.0013 H         1 RES1    0.0000
     31 C14        8.0832    2.4155   -2.8556 C.ar      1 RES1    0.0000
     32 H12        8.1716    3.2080   -3.3351 H         1 RES1    0.0000
@<TRIPOS>BOND
     1    1    2 1
     2    3   23 2
     3    4    5 1
     4    5    6 1
     5    7    1 1
     6    8   27 ar
     7    9   10 ar
     8   10   11 1
     9   12   10 ar
    10   13   12 1
    11   14   12 ar
    12   15   14 1
    13   16   14 ar
    14   17   16 1
    15   18    9 ar
    16   19   18 1
    17   20    4 2
    18   21    7 2
    19   22   21 1
    20   23    5 1
    21   24   23 1
    22   25   24 ar
    23   26   25 1
    24   27   25 ar
    25   28   27 1
    26   29    8 ar
    27   30   29 1
    28   31   24 ar
    29   32   31 1
    30    9   20 1
    31   16   18 ar
    32   20   21 1
    33   29   31 ar
@<TRIPOS>SUBSTRUCTURE
     1 RES1 1

@<TRIPOS>CRYSIN
   8.5235    7.7619   20.7354  90.0000 109.0890  90.0000  14 1

