# MOL2 file generated by ConQuest
# Please check atom types

@<TRIPOS>MOLECULE
ULAKUN
   110   112     2
SMALL
NO_CHARGES
****
Generated from CSD

@<TRIPOS>ATOM
      1 N1        -0.7372    4.7168    3.5725 N.2       1 RES1    0.0000
      2 O1        -0.4099    3.3196    3.5903 O.3       1 RES1    0.0000
      3 C1         0.2611    5.3807    3.1313 C.2       1 RES1    0.0000
      4 N2         3.2503    5.2894    1.2140 N.am      1 RES1    0.0000
      5 C2         1.4613    4.5395    2.7849 C.3       1 RES1    0.0000
      6 O2         2.5569    7.1442    0.0770 O.2       1 RES1    0.0000
      7 C3         1.9604    4.6431    1.3088 C.3       1 RES1    0.0000
      8 O3         4.6080    7.0138    1.0675 O.3       1 RES1    0.0000
      9 O4        -0.1879    0.5800    2.3422 O.3       1 RES1    0.0000
     10 C4         1.9703    3.1863    0.8232 C.3       1 RES1    0.0000
     11 O5         1.4833    0.3475    0.8676 O.2       1 RES1    0.0000
     12 C5         0.7777    2.5567    1.5412 C.3       1 RES1    0.0000
     13 C6         0.8811    3.1355    2.9655 C.3       1 RES1    0.0000
     14 C7         0.1942    6.8780    2.9803 C.3       1 RES1    0.0000
     15 C8        -1.1232    7.4272    3.5326 C.3       1 RES1    0.0000
     16 C9        -1.2585    8.9425    3.4437 C.3       1 RES1    0.0000
     17 C10        1.4474    7.5474    3.5696 C.3       1 RES1    0.0000
     18 C11        1.5697    7.4220    5.0768 C.3       1 RES1    0.0000
     19 C12        3.3907    6.5439    0.7255 C.2       1 RES1    0.0000
     20 C13        5.0432    8.3505    0.6366 C.3       1 RES1    0.0000
     21 C14        5.1328    8.3853   -0.8824 C.3       1 RES1    0.0000
     22 C15        4.1255    9.4142    1.2096 C.3       1 RES1    0.0000
     23 C16        6.4262    8.4536    1.2585 C.3       1 RES1    0.0000
     24 C17        0.7547    1.0509    1.5176 C.2       1 RES1    0.0000
     25 C18       -0.2989   -0.8520    2.4162 C.3       1 RES1    0.0000
     26 N3         4.3969    2.9008    3.6036 N.2       2 RES2    0.0000
     27 O6         4.6834    4.3098    3.5829 O.3       2 RES2    0.0000
     28 C19        5.4459    2.2690    3.9708 C.2       2 RES2    0.0000
     29 N4         8.4161    2.3499    5.8318 N.am      2 RES2    0.0000
     30 O7         7.7773    0.7049    7.2828 O.2       2 RES2    0.0000
     31 C20        6.6239    3.1456    4.2906 C.3       2 RES2    0.0000
     32 O8         9.8374    0.7367    6.2893 O.3       2 RES2    0.0000
     33 C21        7.1422    3.0222    5.7519 C.3       2 RES2    0.0000
     34 O9         5.2881    6.9700    6.8253 O.3       2 RES2    0.0000
     35 C22        7.1595    4.4774    6.2523 C.3       2 RES2    0.0000
     36 O10        6.1696    7.3302    4.8177 O.2       2 RES2    0.0000
     37 C23        5.8952    5.0631    5.5950 C.3       2 RES2    0.0000
     38 C24        5.9898    4.5300    4.1677 C.3       2 RES2    0.0000
     39 C25        5.4713    0.7725    4.0981 C.3       2 RES2    0.0000
     40 C26        4.0814    0.1504    3.9797 C.3       2 RES2    0.0000
     41 C27        4.0829   -1.3549    4.2225 C.3       2 RES2    0.0000
     42 C28        6.4966    0.1697    3.1239 C.3       2 RES2    0.0000
     43 C29        6.0934    0.2110    1.6774 C.3       2 RES2    0.0000
     44 C30        8.5943    1.2136    6.5410 C.2       2 RES2    0.0000
     45 C31       10.3362   -0.4421    7.0103 C.3       2 RES2    0.0000
     46 C32       10.3631   -0.1713    8.5042 C.3       2 RES2    0.0000
     47 C33       11.7548   -0.5617    6.4700 C.3       2 RES2    0.0000
     48 C34        9.5246   -1.6697    6.6269 C.3       2 RES2    0.0000
     49 C35        5.8043    6.5649    5.6616 C.2       2 RES2    0.0000
     50 C36        5.1788    8.4008    6.9881 C.3       2 RES2    0.0000
     51 H1         3.9656    4.8538    1.4835 H         1 RES1    0.0000
     52 H2         2.2095    4.7025    3.4274 H         1 RES1    0.0000
     53 H3         1.2940    5.1627    0.7743 H         1 RES1    0.0000
     54 H4         1.8585    3.1388   -0.1599 H         1 RES1    0.0000
     55 H5         2.8144    2.7349    1.0734 H         1 RES1    0.0000
     56 H6        -0.0642    2.8948    1.1193 H         1 RES1    0.0000
     57 H7         1.4788    2.5717    3.5370 H         1 RES1    0.0000
     58 H8         0.1983    7.0698    2.0002 H         1 RES1    0.0000
     59 H9        -1.8721    7.0126    3.0366 H         1 RES1    0.0000
     60 H10       -1.2065    7.1568    4.4816 H         1 RES1    0.0000
     61 H11       -2.1221    9.2151    3.8183 H         1 RES1    0.0000
     62 H12       -1.2077    9.2203    2.5051 H         1 RES1    0.0000
     63 H13       -0.5346    9.3657    3.9501 H         1 RES1    0.0000
     64 H14        2.2485    7.1441    3.1506 H         1 RES1    0.0000
     65 H15        1.4354    8.5084    3.3297 H         1 RES1    0.0000
     66 H16        2.3858    7.8748    5.3773 H         1 RES1    0.0000
     67 H17        1.6121    6.4736    5.3225 H         1 RES1    0.0000
     68 H18        0.7905    7.8357    5.5032 H         1 RES1    0.0000
     69 H19        5.7371    7.6772   -1.1904 H         1 RES1    0.0000
     70 H20        5.4758    9.2564   -1.1696 H         1 RES1    0.0000
     71 H21        4.2421    8.2425   -1.2659 H         1 RES1    0.0000
     72 H22        3.2396    9.3387    0.7965 H         1 RES1    0.0000
     73 H23        4.4980   10.3011    1.0245 H         1 RES1    0.0000
     74 H24        4.0453    9.2891    2.1794 H         1 RES1    0.0000
     75 H25        7.0069    7.7609    0.8809 H         1 RES1    0.0000
     76 H26        6.3574    8.3284    2.2282 H         1 RES1    0.0000
     77 H27        6.8042    9.3372    1.0704 H         1 RES1    0.0000
     78 H28       -1.0086   -1.0919    3.0484 H         1 RES1    0.0000
     79 H29        0.5525   -1.2306    2.7212 H         1 RES1    0.0000
     80 H30       -0.5165   -1.2089    1.5294 H         1 RES1    0.0000
     81 H31        9.1039    2.6929    5.4040 H         2 RES2    0.0000
     82 H32        7.3631    3.0221    3.6288 H         2 RES2    0.0000
     83 H33        6.4729    2.5068    6.2878 H         2 RES2    0.0000
     84 H34        7.9752    4.9521    5.9503 H         2 RES2    0.0000
     85 H35        7.1050    4.5196    7.2398 H         2 RES2    0.0000
     86 H36        5.0885    4.6688    6.0347 H         2 RES2    0.0000
     87 H37        6.5448    5.1321    3.5933 H         2 RES2    0.0000
     88 H38        5.7987    0.5688    5.0205 H         2 RES2    0.0000
     89 H39        3.4770    0.5810    4.6341 H         2 RES2    0.0000
     90 H40        3.7228    0.3302    3.0736 H         2 RES2    0.0000
     91 H41        3.1713   -1.7017    4.1277 H         2 RES2    0.0000
     92 H42        4.4104   -1.5400    5.1271 H         2 RES2    0.0000
     93 H43        4.6667   -1.7906    3.5681 H         2 RES2    0.0000
     94 H44        7.3532    0.6566    3.2276 H         2 RES2    0.0000
     95 H45        6.6576   -0.7725    3.3801 H         2 RES2    0.0000
     96 H46        6.8022   -0.1853    1.1297 H         2 RES2    0.0000
     97 H47        5.9510    1.1404    1.4036 H         2 RES2    0.0000
     98 H48        5.2636   -0.2967    1.5546 H         2 RES2    0.0000
     99 H49       10.8971    0.6314    8.6819 H         2 RES2    0.0000
    100 H50       10.7611   -0.9365    8.9691 H         2 RES2    0.0000
    101 H51        9.4484   -0.0332    8.8284 H         2 RES2    0.0000
    102 H52       12.2682    0.2344    6.7231 H         2 RES2    0.0000
    103 H53       11.7286   -0.6363    5.4943 H         2 RES2    0.0000
    104 H54       12.1819   -1.3582    6.8475 H         2 RES2    0.0000
    105 H55        8.6148   -1.5835    6.9822 H         2 RES2    0.0000
    106 H56        9.9467   -2.4706    7.0015 H         2 RES2    0.0000
    107 H57        9.4886   -1.7459    5.6497 H         2 RES2    0.0000
    108 H58        4.7905    8.6000    7.8661 H         2 RES2    0.0000
    109 H59        4.6020    8.7663    6.2849 H         2 RES2    0.0000
    110 H60        6.0684    8.8056    6.9245 H         2 RES2    0.0000
@<TRIPOS>BOND
     1    1    2 1
     2    2   13 1
     3    3    1 2
     4    4    7 1
     5    5    3 1
     6    6   19 2
     7    7    5 1
     8    8   19 1
     9    9   24 1
    10   10    7 1
    11   11   24 2
    12   12   10 1
    13   13    5 1
    14   14    3 1
    15   15   14 1
    16   16   15 1
    17   17   14 1
    18   18   17 1
    19   19    4 1
    20   20    8 1
    21   21   20 1
    22   22   20 1
    23   23   20 1
    24   24   12 1
    25   25    9 1
    26   26   27 1
    27   27   38 1
    28   28   26 2
    29   29   33 1
    30   30   44 2
    31   31   28 1
    32   32   44 1
    33   33   31 1
    34   34   49 1
    35   35   33 1
    36   36   49 2
    37   37   35 1
    38   38   31 1
    39   39   28 1
    40   40   39 1
    41   41   40 1
    42   42   39 1
    43   43   42 1
    44   44   29 1
    45   45   32 1
    46   46   45 1
    47   47   45 1
    48   48   45 1
    49   49   37 1
    50   50   34 1
    51   51    4 1
    52   52    5 1
    53   53    7 1
    54   54   10 1
    55   55   10 1
    56   56   12 1
    57   57   13 1
    58   58   14 1
    59   59   15 1
    60   60   15 1
    61   61   16 1
    62   62   16 1
    63   63   16 1
    64   64   17 1
    65   65   17 1
    66   66   18 1
    67   67   18 1
    68   68   18 1
    69   69   21 1
    70   70   21 1
    71   71   21 1
    72   72   22 1
    73   73   22 1
    74   74   22 1
    75   75   23 1
    76   76   23 1
    77   77   23 1
    78   78   25 1
    79   79   25 1
    80   80   25 1
    81   81   29 1
    82   82   31 1
    83   83   33 1
    84   84   35 1
    85   85   35 1
    86   86   37 1
    87   87   38 1
    88   88   39 1
    89   89   40 1
    90   90   40 1
    91   91   41 1
    92   92   41 1
    93   93   41 1
    94   94   42 1
    95   95   42 1
    96   96   43 1
    97   97   43 1
    98   98   43 1
    99   99   46 1
   100  100   46 1
   101  101   46 1
   102  102   47 1
   103  103   47 1
   104  104   47 1
   105  105   48 1
   106  106   48 1
   107  107   48 1
   108  108   50 1
   109  109   50 1
   110  110   50 1
   111   12   13 1
   112   37   38 1
@<TRIPOS>SUBSTRUCTURE
     1 RES1 1
     2 RES2 26

@<TRIPOS>CRYSIN
  10.4329   12.6758   15.2821  76.4400  83.5860  82.1050   2 1

