# MOL2 file generated by ConQuest
# Please check atom types

@<TRIPOS>MOLECULE
ULAQUT
    47    48     1
SMALL
NO_CHARGES
****
Generated from CSD

@<TRIPOS>ATOM
      1 C1        11.6519    1.4211    2.0161 C.3       1 RES1    0.0000
      2 H1        11.7974    1.7548    1.0856 H         1 RES1    0.0000
      3 C2        12.7279    0.4169    2.3794 C.3       1 RES1    0.0000
      4 H2        13.6156    0.8104    2.1835 H         1 RES1    0.0000
      5 H3        12.6221   -0.3876    1.8128 H         1 RES1    0.0000
      6 C3        12.6830    0.0006    3.8459 C.3       1 RES1    0.0000
      7 H4        13.4480   -0.5975    4.0386 H         1 RES1    0.0000
      8 H5        11.8499   -0.5072    4.0157 H         1 RES1    0.0000
      9 C4        12.7379    1.2100    4.7897 C.3       1 RES1    0.0000
     10 H6        13.5775    1.7070    4.5699 H         1 RES1    0.0000
     11 C5        11.5713    2.1412    4.4392 C.3       1 RES1    0.0000
     12 H7        10.7168    1.6711    4.6070 H         1 RES1    0.0000
     13 H8        11.6008    2.9379    5.0271 H         1 RES1    0.0000
     14 C6        11.6224    2.5874    2.9826 C.3       1 RES1    0.0000
     15 H9        10.8302    3.1490    2.7889 H         1 RES1    0.0000
     16 H10       12.4286    3.1436    2.8436 H         1 RES1    0.0000
     17 C7        12.8285    0.8290    6.2938 C.3       1 RES1    0.0000
     18 C8        11.5628    0.1298    6.7866 C.3       1 RES1    0.0000
     19 H11       10.7896    0.7165    6.6475 H         1 RES1    0.0000
     20 H12       11.6522   -0.0718    7.7419 H         1 RES1    0.0000
     21 H13       11.4347   -0.7040    6.2874 H         1 RES1    0.0000
     22 C9        14.0241   -0.0969    6.5183 C.3       1 RES1    0.0000
     23 H14       14.8411    0.3433    6.2045 H         1 RES1    0.0000
     24 H15       13.8899   -0.9306    6.0209 H         1 RES1    0.0000
     25 H16       14.1080   -0.2967    7.4736 H         1 RES1    0.0000
     26 C10       13.0657    2.0874    7.1361 C.3       1 RES1    0.0000
     27 H17       13.8772    2.5407    6.8240 H         1 RES1    0.0000
     28 H18       13.1728    1.8356    8.0773 H         1 RES1    0.0000
     29 H19       12.2982    2.6909    7.0447 H         1 RES1    0.0000
     30 C11        9.3472    1.2321    1.4497 C.2       1 RES1    0.0000
     31 C12        8.0905    0.4516    1.6531 C.ar      1 RES1    0.0000
     32 C13        8.0748   -0.7464    2.3598 C.ar      1 RES1    0.0000
     33 H20        8.8750   -1.1101    2.7201 H         1 RES1    0.0000
     34 C14        6.8683   -1.3918    2.5224 C.ar      1 RES1    0.0000
     35 C15        5.6803   -0.9031    2.0343 C.ar      1 RES1    0.0000
     36 H21        4.8598   -1.3619    2.1676 H         1 RES1    0.0000
     37 C16        5.7401    0.2931    1.3387 C.ar      1 RES1    0.0000
     38 C17        6.9187    0.9803    1.1258 C.ar      1 RES1    0.0000
     39 H22        6.9284    1.7919    0.6319 H         1 RES1    0.0000
     40 N1         6.8439   -2.6514    3.2855 N.pl3     1 RES1    0.0000
     41 N2         4.4905    0.8744    0.8347 N.pl3     1 RES1    0.0000
     42 O1        10.3801    0.6854    2.0903 O.3       1 RES1    0.0000
     43 O2         9.3943    2.2338    0.7820 O.2       1 RES1    0.0000
     44 O3         7.9016   -3.0903    3.7156 O.2       1 RES1    0.0000
     45 O4         5.7617   -3.2093    3.4336 O.2       1 RES1    0.0000
     46 O5         3.4684    0.2189    0.9627 O.2       1 RES1    0.0000
     47 O6         4.5378    1.9688    0.2997 O.2       1 RES1    0.0000
@<TRIPOS>BOND
     1    1    2 1
     2    3    1 1
     3    4    3 1
     4    5    3 1
     5    6    3 1
     6    7    6 1
     7    8    6 1
     8    9    6 1
     9   10    9 1
    10   11    9 1
    11   12   11 1
    12   13   11 1
    13   14    1 1
    14   15   14 1
    15   16   14 1
    16   17    9 1
    17   18   17 1
    18   19   18 1
    19   20   18 1
    20   21   18 1
    21   22   17 1
    22   23   22 1
    23   24   22 1
    24   25   22 1
    25   26   17 1
    26   27   26 1
    27   28   26 1
    28   29   26 1
    29   30   31 1
    30   31   32 ar
    31   32   33 1
    32   34   32 ar
    33   35   34 ar
    34   36   35 1
    35   37   35 ar
    36   38   31 ar
    37   39   38 1
    38   40   34 1
    39   41   37 1
    40   42    1 1
    41   43   30 2
    42   44   40 2
    43   45   40 2
    44   46   41 2
    45   47   41 2
    46   11   14 1
    47   30   42 1
    48   37   38 ar
@<TRIPOS>SUBSTRUCTURE
     1 RES1 1

@<TRIPOS>CRYSIN
  16.4410    5.9810   18.7220  90.0000 109.4700  90.0000  14 1

