# MOL2 file generated by ConQuest
# Please check atom types

@<TRIPOS>MOLECULE
ULARII
    43    44     1
SMALL
NO_CHARGES
****
Generated from CSD

@<TRIPOS>ATOM
      1 C1         2.2807   -0.8813    9.3716 C.3       1 RES1    0.0000
      2 H1         2.6412   -0.6678   10.2794 H         1 RES1    0.0000
      3 C2         1.1091   -1.8340    9.5043 C.3       1 RES1    0.0000
      4 H2         0.3619   -1.3639    9.9523 H         1 RES1    0.0000
      5 H3         1.3762   -2.5930   10.0803 H         1 RES1    0.0000
      6 C3         0.6190   -2.3779    8.1626 C.3       1 RES1    0.0000
      7 H4         0.2580   -1.6339    7.6190 H         1 RES1    0.0000
      8 H5        -0.1141   -3.0255    8.3191 H         1 RES1    0.0000
      9 C4         1.7502   -3.0682    7.3920 C.3       1 RES1    0.0000
     10 H6         2.1169   -3.7790    7.9920 H         1 RES1    0.0000
     11 C5         2.8680   -2.0379    7.1896 C.3       1 RES1    0.0000
     12 H7         3.6174   -2.4628    6.7012 H         1 RES1    0.0000
     13 H8         2.5269   -1.2925    6.6345 H         1 RES1    0.0000
     14 C6         3.3849   -1.4795    8.5165 C.3       1 RES1    0.0000
     15 H9         3.8278   -2.2060    9.0225 H         1 RES1    0.0000
     16 H10        4.0634   -0.7829    8.3311 H         1 RES1    0.0000
     17 C7         1.2890   -3.7751    6.0848 C.3       1 RES1    0.0000
     18 C8         2.4791   -4.4859    5.4289 C.3       1 RES1    0.0000
     19 H11        2.8710   -5.1208    6.0646 H         1 RES1    0.0000
     20 H12        3.1536   -3.8240    5.1709 H         1 RES1    0.0000
     21 H13        2.1734   -4.9678    4.6327 H         1 RES1    0.0000
     22 C9         0.6851   -2.7850    5.0810 C.3       1 RES1    0.0000
     23 H14        1.3472   -2.0967    4.8624 H         1 RES1    0.0000
     24 H15       -0.1073   -2.3628    5.4750 H         1 RES1    0.0000
     25 H16        0.4288   -3.2626    4.2651 H         1 RES1    0.0000
     26 C10        0.2356   -4.8410    6.4126 C.3       1 RES1    0.0000
     27 H17        0.6081   -5.4817    7.0535 H         1 RES1    0.0000
     28 H18       -0.0195   -5.3111    5.5920 H         1 RES1    0.0000
     29 H19       -0.5543   -4.4112    6.8019 H         1 RES1    0.0000
     30 C11        2.3463    1.5126    8.9961 C.ar      1 RES1    0.0000
     31 C12        3.6230    1.6554    9.5518 C.ar      1 RES1    0.0000
     32 H20        4.1254    0.8884    9.8013 H         1 RES1    0.0000
     33 C13        4.1470    2.9219    9.7357 C.ar      1 RES1    0.0000
     34 H21        5.0149    3.0274   10.1076 H         1 RES1    0.0000
     35 C14        3.4107    4.0304    9.3802 C.ar      1 RES1    0.0000
     36 C15        2.1337    3.9094    8.8376 C.ar      1 RES1    0.0000
     37 H22        1.6260    4.6810    8.6166 H         1 RES1    0.0000
     38 C16        1.6226    2.6489    8.6287 C.ar      1 RES1    0.0000
     39 H23        0.7664    2.5507    8.2294 H         1 RES1    0.0000
     40 N1         3.9511    5.3608    9.6279 N.pl3     1 RES1    0.0000
     41 O1         1.7312    0.3301    8.7701 O.3       1 RES1    0.0000
     42 O2         3.2412    6.3341    9.4030 O.2       1 RES1    0.0000
     43 O3         5.1049    5.4508   10.0504 O.2       1 RES1    0.0000
@<TRIPOS>BOND
     1    1    2 1
     2    3    1 1
     3    4    3 1
     4    5    3 1
     5    6    3 1
     6    7    6 1
     7    8    6 1
     8    9    6 1
     9   10    9 1
    10   11    9 1
    11   12   11 1
    12   13   11 1
    13   14    1 1
    14   15   14 1
    15   16   14 1
    16   17    9 1
    17   18   17 1
    18   19   18 1
    19   20   18 1
    20   21   18 1
    21   22   17 1
    22   23   22 1
    23   24   22 1
    24   25   22 1
    25   26   17 1
    26   27   26 1
    27   28   26 1
    28   29   26 1
    29   30   31 ar
    30   31   32 1
    31   33   31 ar
    32   34   33 1
    33   35   33 ar
    34   36   35 ar
    35   37   36 1
    36   38   30 ar
    37   39   38 1
    38   40   35 1
    39   41    1 1
    40   42   40 2
    41   43   40 2
    42   11   14 1
    43   30   41 1
    44   36   38 ar
@<TRIPOS>SUBSTRUCTURE
     1 RES1 1

@<TRIPOS>CRYSIN
   6.1790   11.0710   11.1300 100.5700  90.1700  95.1600   2 1

