# MOL2 file generated by ConQuest
# Please check atom types

@<TRIPOS>MOLECULE
ULAROO
    45    46     1
SMALL
NO_CHARGES
****
Generated from CSD

@<TRIPOS>ATOM
      1 C1         1.0595    6.3009    2.6460 C.3       1 RES1    0.0000
      2 H1         1.3922    6.0351    3.5505 H         1 RES1    0.0000
      3 C2         2.1894    6.2685    1.6543 C.3       1 RES1    0.0000
      4 H2         2.9270    6.8488    1.9687 H         1 RES1    0.0000
      5 H3         1.8764    6.6125    0.7798 H         1 RES1    0.0000
      6 C3         2.6925    4.8330    1.4949 C.3       1 RES1    0.0000
      7 H4         3.0341    4.5075    2.3656 H         1 RES1    0.0000
      8 H5         3.4419    4.8192    0.8486 H         1 RES1    0.0000
      9 C4         1.5798    3.8937    1.0030 C.3       1 RES1    0.0000
     10 H6         1.2274    4.2802    0.1519 H         1 RES1    0.0000
     11 C5         0.4456    3.9456    2.0171 C.3       1 RES1    0.0000
     12 H7         0.7634    3.5879    2.8841 H         1 RES1    0.0000
     13 H8        -0.2992    3.3733    1.7054 H         1 RES1    0.0000
     14 C6        -0.0648    5.3782    2.2164 C.3       1 RES1    0.0000
     15 H9        -0.4570    5.7094    1.3692 H         1 RES1    0.0000
     16 H10       -0.7752    5.3825    2.9064 H         1 RES1    0.0000
     17 C7         2.0872    2.4612    0.6742 C.3       1 RES1    0.0000
     18 C8         3.0131    2.5252   -0.5383 C.3       1 RES1    0.0000
     19 H11        3.7807    3.1000   -0.3342 H         1 RES1    0.0000
     20 H12        2.5245    2.8930   -1.3043 H         1 RES1    0.0000
     21 H13        3.3295    1.6234   -0.7555 H         1 RES1    0.0000
     22 C9         2.8535    1.8279    1.8575 C.3       1 RES1    0.0000
     23 H14        3.6050    2.4051    2.1064 H         1 RES1    0.0000
     24 H15        3.1918    0.9465    1.5940 H         1 RES1    0.0000
     25 H16        2.2495    1.7307    2.6229 H         1 RES1    0.0000
     26 C10        0.9004    1.5548    0.2912 C.3       1 RES1    0.0000
     27 H17        0.2803    1.4919    1.0471 H         1 RES1    0.0000
     28 H18        1.2318    0.6604    0.0648 H         1 RES1    0.0000
     29 H19        0.4346    1.9364   -0.4820 H         1 RES1    0.0000
     30 C11       -0.0237    8.0964    3.7905 C.2       1 RES1    0.0000
     31 C12       -0.3049    9.5675    3.7295 C.ar      1 RES1    0.0000
     32 C13       -1.4565   10.1311    4.2557 C.ar      1 RES1    0.0000
     33 C14       -1.6629   11.4971    4.3244 C.ar      1 RES1    0.0000
     34 H20       -2.4631   11.8493    4.6968 H         1 RES1    0.0000
     35 C15       -0.6758   12.3411    3.8387 C.ar      1 RES1    0.0000
     36 H21       -0.7955   13.2824    3.8705 H         1 RES1    0.0000
     37 C16        0.4735   11.8116    3.3109 C.ar      1 RES1    0.0000
     38 H22        1.1497   12.3922    2.9834 H         1 RES1    0.0000
     39 C17        0.6600   10.4375    3.2507 C.ar      1 RES1    0.0000
     40 H23        1.4605   10.0892    2.8760 H         1 RES1    0.0000
     41 N1        -2.5520    9.2619    4.6859 N.pl3     1 RES1    0.0000
     42 O1         0.5753    7.6891    2.6763 O.3       1 RES1    0.0000
     43 O2        -0.2653    7.4029    4.7436 O.2       1 RES1    0.0000
     44 O3        -2.8548    8.3122    3.9726 O.2       1 RES1    0.0000
     45 O4        -3.1346    9.5608    5.7120 O.2       1 RES1    0.0000
@<TRIPOS>BOND
     1    1    2 1
     2    3    1 1
     3    4    3 1
     4    5    3 1
     5    6    3 1
     6    7    6 1
     7    8    6 1
     8    9    6 1
     9   10    9 1
    10   11    9 1
    11   12   11 1
    12   13   11 1
    13   14    1 1
    14   15   14 1
    15   16   14 1
    16   17    9 1
    17   18   17 1
    18   19   18 1
    19   20   18 1
    20   21   18 1
    21   22   17 1
    22   23   22 1
    23   24   22 1
    24   25   22 1
    25   26   17 1
    26   27   26 1
    27   28   26 1
    28   29   26 1
    29   30   31 1
    30   31   32 ar
    31   32   33 ar
    32   33   34 1
    33   35   33 ar
    34   36   35 1
    35   37   35 ar
    36   38   37 1
    37   39   31 ar
    38   40   39 1
    39   41   32 1
    40   42    1 1
    41   43   30 2
    42   44   41 2
    43   45   41 2
    44   11   14 1
    45   30   42 1
    46   37   39 ar
@<TRIPOS>SUBSTRUCTURE
     1 RES1 1

@<TRIPOS>CRYSIN
   6.2370   12.7728   20.4391  90.0000  97.7220  90.0000 231 1

