# MOL2 file generated by ConQuest
# Please check atom types

@<TRIPOS>MOLECULE
ULASOP
    41    44     1
SMALL
NO_CHARGES
****
Generated from CSD

@<TRIPOS>ATOM
      1 O1         2.8627    1.3197    2.1273 O.3       1 RES1    0.0000
      2 C1         1.4831    4.5933   -1.0137 C.ar      1 RES1    0.0000
      3 O2         2.0157    6.8278   -0.7073 O.2       1 RES1    0.0000
      4 O3         3.3461    3.4670    2.5906 O.2       1 RES1    0.0000
      5 O4         0.7723    6.3056   -2.4203 O.2       1 RES1    0.0000
      6 C2         3.5441    0.8819    3.3632 C.3       1 RES1    0.0000
      7 H1         4.2272    1.5602    3.6336 H         1 RES1    0.0000
      8 N1         1.4219    6.0114   -1.4110 N.pl3     1 RES1    0.0000
      9 C3         2.1584    2.9405    0.5731 C.ar      1 RES1    0.0000
     10 C4         4.9939   -0.8853    4.3445 C.3       1 RES1    0.0000
     11 H2         5.4671   -1.7378    4.1733 H         1 RES1    0.0000
     12 H3         5.6658   -0.1988    4.5848 H         1 RES1    0.0000
     13 C5         2.9742   -2.1222    5.0750 C.3       1 RES1    0.0000
     14 H4         2.3378   -2.2544    5.8217 H         1 RES1    0.0000
     15 H5         3.4289   -2.9843    4.9022 H         1 RES1    0.0000
     16 C6         2.2003   -1.6797    3.8062 C.3       1 RES1    0.0000
     17 H6         1.5282   -2.3786    3.5622 H         1 RES1    0.0000
     18 C7         2.8491    2.6252    1.8778 C.2       1 RES1    0.0000
     19 C8         4.2201   -0.4453    3.0730 C.3       1 RES1    0.0000
     20 H7         4.8665   -0.3273    2.3185 H         1 RES1    0.0000
     21 C9         2.1246    4.2745    0.1787 C.ar      1 RES1    0.0000
     22 H8         2.5296    4.9504    0.7097 H         1 RES1    0.0000
     23 C10        3.3109    0.2746    5.7146 C.3       1 RES1    0.0000
     24 H9         3.9801    0.9645    5.9532 H         1 RES1    0.0000
     25 H10        2.6814    0.1813    6.4725 H         1 RES1    0.0000
     26 C11        1.5483    1.9648   -0.2274 C.ar      1 RES1    0.0000
     27 H11        1.5714    1.0535    0.0408 H         1 RES1    0.0000
     28 C12        1.4906   -0.3464    4.0515 C.3       1 RES1    0.0000
     29 H12        0.8254   -0.4487    4.7775 H         1 RES1    0.0000
     30 H13        1.0140   -0.0637    3.2311 H         1 RES1    0.0000
     31 C13        0.8652    3.6466   -1.8264 C.ar      1 RES1    0.0000
     32 H14        0.4307    3.9004   -2.6325 H         1 RES1    0.0000
     33 C14        2.5343    0.7197    4.4442 C.3       1 RES1    0.0000
     34 H15        2.0781    1.5929    4.6154 H         1 RES1    0.0000
     35 C15        3.1783   -1.5075    2.6846 C.3       1 RES1    0.0000
     36 H16        2.7008   -1.2250    1.8639 H         1 RES1    0.0000
     37 H17        3.6303   -2.3684    2.4987 H         1 RES1    0.0000
     38 C16        4.0163   -1.0598    5.4673 C.3       1 RES1    0.0000
     39 H18        4.4982   -1.3468    6.2945 H         1 RES1    0.0000
     40 C17        0.9050    2.3218   -1.4203 C.ar      1 RES1    0.0000
     41 H19        0.4939    1.6523   -1.9534 H         1 RES1    0.0000
@<TRIPOS>BOND
     1    1    6 1
     2    2    8 1
     3    3    8 2
     4    4   18 2
     5    5    8 2
     6    6    7 1
     7    9   18 1
     8   10   11 1
     9   12   10 1
    10   13   14 1
    11   15   13 1
    12   16   13 1
    13   17   16 1
    14   18    1 1
    15   19    6 1
    16   20   19 1
    17   21    2 ar
    18   22   21 1
    19   23   24 1
    20   25   23 1
    21   26    9 ar
    22   27   26 1
    23   28   16 1
    24   29   28 1
    25   30   28 1
    26   31    2 ar
    27   32   31 1
    28   33    6 1
    29   34   33 1
    30   35   16 1
    31   36   35 1
    32   37   35 1
    33   38   10 1
    34   39   38 1
    35   40   26 ar
    36   41   40 1
    37    9   21 ar
    38   10   19 1
    39   13   38 1
    40   19   35 1
    41   23   33 1
    42   23   38 1
    43   28   33 1
    44   31   40 ar
@<TRIPOS>SUBSTRUCTURE
     1 RES1 1

@<TRIPOS>CRYSIN
   7.5390    8.4790   12.0430  75.3000  76.8600  88.8300   2 1

