# MOL2 file generated by ConQuest
# Please check atom types

@<TRIPOS>MOLECULE
ULASIJ
    86    92     2
SMALL
NO_CHARGES
****
Generated from CSD

@<TRIPOS>ATOM
      1 O1         4.1292    2.4295    9.8215 O.3       1 RES1    0.0000
      2 O2         5.4808    0.8300    9.0070 O.2       1 RES1    0.0000
      3 O3         4.5038    5.3410   10.7807 O.2       1 RES1    0.0000
      4 O4         4.1122    5.0808    8.6765 O.2       1 RES1    0.0000
      5 O5         9.3631    6.9185    9.4369 O.2       1 RES1    0.0000
      6 O6        10.7464    5.2494    9.4004 O.2       1 RES1    0.0000
      7 N1         4.8139    4.9624    9.6647 N.pl3     1 RES1    0.0000
      8 N2         9.6178    5.7155    9.4021 N.pl3     1 RES1    0.0000
      9 C1         2.2911    1.3081    8.6350 C.3       1 RES1    0.0000
     10 H1         2.9349    1.0021    7.9328 H         1 RES1    0.0000
     11 C2         3.0118    1.4668    9.9564 C.3       1 RES1    0.0000
     12 H2         3.3714    0.5797   10.2448 H         1 RES1    0.0000
     13 C3         2.0734    2.0006   11.0256 C.3       1 RES1    0.0000
     14 H3         2.5794    2.1402   11.8769 H         1 RES1    0.0000
     15 C4         1.4329    3.3165   10.5857 C.3       1 RES1    0.0000
     16 H4         2.1351    4.0005   10.4478 H         1 RES1    0.0000
     17 H5         0.8194    3.6415   11.2908 H         1 RES1    0.0000
     18 C5         0.6584    3.1000    9.2846 C.3       1 RES1    0.0000
     19 H6         0.2356    3.9596    8.9988 H         1 RES1    0.0000
     20 C6         1.6437    2.6254    8.2040 C.3       1 RES1    0.0000
     21 H7         1.1631    2.4970    7.3483 H         1 RES1    0.0000
     22 H8         2.3424    3.3122    8.0666 H         1 RES1    0.0000
     23 C7         1.1966    0.2384    8.8445 C.3       1 RES1    0.0000
     24 H9         0.7094    0.0853    7.9959 H         1 RES1    0.0000
     25 H10        1.6112   -0.6163    9.1219 H         1 RES1    0.0000
     26 C8         0.2203    0.7151    9.9225 C.3       1 RES1    0.0000
     27 H11       -0.4901    0.0240   10.0602 H         1 RES1    0.0000
     28 C9         0.9842    0.9379   11.2387 C.3       1 RES1    0.0000
     29 H12        0.3567    1.2376   11.9430 H         1 RES1    0.0000
     30 H13        1.3991    0.0881   11.5339 H         1 RES1    0.0000
     31 C10       -0.4272    2.0373    9.5015 C.3       1 RES1    0.0000
     32 H14       -1.0540    2.3398   10.2033 H         1 RES1    0.0000
     33 H15       -0.9394    1.9068    8.6635 H         1 RES1    0.0000
     34 C11        5.2771    1.9717    9.3515 C.2       1 RES1    0.0000
     35 C12        6.3509    3.0083    9.3075 C.ar      1 RES1    0.0000
     36 C13        6.1643    4.3827    9.4937 C.ar      1 RES1    0.0000
     37 C14        7.2071    5.2776    9.5226 C.ar      1 RES1    0.0000
     38 H16        7.0533    6.2070    9.6433 H         1 RES1    0.0000
     39 C15        8.4833    4.7776    9.3700 C.ar      1 RES1    0.0000
     40 C16        8.7360    3.4363    9.1689 C.ar      1 RES1    0.0000
     41 H17        9.6248    3.1183    9.0603 H         1 RES1    0.0000
     42 C17        7.6608    2.5683    9.1297 C.ar      1 RES1    0.0000
     43 H18        7.8205    1.6445    8.9773 H         1 RES1    0.0000
     44 O7         9.4359    2.4018    5.6965 O.3       2 RES2    0.0000
     45 O8         7.9809    0.9393    4.7909 O.2       2 RES2    0.0000
     46 O9         9.2786    4.9934    4.4963 O.2       2 RES2    0.0000
     47 O10        9.2116    5.5244    6.5879 O.2       2 RES2    0.0000
     48 O11        4.2266    6.9538    6.0446 O.2       2 RES2    0.0000
     49 O12        2.8178    5.3072    5.9466 O.2       2 RES2    0.0000
     50 N3         8.7426    5.0068    5.5896 N.pl3     2 RES2    0.0000
     51 N4         3.9543    5.7564    5.9721 N.pl3     2 RES2    0.0000
     52 C18       11.4406    1.8116    4.3805 C.3       2 RES2    0.0000
     53 H19       10.8969    1.8624    3.5426 H         2 RES2    0.0000
     54 C19       10.5495    1.4357    5.5568 C.3       2 RES2    0.0000
     55 H20       10.1720    0.5232    5.4008 H         2 RES2    0.0000
     56 C20       11.3315    1.4287    6.8409 C.3       2 RES2    0.0000
     57 H21       10.7177    1.2284    7.6051 H         2 RES2    0.0000
     58 C21       12.0028    2.7587    7.0709 C.3       2 RES2    0.0000
     59 H22       12.5068    2.7354    7.9220 H         2 RES2    0.0000
     60 H23       11.3173    3.4716    7.1360 H         2 RES2    0.0000
     61 C22       12.9544    3.0647    5.9164 C.3       2 RES2    0.0000
     62 H24       13.4087    3.9398    6.0807 H         2 RES2    0.0000
     63 C23       12.1334    3.1507    4.6394 C.3       2 RES2    0.0000
     64 H25       12.7229    3.3743    3.8764 H         2 RES2    0.0000
     65 H26       11.4564    3.8665    4.7255 H         2 RES2    0.0000
     66 C24       12.4919    0.6995    4.2608 C.3       2 RES2    0.0000
     67 H27       13.0865    0.8843    3.4918 H         2 RES2    0.0000
     68 H28       12.0427   -0.1685    4.1025 H         2 RES2    0.0000
     69 C25       13.3219    0.6255    5.5563 C.3       2 RES2    0.0000
     70 H29       14.0085   -0.0959    5.4747 H         2 RES2    0.0000
     71 C26       12.3863    0.3124    6.7225 C.3       2 RES2    0.0000
     72 H30       12.9067    0.2510    7.5636 H         2 RES2    0.0000
     73 H31       11.9379   -0.5578    6.5699 H         2 RES2    0.0000
     74 C27       14.0080    1.9590    5.7883 C.3       2 RES2    0.0000
     75 H32       14.6124    2.1600    5.0316 H         2 RES2    0.0000
     76 H33       14.5503    1.9167    6.6160 H         2 RES2    0.0000
     77 C28        8.2415    2.0154    5.2775 C.2       2 RES2    0.0000
     78 C29        7.1776    3.0471    5.4931 C.ar      2 RES2    0.0000
     79 C30        7.3940    4.4165    5.6882 C.ar      2 RES2    0.0000
     80 C31        6.3636    5.3058    5.8904 C.ar      2 RES2    0.0000
     81 H34        6.5321    6.2310    6.0284 H         2 RES2    0.0000
     82 C32        5.0784    4.8072    5.8861 C.ar      2 RES2    0.0000
     83 C33        4.7994    3.4624    5.7322 C.ar      2 RES2    0.0000
     84 H35        3.9048    3.1416    5.7623 H         2 RES2    0.0000
     85 C34        5.8632    2.5972    5.5333 C.ar      2 RES2    0.0000
     86 H36        5.6901    1.6699    5.4208 H         2 RES2    0.0000
@<TRIPOS>BOND
     1    1   11 1
     2    2   34 2
     3    3    7 2
     4    4    7 2
     5    5    8 2
     6    6    8 2
     7    7   36 1
     8    8   39 1
     9    9   10 1
    10   11    9 1
    11   12   11 1
    12   13   11 1
    13   14   13 1
    14   15   13 1
    15   16   15 1
    16   17   15 1
    17   18   15 1
    18   19   18 1
    19   20    9 1
    20   21   20 1
    21   22   20 1
    22   23    9 1
    23   24   23 1
    24   25   23 1
    25   26   23 1
    26   27   26 1
    27   28   13 1
    28   29   28 1
    29   30   28 1
    30   31   18 1
    31   32   31 1
    32   33   31 1
    33   34    1 1
    34   35   34 1
    35   36   35 ar
    36   37   36 ar
    37   38   37 1
    38   39   37 ar
    39   40   39 ar
    40   41   40 1
    41   42   35 ar
    42   43   42 1
    43   44   54 1
    44   45   77 2
    45   46   50 2
    46   47   50 2
    47   48   51 2
    48   49   51 2
    49   50   79 1
    50   51   82 1
    51   52   53 1
    52   54   52 1
    53   55   54 1
    54   56   54 1
    55   57   56 1
    56   58   56 1
    57   59   58 1
    58   60   58 1
    59   61   58 1
    60   62   61 1
    61   63   52 1
    62   64   63 1
    63   65   63 1
    64   66   52 1
    65   67   66 1
    66   68   66 1
    67   69   66 1
    68   70   69 1
    69   71   56 1
    70   72   71 1
    71   73   71 1
    72   74   61 1
    73   75   74 1
    74   76   74 1
    75   77   44 1
    76   78   77 1
    77   79   78 ar
    78   80   79 ar
    79   81   80 1
    80   82   80 ar
    81   83   82 ar
    82   84   83 1
    83   85   78 ar
    84   86   85 1
    85   18   20 1
    86   26   28 1
    87   26   31 1
    88   40   42 ar
    89   61   63 1
    90   69   71 1
    91   69   74 1
    92   83   85 ar
@<TRIPOS>SUBSTRUCTURE
     1 RES1 1
     2 RES2 44

@<TRIPOS>CRYSIN
  29.1896    7.0518   15.4150  90.0000  93.7170  90.0000  14 1

