# MOL2 file generated by ConQuest
# Please check atom types

@<TRIPOS>MOLECULE
ULASEF
    39    42     1
SMALL
NO_CHARGES
****
Generated from CSD

@<TRIPOS>ATOM
      1 C1         1.6065    4.5400    7.4255 C.3       1 RES1    0.0000
      2 C2         0.5060    4.8828    8.4255 C.3       1 RES1    0.0000
      3 C3         0.3907    6.4052    8.5760 C.3       1 RES1    0.0000
      4 C4         1.7318    6.9899    9.0355 C.3       1 RES1    0.0000
      5 C5         2.8204    6.6627    8.0078 C.3       1 RES1    0.0000
      6 C6         2.9434    5.1353    7.8861 C.3       1 RES1    0.0000
      7 C7         1.2244    5.1325    6.0640 C.3       1 RES1    0.0000
      8 C8         1.0985    6.6570    6.1845 C.3       1 RES1    0.0000
      9 C9         0.0039    6.9855    7.2040 C.3       1 RES1    0.0000
     10 C10        2.4365    7.2501    6.6457 C.3       1 RES1    0.0000
     11 C11        0.0024    4.2053   10.7013 C.ar      1 RES1    0.0000
     12 C12        0.5093    3.7380   11.9178 C.ar      1 RES1    0.0000
     13 C13       -0.3101    3.6622   13.0261 C.ar      1 RES1    0.0000
     14 C14       -1.6393    4.0525   12.9061 C.ar      1 RES1    0.0000
     15 C15       -2.1591    4.5082   11.7098 C.ar      1 RES1    0.0000
     16 C16       -1.3379    4.5864   10.6020 C.ar      1 RES1    0.0000
     17 N1        -2.5129    3.9785   14.0722 N.pl3     1 RES1    0.0000
     18 O1         0.8852    4.2383    9.6749 O.3       1 RES1    0.0000
     19 O2        -2.0760    3.4624   15.0967 O.2       1 RES1    0.0000
     20 O3        -3.6555    4.4223   13.9728 O.2       1 RES1    0.0000
     21 H1         1.6668    3.5649    7.3658 H         1 RES1    0.0000
     22 H2        -0.3472    4.4935    8.1367 H         1 RES1    0.0000
     23 H3        -0.3026    6.6253    9.2282 H         1 RES1    0.0000
     24 H4         1.6402    7.9525    9.1102 H         1 RES1    0.0000
     25 H5         1.9837    6.6453    9.9369 H         1 RES1    0.0000
     26 H6         3.6828    7.0265    8.3040 H         1 RES1    0.0000
     27 H7         3.2220    4.7449    8.7350 H         1 RES1    0.0000
     28 H8         3.6687    4.9014    7.2371 H         1 RES1    0.0000
     29 H9         0.3616    4.7293    5.7479 H         1 RES1    0.0000
     30 H10        1.9206    4.9161    5.4145 H         1 RES1    0.0000
     31 H11        0.8599    7.0244    5.3083 H         1 RES1    0.0000
     32 H12       -0.8773    6.6174    6.9048 H         1 RES1    0.0000
     33 H13       -0.1179    7.9578    7.2725 H         1 RES1    0.0000
     34 H14        2.3642    8.2356    6.7043 H         1 RES1    0.0000
     35 H15        3.1464    7.0482    5.9956 H         1 RES1    0.0000
     36 H16        1.4303    3.4636   11.9654 H         1 RES1    0.0000
     37 H17        0.0414    3.3499   13.8535 H         1 RES1    0.0000
     38 H18       -3.0604    4.7763   11.6577 H         1 RES1    0.0000
     39 H19       -1.7031    4.9030    9.7846 H         1 RES1    0.0000
@<TRIPOS>BOND
     1    1    2 1
     2    2    3 1
     3    3    4 1
     4    4    5 1
     5    5    6 1
     6    6    1 1
     7    7    1 1
     8    8    7 1
     9    9    3 1
    10   10    5 1
    11   11   12 ar
    12   12   13 ar
    13   13   14 ar
    14   14   15 ar
    15   15   16 ar
    16   16   11 ar
    17   17   14 1
    18   18    2 1
    19   19   17 2
    20   20   17 2
    21   21    1 1
    22   22    2 1
    23   23    3 1
    24   24    4 1
    25   25    4 1
    26   26    5 1
    27   27    6 1
    28   28    6 1
    29   29    7 1
    30   30    7 1
    31   31    8 1
    32   32    9 1
    33   33    9 1
    34   34   10 1
    35   35   10 1
    36   36   12 1
    37   37   13 1
    38   38   15 1
    39   39   16 1
    40    8    9 1
    41    8   10 1
    42   11   18 1
@<TRIPOS>SUBSTRUCTURE
     1 RES1 1

@<TRIPOS>CRYSIN
   6.7670    9.5560   10.8870  99.4300  90.6800 105.3800   2 1

