# MOL2 file generated by ConQuest
# Please check atom types

@<TRIPOS>MOLECULE
ULAVUA
    19    20     1
SMALL
NO_CHARGES
****
Generated from CSD

@<TRIPOS>ATOM
      1 O1         2.1308    2.7189    4.1929 O.3       1 RES1    0.0000
      2 O2         5.9167    2.0346    2.7702 O.2       1 RES1    0.0000
      3 O3         7.3581    0.5607    2.1161 O.2       1 RES1    0.0000
      4 N1         1.1840    1.7604    4.5164 N.2       1 RES1    0.0000
      5 N2         3.3062    2.1187    3.7809 N.2       1 RES1    0.0000
      6 N3         4.7228   -2.2250    3.2763 N.3       1 RES1    0.0000
      7 N4         3.6703   -1.4640    3.6447 N.2       1 RES1    0.0000
      8 N5         6.2756    0.8706    2.6095 N.pl3     1 RES1    0.0000
      9 C1         1.7429    0.6015    4.3136 C.2       1 RES1    0.0000
     10 C2         3.0919    0.8291    3.8420 C.2       1 RES1    0.0000
     11 C3         4.0721   -0.1969    3.4882 C.2       1 RES1    0.0000
     12 C4         5.4036   -0.1955    2.9955 C.2       1 RES1    0.0000
     13 C5         5.7811   -1.5219    2.8741 C.2       1 RES1    0.0000
     14 C6         1.0019   -0.6622    4.5887 C.3       1 RES1    0.0000
     15 H1         4.6344   -3.1201    3.3057 H         1 RES1    0.0000
     16 H2         6.5910   -1.9007    2.5758 H         1 RES1    0.0000
     17 H3         0.1433   -0.4701    4.9621 H         1 RES1    0.0000
     18 H4         1.5148   -1.1922    5.1937 H         1 RES1    0.0000
     19 H5         0.8838   -1.1513    3.7619 H         1 RES1    0.0000
@<TRIPOS>BOND
     1    1    4 1
     2    2    8 2
     3    3    8 2
     4    4    9 2
     5    5    1 1
     6    6    7 1
     7    7   11 2
     8    8   12 1
     9    9   10 1
    10   10    5 2
    11   11   10 1
    12   12   11 1
    13   13    6 1
    14   14    9 1
    15   15    6 1
    16   16   13 1
    17   17   14 1
    18   18   14 1
    19   19   14 1
    20   12   13 2
@<TRIPOS>SUBSTRUCTURE
     1 RES1 1

@<TRIPOS>CRYSIN
  16.0830    6.8125    7.0480  90.0000  95.2390  90.0000  14 1

