# MOL2 file generated by ConQuest
# Please check atom types

@<TRIPOS>MOLECULE
ULAWUB
    25    26     1
SMALL
NO_CHARGES
****
Generated from CSD

@<TRIPOS>ATOM
      1 O1         5.9056    0.7037    2.9333 O.2       1 RES1    0.0000
      2 O2         4.0238   -1.0071    4.3004 O.3       1 RES1    0.0000
      3 O3         2.2617    0.6743    5.6911 O.2       1 RES1    0.0000
      4 N1         4.0850    0.3770    4.2936 N.am      1 RES1    0.0000
      5 N2         3.4662    2.4068    4.7628 N.am      1 RES1    0.0000
      6 H1         3.0062    3.0741    5.0509 H         1 RES1    0.0000
      7 C1         4.6801    2.5524    3.9595 C.3       1 RES1    0.0000
      8 H2         5.3909    2.9276    4.5198 H         1 RES1    0.0000
      9 C2         5.0160    1.1094    3.6388 C.2       1 RES1    0.0000
     10 C3         3.1455    1.1380    5.0048 C.2       1 RES1    0.0000
     11 C4         4.5396    3.3887    2.7285 C.ar      1 RES1    0.0000
     12 C5         5.4527    4.3715    2.4585 C.ar      1 RES1    0.0000
     13 H3         6.1347    4.5388    3.0683 H         1 RES1    0.0000
     14 C6         5.3837    5.1065    1.3176 C.ar      1 RES1    0.0000
     15 H4         6.0019    5.7851    1.1668 H         1 RES1    0.0000
     16 C7         4.4189    4.8577    0.3983 C.ar      1 RES1    0.0000
     17 H5         4.3874    5.3465   -0.3927 H         1 RES1    0.0000
     18 C8         3.4882    3.8767    0.6436 C.ar      1 RES1    0.0000
     19 H6         2.8172    3.7068    0.0225 H         1 RES1    0.0000
     20 C9         3.5495    3.1408    1.8160 C.ar      1 RES1    0.0000
     21 H7         2.9175    2.4796    1.9825 H         1 RES1    0.0000
     22 C10        3.2580   -1.4864    3.1797 C.3       1 RES1    0.0000
     23 H8         3.6824   -1.2142    2.3629 H         1 RES1    0.0000
     24 H9         2.3715   -1.1198    3.2180 H         1 RES1    0.0000
     25 H10        3.2098   -2.4449    3.2112 H         1 RES1    0.0000
@<TRIPOS>BOND
     1    1    9 2
     2    2    4 1
     3    3   10 2
     4    4    9 1
     5    5    6 1
     6    7    5 1
     7    8    7 1
     8    9    7 1
     9   10    4 1
    10   11    7 1
    11   12   11 ar
    12   13   12 1
    13   14   12 ar
    14   15   14 1
    15   16   14 ar
    16   17   16 1
    17   18   16 ar
    18   19   18 1
    19   20   11 ar
    20   21   20 1
    21   22    2 1
    22   23   22 1
    23   24   22 1
    24   25   22 1
    25    5   10 1
    26   18   20 ar
@<TRIPOS>SUBSTRUCTURE
     1 RES1 1

@<TRIPOS>CRYSIN
   5.1263    8.6668   11.2570  90.0000  91.7600  90.0000   4 1

