# MOL2 file generated by ConQuest
# Please check atom types

@<TRIPOS>MOLECULE
ULEDEV
    42    43     1
SMALL
NO_CHARGES
****
Generated from CSD

@<TRIPOS>ATOM
      1 O1         4.6273    6.7659    4.9199 O.2       1 RES1    0.0000
      2 O2        -0.6862    4.3652    9.5835 O.2       1 RES1    0.0000
      3 O3        -1.1942    2.5277    8.5606 O.2       1 RES1    0.0000
      4 N1         3.0980    5.0216    4.7441 N.am      1 RES1    0.0000
      5 N2         3.0873    6.2355    6.5908 N.am      1 RES1    0.0000
      6 N3        -0.5665    3.5887    8.6363 N.pl3     1 RES1    0.0000
      7 C1         2.1066    4.4970    5.5617 C.ar      1 RES1    0.0000
      8 C2         1.2360    3.4411    5.3846 C.ar      1 RES1    0.0000
      9 H1         1.2407    2.9394    4.6016 H         1 RES1    0.0000
     10 C3         0.3605    3.1571    6.4098 C.ar      1 RES1    0.0000
     11 H2        -0.2411    2.4523    6.3270 H         1 RES1    0.0000
     12 C4         0.3780    3.9269    7.5700 C.ar      1 RES1    0.0000
     13 C5         1.2421    5.0009    7.7762 C.ar      1 RES1    0.0000
     14 H3         1.2349    5.5005    8.5600 H         1 RES1    0.0000
     15 C6         2.1027    5.2688    6.7465 C.ar      1 RES1    0.0000
     16 C7         3.7050    6.0930    5.3780 C.2       1 RES1    0.0000
     17 C8         3.4564    4.5851    3.4014 C.3       1 RES1    0.0000
     18 H4         3.4831    3.6162    3.3784 H         1 RES1    0.0000
     19 H5         4.3438    4.9126    3.1859 H         1 RES1    0.0000
     20 C9         2.4664    5.0869    2.3483 C.3       1 RES1    0.0000
     21 H6         2.8038    4.8619    1.4671 H         1 RES1    0.0000
     22 H7         1.6205    4.6284    2.4675 H         1 RES1    0.0000
     23 C10        2.2278    6.5933    2.4188 C.3       1 RES1    0.0000
     24 H8         1.8227    6.8022    3.2742 H         1 RES1    0.0000
     25 H9         3.0851    7.0438    2.3805 H         1 RES1    0.0000
     26 C11        1.3438    7.1414    1.3168 C.3       1 RES1    0.0000
     27 H10        0.5279    6.6179    1.2707 H         1 RES1    0.0000
     28 H11        1.8021    7.0562    0.4666 H         1 RES1    0.0000
     29 C12        0.9902    8.6045    1.5541 C.3       1 RES1    0.0000
     30 H12        1.8134    9.1091    1.6450 H         1 RES1    0.0000
     31 H13        0.5105    8.6732    2.3937 H         1 RES1    0.0000
     32 C13        0.1443    9.2531    0.4600 C.3       1 RES1    0.0000
     33 H14       -0.6190    8.6825    0.2808 H         1 RES1    0.0000
     34 H15       -0.1941   10.0991    0.7922 H         1 RES1    0.0000
     35 C14        0.8690    9.5017   -0.8291 C.3       1 RES1    0.0000
     36 H16        1.1572    8.6507   -1.1969 H         1 RES1    0.0000
     37 H17        1.6616   10.0292   -0.6485 H         1 RES1    0.0000
     38 C15        0.0146   10.2273   -1.8704 C.3       1 RES1    0.0000
     39 H18        0.5266   10.3541   -2.6719 H         1 RES1    0.0000
     40 H19       -0.2531   11.0818   -1.5238 H         1 RES1    0.0000
     41 H20       -0.7646    9.7035   -2.0668 H         1 RES1    0.0000
     42 H21        3.3551    6.8352    7.2366 H         1 RES1    0.0000
@<TRIPOS>BOND
     1    1   16 2
     2    2    6 2
     3    3    6 2
     4    4    7 1
     5    5   15 1
     6    6   12 1
     7    7    8 ar
     8    8    9 1
     9   10    8 ar
    10   11   10 1
    11   12   10 ar
    12   13   12 ar
    13   14   13 1
    14   15    7 ar
    15   16    4 1
    16   17    4 1
    17   18   17 1
    18   19   17 1
    19   20   17 1
    20   21   20 1
    21   22   20 1
    22   23   20 1
    23   24   23 1
    24   25   23 1
    25   26   23 1
    26   27   26 1
    27   28   26 1
    28   29   26 1
    29   30   29 1
    30   31   29 1
    31   32   29 1
    32   33   32 1
    33   34   32 1
    34   35   32 1
    35   36   35 1
    36   37   35 1
    37   38   35 1
    38   39   38 1
    39   40   38 1
    40   41   38 1
    41   42    5 1
    42    5   16 1
    43   13   15 ar
@<TRIPOS>SUBSTRUCTURE
     1 RES1 1

@<TRIPOS>CRYSIN
   4.9997   11.4942   13.8739  74.2140  79.6370  84.1080   2 1

