# MOL2 file generated by ConQuest
# Please check atom types

@<TRIPOS>MOLECULE
ULEFUM
    51    53     1
SMALL
NO_CHARGES
****
Generated from CSD

@<TRIPOS>ATOM
      1 C1         5.0162    6.3878    5.6110 C.3       1 RES1    0.0000
      2 C2         4.0667    6.5532    6.7877 C.3       1 RES1    0.0000
      3 C3         4.0577    8.0173    7.2069 C.3       1 RES1    0.0000
      4 O1         5.3823    8.2830    7.6526 O.3       1 RES1    0.0000
      5 C4         5.5928    9.6445    8.0289 C.3       1 RES1    0.0000
      6 C5         5.3523   10.5603    6.8513 C.3       1 RES1    0.0000
      7 C6         3.9248   10.3834    6.3518 C.3       1 RES1    0.0000
      8 C7         3.6044    8.9163    6.0462 C.3       1 RES1    0.0000
      9 C8         2.0895    8.7769    5.8252 C.3       1 RES1    0.0000
     10 O2         4.3430    8.6437    4.8432 O.3       1 RES1    0.0000
     11 C9         4.6374    7.2853    4.4280 C.3       1 RES1    0.0000
     12 C10        5.8494    7.4453    3.5194 C.3       1 RES1    0.0000
     13 C11        3.4620    6.6642    3.6517 C.3       1 RES1    0.0000
     14 C12        2.8507    7.6023    2.6301 C.3       1 RES1    0.0000
     15 O3         1.9706    6.8763    1.7140 O.3       1 RES1    0.0000
     16 C13        2.5890    6.2370    0.7201 C.2       1 RES1    0.0000
     17 O4         3.7894    6.1902    0.5804 O.2       1 RES1    0.0000
     18 C14        1.6293    5.5999   -0.2291 C.ar      1 RES1    0.0000
     19 C15        2.1487    4.8234   -1.2578 C.ar      1 RES1    0.0000
     20 C16        1.3099    4.2721   -2.2138 C.ar      1 RES1    0.0000
     21 C17       -0.0475    4.4964   -2.0981 C.ar      1 RES1    0.0000
     22 C18       -0.5992    5.2446   -1.0744 C.ar      1 RES1    0.0000
     23 C19        0.2499    5.8051   -0.1323 C.ar      1 RES1    0.0000
     24 N1        -0.9433    3.9152   -3.1123 N.pl3     1 RES1    0.0000
     25 O5        -0.4521    3.3394   -4.0669 O.2       1 RES1    0.0000
     26 O6        -2.1548    4.0500   -2.9573 O.2       1 RES1    0.0000
     27 H1         2.7134    6.3939    4.2571 H         1 RES1    0.0000
     28 H2         5.9244   10.2686    6.0709 H         1 RES1    0.0000
     29 H3         3.1163    4.6787   -1.3367 H         1 RES1    0.0000
     30 H4         3.5030    8.0556    2.1015 H         1 RES1    0.0000
     31 H5         2.2693    8.2164    3.0321 H         1 RES1    0.0000
     32 H6         3.1171    6.3020    6.5413 H         1 RES1    0.0000
     33 H7         3.2600   10.7204    7.0658 H         1 RES1    0.0000
     34 H8        -1.5566    5.3908   -0.9915 H         1 RES1    0.0000
     35 H9         5.0040    9.8244    8.8255 H         1 RES1    0.0000
     36 H10        1.8519    7.8718    5.5430 H         1 RES1    0.0000
     37 H11        6.5437    9.6866    8.3382 H         1 RES1    0.0000
     38 H12       -0.0820    6.3020    0.5922 H         1 RES1    0.0000
     39 H13        5.9671    6.6237    5.8916 H         1 RES1    0.0000
     40 H14        1.5951    9.0128    6.6360 H         1 RES1    0.0000
     41 H15        3.7662   10.8965    5.5126 H         1 RES1    0.0000
     42 H16        1.6486    3.7521   -2.9204 H         1 RES1    0.0000
     43 H17        3.3933    8.1551    7.9592 H         1 RES1    0.0000
     44 H18        6.5981    7.9024    4.0270 H         1 RES1    0.0000
     45 H19        1.8440    9.4263    5.0997 H         1 RES1    0.0000
     46 H20        6.1496    6.5471    3.2080 H         1 RES1    0.0000
     47 H21        3.7868    5.8962    3.1945 H         1 RES1    0.0000
     48 H22        5.6303    7.9560    2.7309 H         1 RES1    0.0000
     49 H23        5.0374    5.4750    5.2926 H         1 RES1    0.0000
     50 H24        4.3741    6.0034    7.5700 H         1 RES1    0.0000
     51 H25        5.5240   11.4095    7.1200 H         1 RES1    0.0000
@<TRIPOS>BOND
     1    1    2 1
     2    2    3 1
     3    3    4 1
     4    4    5 1
     5    5    6 1
     6    6    7 1
     7    7    8 1
     8    8    3 1
     9    9    8 1
    10   10    8 1
    11   11    1 1
    12   12   11 1
    13   13   11 1
    14   14   13 1
    15   15   14 1
    16   16   15 1
    17   17   16 2
    18   18   16 1
    19   19   18 ar
    20   20   19 ar
    21   21   20 ar
    22   22   21 ar
    23   23   18 ar
    24   24   21 1
    25   25   24 2
    26   26   24 2
    27   27   13 1
    28   28    6 1
    29   29   19 1
    30   30   14 1
    31   31   14 1
    32   32    2 1
    33   33    7 1
    34   34   22 1
    35   35    5 1
    36   36    9 1
    37   37    5 1
    38   38   23 1
    39   39    1 1
    40   40    9 1
    41   41    7 1
    42   42   20 1
    43   43    3 1
    44   44   12 1
    45   45    9 1
    46   46   12 1
    47   47   13 1
    48   48   12 1
    49   49    1 1
    50   50    2 1
    51   51    6 1
    52   10   11 1
    53   22   23 ar
@<TRIPOS>SUBSTRUCTURE
     1 RES1 1

@<TRIPOS>CRYSIN
   6.9308    7.6574   33.8740  90.0000  92.5630  90.0000  14 1

