# MOL2 file generated by ConQuest
# Please check atom types

@<TRIPOS>MOLECULE
ULEMIH
    50    52     1
SMALL
NO_CHARGES
****
Generated from CSD

@<TRIPOS>ATOM
      1 C1        10.1616    0.2754   13.8109 C.3       1 RES1    0.0000
      2 H1         9.4655   -0.1862   13.2613 H         1 RES1    0.0000
      3 C2         9.5095    0.7603   15.0928 C.3       1 RES1    0.0000
      4 H2         8.9469    0.0285   15.4497 H         1 RES1    0.0000
      5 H3         8.9073    1.5140   14.8675 H         1 RES1    0.0000
      6 C3        10.4537    1.2186   16.1981 C.3       1 RES1    0.0000
      7 H4        11.0866    1.8886   15.8111 H         1 RES1    0.0000
      8 C4         9.7351    1.8722   17.3960 C.3       1 RES1    0.0000
      9 H5         9.5511    2.8341   17.1940 H         1 RES1    0.0000
     10 C5        10.8081    1.7714   18.4799 C.3       1 RES1    0.0000
     11 H6        11.5209    2.4441   18.3359 H         1 RES1    0.0000
     12 H7        10.4159    1.9062   19.3799 H         1 RES1    0.0000
     13 C6        11.3599    0.3571   18.3329 C.3       1 RES1    0.0000
     14 H8        10.8094   -0.2903   18.8403 H         1 RES1    0.0000
     15 H9        12.2937    0.3078   18.6571 H         1 RES1    0.0000
     16 C7        11.2862    0.0690   16.8122 C.3       1 RES1    0.0000
     17 H10       10.7634   -0.7745   16.6920 H         1 RES1    0.0000
     18 C8        12.6595   -0.1424   16.1467 C.3       1 RES1    0.0000
     19 C9        12.5865   -0.0340   14.6172 C.3       1 RES1    0.0000
     20 H11       12.6233    0.9246   14.3731 H         1 RES1    0.0000
     21 H12       13.3923   -0.4667   14.2375 H         1 RES1    0.0000
     22 C10       11.3524   -0.6529   13.9462 C.3       1 RES1    0.0000
     23 H13       11.6103   -0.9662   13.0429 H         1 RES1    0.0000
     24 H14       11.0751   -1.4461   14.4684 H         1 RES1    0.0000
     25 C11        8.4411    1.1777   17.8056 C.3       1 RES1    0.0000
     26 H15        8.6186    0.2279   17.9695 H         1 RES1    0.0000
     27 H16        7.7806    1.2675   17.0860 H         1 RES1    0.0000
     28 H17        8.0936    1.5918   18.6220 H         1 RES1    0.0000
     29 C12       13.2428   -1.4800   16.5618 C.3       1 RES1    0.0000
     30 H18       14.1740   -1.5381   16.2603 H         1 RES1    0.0000
     31 H19       12.7229   -2.2041   16.1549 H         1 RES1    0.0000
     32 H20       13.2096   -1.5611   17.5378 H         1 RES1    0.0000
     33 C13        9.8000    2.0705   12.2629 C.2       1 RES1    0.0000
     34 C14       10.4613    3.1753   11.5057 C.ar      1 RES1    0.0000
     35 C15       11.7719    3.5770   11.7815 C.ar      1 RES1    0.0000
     36 H21       12.2860    3.1101   12.4305 H         1 RES1    0.0000
     37 C16       12.3162    4.6545   11.1087 C.ar      1 RES1    0.0000
     38 H22       13.2007    4.9484   11.2962 H         1 RES1    0.0000
     39 C17       11.5454    5.2925   10.1593 C.ar      1 RES1    0.0000
     40 C18       10.2652    4.8865    9.8290 C.ar      1 RES1    0.0000
     41 H23        9.7721    5.3274    9.1479 H         1 RES1    0.0000
     42 C19        9.7266    3.8240   10.5189 C.ar      1 RES1    0.0000
     43 H24        8.8447    3.5308   10.3199 H         1 RES1    0.0000
     44 N1        12.0869    6.5097    9.5303 N.pl3     1 RES1    0.0000
     45 O1        13.6242    0.8270   16.6117 O.3       1 RES1    0.0000
     46 H25       13.3335    1.6016   16.4687 H         1 RES1    0.0000
     47 O2        10.6682    1.4238   13.0432 O.3       1 RES1    0.0000
     48 O3         8.6157    1.8114   12.1720 O.2       1 RES1    0.0000
     49 O4        11.4012    7.0848    8.6956 O.2       1 RES1    0.0000
     50 O5        13.1938    6.9067    9.8960 O.2       1 RES1    0.0000
@<TRIPOS>BOND
     1    1    2 1
     2    3    1 1
     3    4    3 1
     4    5    3 1
     5    6    3 1
     6    7    6 1
     7    8    6 1
     8    9    8 1
     9   10    8 1
    10   11   10 1
    11   12   10 1
    12   13   10 1
    13   14   13 1
    14   15   13 1
    15   16    6 1
    16   17   16 1
    17   18   16 1
    18   19   18 1
    19   20   19 1
    20   21   19 1
    21   22    1 1
    22   23   22 1
    23   24   22 1
    24   25    8 1
    25   26   25 1
    26   27   25 1
    27   28   25 1
    28   29   18 1
    29   30   29 1
    30   31   29 1
    31   32   29 1
    32   33   34 1
    33   34   35 ar
    34   35   36 1
    35   37   35 ar
    36   38   37 1
    37   39   37 ar
    38   40   39 ar
    39   41   40 1
    40   42   34 ar
    41   43   42 1
    42   44   39 1
    43   45   18 1
    44   46   45 1
    45   47    1 1
    46   48   33 2
    47   49   44 2
    48   50   44 2
    49   13   16 1
    50   19   22 1
    51   33   47 1
    52   40   42 ar
@<TRIPOS>SUBSTRUCTURE
     1 RES1 1

@<TRIPOS>CRYSIN
  12.7740   10.9550   25.0970  90.0000  90.0000  90.0000  61 1

