# MOL2 file generated by ConQuest
# Please check atom types

@<TRIPOS>MOLECULE
ULEZAN
    45    46     1
SMALL
NO_CHARGES
****
Generated from CSD

@<TRIPOS>ATOM
      1 O1         7.3297   12.2520    5.2672 O.2       1 RES1    0.0000
      2 O2         4.6432    7.2465   10.0963 O.2       1 RES1    0.0000
      3 O3         2.8724    6.6323    8.9992 O.2       1 RES1    0.0000
      4 N1         6.6569   10.8539    7.0173 N.am      1 RES1    0.0000
      5 H1         7.2696   11.0501    7.6169 H         1 RES1    0.0000
      6 N2         5.4584   10.8601    5.1538 N.am      1 RES1    0.0000
      7 N3         3.8849    7.3279    9.1297 N.pl3     1 RES1    0.0000
      8 C1         6.5685   11.4129    5.7680 C.2       1 RES1    0.0000
      9 C2         4.8597    9.9562    6.0143 C.ar      1 RES1    0.0000
     10 C3         5.6352    9.9333    7.1928 C.ar      1 RES1    0.0000
     11 C4         5.3436    9.0884    8.2424 C.ar      1 RES1    0.0000
     12 H2         5.8773    9.0521    9.0278 H         1 RES1    0.0000
     13 C5         4.2101    8.2893    8.0738 C.ar      1 RES1    0.0000
     14 C6         3.4032    8.3229    6.9396 C.ar      1 RES1    0.0000
     15 H3         2.6325    7.7700    6.8890 H         1 RES1    0.0000
     16 C7         3.7248    9.1666    5.8788 C.ar      1 RES1    0.0000
     17 H4         3.1894    9.2005    5.0938 H         1 RES1    0.0000
     18 C8         4.9781   11.2493    3.8281 C.3       1 RES1    0.0000
     19 H5         5.4925   12.0360    3.5174 H         1 RES1    0.0000
     20 H6         4.0275   11.5177    3.8961 H         1 RES1    0.0000
     21 C9         5.1065   10.1330    2.7946 C.3       1 RES1    0.0000
     22 H7         4.6450   10.4178    1.9663 H         1 RES1    0.0000
     23 H8         4.6348    9.3328    3.1374 H         1 RES1    0.0000
     24 C10        6.5382    9.7346    2.4375 C.3       1 RES1    0.0000
     25 H9         6.9912    9.3755    3.2411 H         1 RES1    0.0000
     26 H10        7.0376   10.5344    2.1346 H         1 RES1    0.0000
     27 C11        6.5472    8.6783    1.3314 C.3       1 RES1    0.0000
     28 H11        6.0823    7.8699    1.6633 H         1 RES1    0.0000
     29 H12        6.0301    9.0238    0.5610 H         1 RES1    0.0000
     30 C12        7.9355    8.2734    0.8419 C.3       1 RES1    0.0000
     31 H13        8.4420    7.8760    1.5946 H         1 RES1    0.0000
     32 H14        8.4226    9.0815    0.5414 H         1 RES1    0.0000
     33 C13        7.8728    7.2669   -0.3091 C.3       1 RES1    0.0000
     34 H15        7.4292    6.4427    0.0140 H         1 RES1    0.0000
     35 H16        7.3111    7.6463   -1.0308 H         1 RES1    0.0000
     36 C14        9.2329    6.8922   -0.8939 C.3       1 RES1    0.0000
     37 H17        9.6500    7.6990   -1.2875 H         1 RES1    0.0000
     38 H18        9.8212    6.5706   -0.1655 H         1 RES1    0.0000
     39 C15        9.1288    5.8105   -1.9656 C.3       1 RES1    0.0000
     40 H19        8.7487    4.9923   -1.5582 H         1 RES1    0.0000
     41 H20        8.5019    6.1156   -2.6689 H         1 RES1    0.0000
     42 C16       10.4645    5.4638   -2.6135 C.3       1 RES1    0.0000
     43 H21       10.8001    6.2419   -3.1065 H         1 RES1    0.0000
     44 H22       10.3429    4.7129   -3.2313 H         1 RES1    0.0000
     45 H23       11.1095    5.2142   -1.9186 H         1 RES1    0.0000
@<TRIPOS>BOND
     1    1    8 2
     2    2    7 2
     3    3    7 2
     4    4    5 1
     5    6    8 1
     6    7   13 1
     7    8    4 1
     8    9    6 1
     9   10    4 1
    10   11   10 ar
    11   12   11 1
    12   13   11 ar
    13   14   13 ar
    14   15   14 1
    15   16    9 ar
    16   17   16 1
    17   18    6 1
    18   19   18 1
    19   20   18 1
    20   21   18 1
    21   22   21 1
    22   23   21 1
    23   24   21 1
    24   25   24 1
    25   26   24 1
    26   27   24 1
    27   28   27 1
    28   29   27 1
    29   30   27 1
    30   31   30 1
    31   32   30 1
    32   33   30 1
    33   34   33 1
    34   35   33 1
    35   36   33 1
    36   37   36 1
    37   38   36 1
    38   39   36 1
    39   40   39 1
    40   41   39 1
    41   42   39 1
    42   43   42 1
    43   44   42 1
    44   45   42 1
    45    9   10 ar
    46   14   16 ar
@<TRIPOS>SUBSTRUCTURE
     1 RES1 1

@<TRIPOS>CRYSIN
   5.4830   10.2092   14.7460  74.2750  79.7270  83.4100   2 1

