# MOL2 file generated by ConQuest
# Please check atom types

@<TRIPOS>MOLECULE
ULEZES
    34    34     1
SMALL
NO_CHARGES
****
Generated from CSD

@<TRIPOS>ATOM
      1 O1         0.7738   14.5960    3.7045 O.2       1 RES1    0.0000
      2 O2         1.0785   13.6384    5.6286 O.2       1 RES1    0.0000
      3 O3         3.6238   14.5311    5.2881 O.2       1 RES1    0.0000
      4 O4         4.7562   12.9022    4.4454 O.2       1 RES1    0.0000
      5 O5         3.1542   10.8211    4.0865 O.2       1 RES1    0.0000
      6 O6         1.0471   11.2871    4.2709 O.2       1 RES1    0.0000
      7 N1         3.4156   14.3214    2.0691 N.ar      1 RES1    0.0000
      8 N2         2.9859   13.6486   -0.1966 N.ar      1 RES1    0.0000
      9 N3         1.3377   13.8329    4.4535 N.pl3     1 RES1    0.0000
     10 N4         3.7455   13.5305    4.6310 N.pl3     1 RES1    0.0000
     11 N5         2.2112   11.5683    4.1381 N.pl3     1 RES1    0.0000
     12 N6         2.0564   12.4015    1.6266 N.ar      1 RES1    0.0000
     13 N7         4.2285   15.5221    0.2692 N.3       1 RES1    0.0000
     14 N8         1.6474   11.8102   -0.5673 N.3       1 RES1    0.0000
     15 C1         2.6801   13.2792    2.3814 C.ar      1 RES1    0.0000
     16 C2         3.5259   14.4727    0.7068 C.ar      1 RES1    0.0000
     17 C3         2.5047   13.0528    3.8776 C.3       1 RES1    0.0000
     18 C4         2.2509   12.6437    0.2926 C.ar      1 RES1    0.0000
     19 C5         4.4279   15.7193   -1.1680 C.3       1 RES1    0.0000
     20 H1         5.2468   15.4894   -1.4302 H         1 RES1    0.0000
     21 H2         3.6367   15.5273   -1.5948 H         1 RES1    0.0000
     22 H3         4.5287   16.6770   -1.2783 H         1 RES1    0.0000
     23 C6         4.7468   16.5279    1.1682 C.3       1 RES1    0.0000
     24 H4         4.4513   16.5001    2.0631 H         1 RES1    0.0000
     25 H5         5.6339   16.6138    1.0758 H         1 RES1    0.0000
     26 H6         4.3379   17.3972    1.0379 H         1 RES1    0.0000
     27 C7         0.7749   10.7382   -0.1085 C.3       1 RES1    0.0000
     28 H7         0.0616   10.5621   -0.7214 H         1 RES1    0.0000
     29 H8         0.3019   10.9285    0.6455 H         1 RES1    0.0000
     30 H9         1.1971    9.9304   -0.0127 H         1 RES1    0.0000
     31 C8         1.8363   11.9759   -2.0036 C.3       1 RES1    0.0000
     32 H10        1.1832   12.5962   -2.3288 H         1 RES1    0.0000
     33 H11        2.6184   12.1919   -2.2276 H         1 RES1    0.0000
     34 H12        1.5756   11.2949   -2.5187 H         1 RES1    0.0000
@<TRIPOS>BOND
     1    1    9 2
     2    2    9 2
     3    3   10 2
     4    4   10 2
     5    5   11 2
     6    6   11 2
     7    7   15 ar
     8    8   16 ar
     9    9   17 1
    10   10   17 1
    11   11   17 1
    12   12   15 ar
    13   13   16 1
    14   14   18 1
    15   15   17 1
    16   16    7 ar
    17   18    8 ar
    18   19   13 1
    19   20   19 1
    20   21   19 1
    21   22   19 1
    22   23   13 1
    23   24   23 1
    24   25   23 1
    25   26   23 1
    26   27   14 1
    27   28   27 1
    28   29   27 1
    29   30   27 1
    30   31   14 1
    31   32   31 1
    32   33   31 1
    33   34   31 1
    34   12   18 ar
@<TRIPOS>SUBSTRUCTURE
     1 RES1 1

@<TRIPOS>CRYSIN
   8.9024   12.6341   13.3369  90.0000 108.3770  90.0000 231 1

