# MOL2 file generated by ConQuest
# Please check atom types

@<TRIPOS>MOLECULE
ULIQUB
    55    57     1
SMALL
NO_CHARGES
****
Generated from CSD

@<TRIPOS>ATOM
      1 O1         0.5416    6.5969    6.6861 O.3       1 RES1    0.0000
      2 O2        -1.5051    7.0173    5.7984 O.2       1 RES1    0.0000
      3 O3         0.6861    6.5068    8.9266 O.3       1 RES1    0.0000
      4 O4        -0.1324    4.1237    6.7240 O.2       1 RES1    0.0000
      5 N1        -0.1351    6.1133    7.8611 N.am      1 RES1    0.0000
      6 C1         0.4701    7.9033    4.7517 C.ar      1 RES1    0.0000
      7 C2         1.8088    8.2209    4.9481 C.ar      1 RES1    0.0000
      8 H1         2.2457    7.9703    5.7539 H         1 RES1    0.0000
      9 C3         2.5042    8.9062    3.9605 C.ar      1 RES1    0.0000
     10 H2         3.4180    9.1290    4.0915 H         1 RES1    0.0000
     11 C4         1.8665    9.2655    2.7834 C.ar      1 RES1    0.0000
     12 H3         2.3493    9.7203    2.1042 H         1 RES1    0.0000
     13 C5         0.5299    8.9634    2.5947 C.ar      1 RES1    0.0000
     14 H4         0.0935    9.2226    1.7918 H         1 RES1    0.0000
     15 C6        -0.1726    8.2848    3.5757 C.ar      1 RES1    0.0000
     16 H5        -1.0919    8.0795    3.4481 H         1 RES1    0.0000
     17 C7        -0.3167    7.1606    5.7713 C.2       1 RES1    0.0000
     18 C8         0.3668    8.9473    8.5997 C.ar      1 RES1    0.0000
     19 C9         1.6065    9.5465    8.4188 C.ar      1 RES1    0.0000
     20 H6         2.3694    9.1828    8.8526 H         1 RES1    0.0000
     21 C10        1.7475   10.6684    7.6153 C.ar      1 RES1    0.0000
     22 H7         2.6064   11.0577    7.5072 H         1 RES1    0.0000
     23 C11        0.6497   11.2374    6.9620 C.ar      1 RES1    0.0000
     24 C12       -0.5884   10.6152    7.1404 C.ar      1 RES1    0.0000
     25 H8        -1.3512   10.9684    6.6991 H         1 RES1    0.0000
     26 C13       -0.7323    9.4968    7.9433 C.ar      1 RES1    0.0000
     27 H9        -1.5892    9.1006    8.0475 H         1 RES1    0.0000
     28 C14        0.1955    7.7554    9.4995 C.3       1 RES1    0.0000
     29 H10        0.6746    7.9263   10.3488 H         1 RES1    0.0000
     30 H11       -0.7652    7.6526    9.7115 H         1 RES1    0.0000
     31 C15        0.7477   12.5092    6.1140 C.3       1 RES1    0.0000
     32 C16       -0.0315   13.6289    6.8225 C.3       1 RES1    0.0000
     33 H12       -0.9787   13.3836    6.8761 H         1 RES1    0.0000
     34 H13        0.0618   14.4628    6.3173 H         1 RES1    0.0000
     35 H14        0.3255   13.7537    7.7273 H         1 RES1    0.0000
     36 C17        2.1950   12.9675    5.9194 C.3       1 RES1    0.0000
     37 H15        2.5920   13.1737    6.7914 H         1 RES1    0.0000
     38 H16        2.2107   13.7693    5.3553 H         1 RES1    0.0000
     39 H17        2.7091   12.2532    5.4861 H         1 RES1    0.0000
     40 C18        0.1443   12.2606    4.7263 C.3       1 RES1    0.0000
     41 H18        0.6261   11.5300    4.2870 H         1 RES1    0.0000
     42 H19        0.2214   13.0744    4.1854 H         1 RES1    0.0000
     43 H20       -0.8004   12.0192    4.8196 H         1 RES1    0.0000
     44 C19       -0.5446    3.9810    9.0676 C.ar      1 RES1    0.0000
     45 C20       -0.2902    2.6139    9.1089 C.ar      1 RES1    0.0000
     46 H21        0.0584    2.1741    8.3431 H         1 RES1    0.0000
     47 C21       -0.5437    1.8903   10.2632 C.ar      1 RES1    0.0000
     48 H22       -0.3597    0.9587   10.2903 H         1 RES1    0.0000
     49 C22       -1.0636    2.5226   11.3724 C.ar      1 RES1    0.0000
     50 H23       -1.2167    2.0294   12.1698 H         1 RES1    0.0000
     51 C23       -1.3624    3.8717   11.3265 C.ar      1 RES1    0.0000
     52 H24       -1.7442    4.2971   12.0851 H         1 RES1    0.0000
     53 C24       -1.1083    4.6050   10.1802 C.ar      1 RES1    0.0000
     54 H25       -1.3175    5.5310   10.1517 H         1 RES1    0.0000
     55 C25       -0.2246    4.6762    7.7932 C.2       1 RES1    0.0000
@<TRIPOS>BOND
     1    1    5 1
     2    2   17 2
     3    3    5 1
     4    4   55 2
     5    5   55 1
     6    6    7 ar
     7    7    8 1
     8    9    7 ar
     9   10    9 1
    10   11    9 ar
    11   12   11 1
    12   13   11 ar
    13   14   13 1
    14   15    6 ar
    15   16   15 1
    16   17    1 1
    17   18   19 ar
    18   19   20 1
    19   21   19 ar
    20   22   21 1
    21   23   21 ar
    22   24   23 ar
    23   25   24 1
    24   26   18 ar
    25   27   26 1
    26   28    3 1
    27   29   28 1
    28   30   28 1
    29   31   23 1
    30   32   31 1
    31   33   32 1
    32   34   32 1
    33   35   32 1
    34   36   31 1
    35   37   36 1
    36   38   36 1
    37   39   36 1
    38   40   31 1
    39   41   40 1
    40   42   40 1
    41   43   40 1
    42   44   45 ar
    43   45   46 1
    44   47   45 ar
    45   48   47 1
    46   49   47 ar
    47   50   49 1
    48   51   49 ar
    49   52   51 1
    50   53   44 ar
    51   54   53 1
    52   55   44 1
    53    6   17 1
    54   13   15 ar
    55   18   28 1
    56   24   26 ar
    57   51   53 ar
@<TRIPOS>SUBSTRUCTURE
     1 RES1 1

@<TRIPOS>CRYSIN
   9.9740   14.1820   16.1040  90.0000 107.0880  90.0000  14 1

