# MOL2 file generated by ConQuest
# Please check atom types

@<TRIPOS>MOLECULE
ULIRAI
    79    81     1
SMALL
NO_CHARGES
****
Generated from CSD

@<TRIPOS>ATOM
      1 O1         3.6806    7.2639    2.7842 O.3       1 RES1    0.0000
      2 O2         5.2790    8.7035    2.0581 O.2       1 RES1    0.0000
      3 O3         2.4766    6.2096    1.1847 O.3       1 RES1    0.0000
      4 O4         5.4117    5.3866    2.5218 O.2       1 RES1    0.0000
      5 N1         3.7764    6.6349    1.4907 N.am      1 RES1    0.0000
      6 C1         4.1968    9.0867    4.1574 C.ar      1 RES1    0.0000
      7 C2         3.2595    8.6433    5.0769 C.ar      1 RES1    0.0000
      8 H1         2.7583    7.8558    4.9025 H         1 RES1    0.0000
      9 C3         3.0544    9.3507    6.2487 C.ar      1 RES1    0.0000
     10 H2         2.4185    9.0263    6.8757 H         1 RES1    0.0000
     11 C4         3.7502   10.5253    6.5401 C.ar      1 RES1    0.0000
     12 C5         4.6910   10.9546    5.6087 C.ar      1 RES1    0.0000
     13 H3         5.1874   11.7479    5.7774 H         1 RES1    0.0000
     14 C6         4.9157   10.2443    4.4383 C.ar      1 RES1    0.0000
     15 H4         5.5686   10.5518    3.8209 H         1 RES1    0.0000
     16 C7         4.4763    8.3774    2.8839 C.2       1 RES1    0.0000
     17 C8         3.5072   11.2548    7.8680 C.3       1 RES1    0.0000
     18 C9         4.0201   12.6927    7.8346 C.3       1 RES1    0.0000
     19 H5         3.5808   13.1795    7.1064 H         1 RES1    0.0000
     20 H6         4.9893   12.6898    7.6879 H         1 RES1    0.0000
     21 H7         3.8201   13.1317    8.6883 H         1 RES1    0.0000
     22 C10        4.2472   10.4801    8.9668 C.3       1 RES1    0.0000
     23 H8         4.0911   10.9118    9.8327 H         1 RES1    0.0000
     24 H9         5.2074   10.4750    8.7732 H         1 RES1    0.0000
     25 H10        3.9161    9.5587    8.9966 H         1 RES1    0.0000
     26 C11        2.0153   11.2892    8.2038 C.3       1 RES1    0.0000
     27 H11        1.5260   11.7223    7.4738 H         1 RES1    0.0000
     28 H12        1.8783   11.7939    9.0316 H         1 RES1    0.0000
     29 H13        1.6856   10.3743    8.3210 H         1 RES1    0.0000
     30 C12        1.3934    8.4191    1.1237 C.ar      1 RES1    0.0000
     31 C13        0.3456    8.3566    2.0332 C.ar      1 RES1    0.0000
     32 H14       -0.1387    7.5453    2.1356 H         1 RES1    0.0000
     33 C14       -0.0011    9.4573    2.7916 C.ar      1 RES1    0.0000
     34 H15       -0.7250    9.3881    3.4037 H         1 RES1    0.0000
     35 C15        0.6835   10.6697    2.6838 C.ar      1 RES1    0.0000
     36 C16        1.7107   10.7282    1.7463 C.ar      1 RES1    0.0000
     37 H16        2.1855   11.5431    1.6299 H         1 RES1    0.0000
     38 C17        2.0585    9.6244    0.9770 C.ar      1 RES1    0.0000
     39 H17        2.7616    9.6986    0.3415 H         1 RES1    0.0000
     40 C18        1.8067    7.2011    0.3435 C.3       1 RES1    0.0000
     41 H18        1.0056    6.7911   -0.0683 H         1 RES1    0.0000
     42 H19        2.4170    7.4736   -0.3858 H         1 RES1    0.0000
     43 C19        0.2904   11.8854    3.5301 C.3       1 RES1    0.0000
     44 C20        1.4735   12.8070    3.7653 C.3       1 RES1    0.0000
     45 H20        1.7665   13.1863    2.9109 H         1 RES1    0.0000
     46 H21        2.2087   12.2990    4.1660 H         1 RES1    0.0000
     47 H22        1.2083   13.5310    4.3691 H         1 RES1    0.0000
     48 C21       -0.2472   11.4525    4.8879 C.3       1 RES1    0.0000
     49 H23       -0.4581   12.2461    5.4230 H         1 RES1    0.0000
     50 H24        0.4300   10.9152    5.3511 H         1 RES1    0.0000
     51 H25       -1.0582   10.9169    4.7622 H         1 RES1    0.0000
     52 C22       -0.8077   12.6433    2.8158 C.3       1 RES1    0.0000
     53 H26       -1.1036   13.3927    3.3742 H         1 RES1    0.0000
     54 H27       -1.5637   12.0431    2.6488 H         1 RES1    0.0000
     55 H28       -0.4667   12.9849    1.9640 H         1 RES1    0.0000
     56 C23        4.5655    4.5480    0.4557 C.ar      1 RES1    0.0000
     57 C24        4.7752    3.1973    0.7171 C.ar      1 RES1    0.0000
     58 H29        4.9618    2.9092    1.6022 H         1 RES1    0.0000
     59 C25        4.7135    2.2754   -0.3070 C.ar      1 RES1    0.0000
     60 H30        4.8297    1.3548   -0.1071 H         1 RES1    0.0000
     61 C26        4.4842    2.6584   -1.6301 C.ar      1 RES1    0.0000
     62 C27        4.3121    4.0185   -1.8779 C.ar      1 RES1    0.0000
     63 H31        4.1786    4.3135   -2.7706 H         1 RES1    0.0000
     64 C28        4.3300    4.9541   -0.8509 C.ar      1 RES1    0.0000
     65 H32        4.1809    5.8731   -1.0429 H         1 RES1    0.0000
     66 C29        4.6420    5.4902    1.6001 C.2       1 RES1    0.0000
     67 C30        4.4289    1.5927   -2.7283 C.3       1 RES1    0.0000
     68 C31        4.2335    2.1929   -4.1236 C.3       1 RES1    0.0000
     69 H33        3.3905    2.6925   -4.1494 H         1 RES1    0.0000
     70 H34        4.2078    1.4725   -4.7881 H         1 RES1    0.0000
     71 H35        4.9772    2.7983   -4.3266 H         1 RES1    0.0000
     72 C32        3.2571    0.6443   -2.4293 C.3       1 RES1    0.0000
     73 H36        3.3776    0.2457   -1.5413 H         1 RES1    0.0000
     74 H37        3.2296   -0.0648   -3.1047 H         1 RES1    0.0000
     75 H38        2.4164    1.1466   -2.4494 H         1 RES1    0.0000
     76 C33        5.7483    0.8003   -2.7167 C.3       1 RES1    0.0000
     77 H39        6.4985    1.4128   -2.8629 H         1 RES1    0.0000
     78 H40        5.7318    0.1280   -3.4295 H         1 RES1    0.0000
     79 H41        5.8543    0.3549   -1.8495 H         1 RES1    0.0000
@<TRIPOS>BOND
     1    1    5 1
     2    2   16 2
     3    3    5 1
     4    4   66 2
     5    5   66 1
     6    6    7 ar
     7    7    8 1
     8    9    7 ar
     9   10    9 1
    10   11    9 ar
    11   12   11 ar
    12   13   12 1
    13   14    6 ar
    14   15   14 1
    15   16    1 1
    16   17   11 1
    17   18   17 1
    18   19   18 1
    19   20   18 1
    20   21   18 1
    21   22   17 1
    22   23   22 1
    23   24   22 1
    24   25   22 1
    25   26   17 1
    26   27   26 1
    27   28   26 1
    28   29   26 1
    29   30   31 ar
    30   31   32 1
    31   33   31 ar
    32   34   33 1
    33   35   33 ar
    34   36   35 ar
    35   37   36 1
    36   38   30 ar
    37   39   38 1
    38   40    3 1
    39   41   40 1
    40   42   40 1
    41   43   35 1
    42   44   43 1
    43   45   44 1
    44   46   44 1
    45   47   44 1
    46   48   43 1
    47   49   48 1
    48   50   48 1
    49   51   48 1
    50   52   43 1
    51   53   52 1
    52   54   52 1
    53   55   52 1
    54   56   57 ar
    55   57   58 1
    56   59   57 ar
    57   60   59 1
    58   61   59 ar
    59   62   61 ar
    60   63   62 1
    61   64   56 ar
    62   65   64 1
    63   66   56 1
    64   67   61 1
    65   68   67 1
    66   69   68 1
    67   70   68 1
    68   71   68 1
    69   72   67 1
    70   73   72 1
    71   74   72 1
    72   75   72 1
    73   76   67 1
    74   77   76 1
    75   78   76 1
    76   79   76 1
    77    6   16 1
    78   12   14 ar
    79   30   40 1
    80   36   38 ar
    81   62   64 ar
@<TRIPOS>SUBSTRUCTURE
     1 RES1 1

@<TRIPOS>CRYSIN
   9.2910   17.0630   18.6400  90.0000  98.0070  90.0000 231 1

