# MOL2 file generated by ConQuest
# Please check atom types

@<TRIPOS>MOLECULE
ULIZOF
   188   196     4
SMALL
NO_CHARGES
****
Generated from CSD

@<TRIPOS>ATOM
      1 O1        -9.0425   -5.8744  -12.5923 O.3       1 RES1    0.0000
      2 O2        -4.6670    3.1187   -4.0361 O.2       1 RES1    0.0000
      3 O3        -6.1958    3.5550  -10.8431 O.2       1 RES1    0.0000
      4 O4        -5.7110    5.2902   -9.6464 O.2       1 RES1    0.0000
      5 O5        -4.3749    4.9588   -5.1531 O.2       1 RES1    0.0000
      6 O6       -10.1822   -1.4782  -11.6883 O.3       1 RES1    0.0000
      7 O7       -10.5781   -3.6834  -11.2766 O.3       1 RES1    0.0000
      8 N1        -4.7159    3.7835   -5.0770 N.pl3     1 RES1    0.0000
      9 N2        -7.0563   -0.1041   -9.5793 N.2       1 RES1    0.0000
     10 N3        -5.9273    4.0879   -9.7487 N.pl3     1 RES1    0.0000
     11 N4        -6.6347    1.2158   -9.6907 N.pl3     1 RES1    0.0000
     12 H1        -6.6744    1.6225  -10.4480 H         1 RES1    0.0000
     13 C1        -8.2612   -7.0213  -12.3405 C.3       1 RES1    0.0000
     14 H2        -8.2239   -7.1826  -11.3948 H         1 RES1    0.0000
     15 H3        -7.3732   -6.8827  -12.6766 H         1 RES1    0.0000
     16 H4        -8.6554   -7.7794  -12.7784 H         1 RES1    0.0000
     17 C2        -8.4868   -4.7048  -12.0226 C.3       1 RES1    0.0000
     18 H5        -7.6505   -4.4865  -12.4624 H         1 RES1    0.0000
     19 H6        -8.3096   -4.8464  -11.0800 H         1 RES1    0.0000
     20 C3        -9.4689   -3.5844  -12.1991 C.3       1 RES1    0.0000
     21 H7        -9.8214   -3.6228  -13.1133 H         1 RES1    0.0000
     22 C4        -8.9466   -2.1704  -11.9413 C.3       1 RES1    0.0000
     23 H8        -8.5096   -1.8144  -12.7429 H         1 RES1    0.0000
     24 C5        -8.0360   -2.0153  -10.7163 C.3       1 RES1    0.0000
     25 H9        -7.2497   -2.5821  -10.8563 H         1 RES1    0.0000
     26 C6        -7.5637   -0.5899  -10.6408 C.2       1 RES1    0.0000
     27 H10       -7.6448   -0.0480  -11.3913 H         1 RES1    0.0000
     28 C7        -6.1630    1.8537   -8.6008 C.ar      1 RES1    0.0000
     29 C8        -5.8315    3.2404   -8.5762 C.ar      1 RES1    0.0000
     30 C9        -5.3717    3.8654   -7.4245 C.ar      1 RES1    0.0000
     31 H11       -5.1807    4.7744   -7.4253 H         1 RES1    0.0000
     32 C10       -5.2024    3.1175   -6.2812 C.ar      1 RES1    0.0000
     33 C11       -5.9619    1.1336   -7.3845 C.ar      1 RES1    0.0000
     34 H12       -6.1568    0.2249   -7.3579 H         1 RES1    0.0000
     35 C12       -5.4908    1.7475   -6.2579 C.ar      1 RES1    0.0000
     36 H13       -5.3623    1.2566   -5.4785 H         1 RES1    0.0000
     37 C13       -8.7470   -2.5033   -9.4291 C.3       1 RES1    0.0000
     38 H14       -8.6408   -3.4638   -9.3568 H         1 RES1    0.0000
     39 H15       -8.3160   -2.0993   -8.6597 H         1 RES1    0.0000
     40 C14      -10.2446   -2.1638   -9.3948 C.3       1 RES1    0.0000
     41 H16      -10.3364   -1.2176   -9.1580 H         1 RES1    0.0000
     42 C15      -10.9928   -2.9873   -8.3530 C.3       1 RES1    0.0000
     43 H17      -10.5988   -2.8461   -7.4893 H         1 RES1    0.0000
     44 H18      -10.9371   -3.9197   -8.5804 H         1 RES1    0.0000
     45 H19      -11.9141   -2.7171   -8.3331 H         1 RES1    0.0000
     46 C16      -10.8286   -2.3608  -10.7844 C.3       1 RES1    0.0000
     47 H20      -11.7926   -2.1833  -10.7723 H         1 RES1    0.0000
     48 O8        -8.8948    3.7074   -9.4120 O.2       2 RES2    0.0000
     49 O9       -12.5778   -6.1791  -16.8948 O.3       2 RES2    0.0000
     50 O10       -9.0032    5.5371  -10.5689 O.2       2 RES2    0.0000
     51 O11      -13.4624   -1.6288  -17.0299 O.3       2 RES2    0.0000
     52 O12      -14.0162   -3.7284  -16.3251 O.3       2 RES2    0.0000
     53 O13       -9.6544    3.4710  -16.3361 O.2       2 RES2    0.0000
     54 O14       -9.2338    5.3199  -15.2874 O.2       2 RES2    0.0000
     55 N5        -9.0592    4.3126  -10.4690 N.pl3     2 RES2    0.0000
     56 N6       -10.2573    1.2830  -15.0279 N.pl3     2 RES2    0.0000
     57 H21      -10.1571    1.5895  -15.8259 H         2 RES2    0.0000
     58 N7       -10.7207   -0.0060  -14.8188 N.2       2 RES2    0.0000
     59 N8        -9.4936    4.1164  -15.2855 N.pl3     2 RES2    0.0000
     60 C17       -9.3398    3.5340  -11.6692 C.ar      2 RES2    0.0000
     61 C18       -9.3117    4.1638  -12.8836 C.ar      2 RES2    0.0000
     62 H22       -9.1082    5.0683  -12.9452 H         2 RES2    0.0000
     63 C19       -9.5963    3.4138  -14.0297 C.ar      2 RES2    0.0000
     64 C20       -9.9670    2.0456  -13.9582 C.ar      2 RES2    0.0000
     65 C21      -10.9666   -0.6781  -15.8653 C.2       2 RES2    0.0000
     66 H23      -10.8423   -0.2879  -16.7005 H         2 RES2    0.0000
     67 C22      -11.4585   -2.1014  -15.7748 C.3       2 RES2    0.0000
     68 H24      -10.6785   -2.6931  -15.7525 H         2 RES2    0.0000
     69 C23      -12.2562   -2.4052  -17.0531 C.3       2 RES2    0.0000
     70 H25      -11.7250   -2.1953  -17.8497 H         2 RES2    0.0000
     71 C24      -12.8329   -3.8243  -17.1442 C.3       2 RES2    0.0000
     72 H26      -13.1074   -3.9917  -18.0698 H         2 RES2    0.0000
     73 C25      -11.9156   -4.9370  -16.7082 C.3       2 RES2    0.0000
     74 H27      -11.0994   -4.9154  -17.2319 H         2 RES2    0.0000
     75 H28      -11.6812   -4.8254  -15.7738 H         2 RES2    0.0000
     76 C26      -11.7399   -7.2738  -16.5773 C.3       2 RES2    0.0000
     77 H29      -11.4540   -7.2036  -15.6638 H         2 RES2    0.0000
     78 H30      -10.9725   -7.2666  -17.1550 H         2 RES2    0.0000
     79 H31      -12.2242   -8.0943  -16.6981 H         2 RES2    0.0000
     80 C27       -9.9959    1.4614  -12.6580 C.ar      2 RES2    0.0000
     81 H32      -10.2398    0.5698  -12.5665 H         2 RES2    0.0000
     82 C28       -9.6740    2.1818  -11.5437 C.ar      2 RES2    0.0000
     83 H33       -9.6764    1.7754  -10.7072 H         2 RES2    0.0000
     84 C29      -14.2324   -2.3290  -16.0576 C.3       2 RES2    0.0000
     85 H34      -15.1818   -2.1113  -16.1620 H         2 RES2    0.0000
     86 C30      -13.7720   -1.9760  -14.6638 C.3       2 RES2    0.0000
     87 H35      -13.8474   -1.0047  -14.5489 H         2 RES2    0.0000
     88 C31      -12.3039   -2.3698  -14.5098 C.3       2 RES2    0.0000
     89 H36      -12.2537   -3.3139  -14.2933 H         2 RES2    0.0000
     90 H37      -11.9227   -1.8744  -13.7666 H         2 RES2    0.0000
     91 C32      -14.6468   -2.6598  -13.6059 C.3       2 RES2    0.0000
     92 H38      -14.3316   -2.4262  -12.7298 H         2 RES2    0.0000
     93 H39      -14.6003   -3.6108  -13.7192 H         2 RES2    0.0000
     94 H40      -15.5564   -2.3692  -13.7074 H         2 RES2    0.0000
     95 O15       -0.8951    9.8661  -15.1964 O.3       3 RES3    0.0000
     96 O16       -7.6925   -0.4819  -18.4591 O.2       3 RES3    0.0000
     97 O17       -1.9938    6.1168  -12.5819 O.3       3 RES3    0.0000
     98 O18       -1.3507    8.2973  -12.6942 O.3       3 RES3    0.0000
     99 O19       -7.0555   -0.0237  -13.8764 O.2       3 RES3    0.0000
    100 O20       -6.6373    1.8714  -12.9165 O.2       3 RES3    0.0000
    101 O21       -7.6090    1.2332  -19.7890 O.2       3 RES3    0.0000
    102 N9        -5.2427    5.1286  -14.6468 N.2       3 RES3    0.0000
    103 N10       -5.8958    3.9428  -14.3698 N.pl3     3 RES3    0.0000
    104 H41       -6.0360    3.7038  -13.5559 H         3 RES3    0.0000
    105 N11       -7.4941    0.7126  -18.6801 N.pl3     3 RES3    0.0000
    106 N12       -6.8049    1.1753  -13.9338 N.pl3     3 RES3    0.0000
    107 C33       -0.9815   10.9026  -14.2476 C.3       3 RES3    0.0000
    108 H42       -0.6955   10.5775  -13.3914 H         3 RES3    0.0000
    109 H43       -1.8902   11.2073  -14.1879 H         3 RES3    0.0000
    110 H44       -0.4178   11.6301  -14.5169 H         3 RES3    0.0000
    111 C34       -1.8667    8.8494  -15.0348 C.3       3 RES3    0.0000
    112 H45       -2.0318    8.4332  -15.8945 H         3 RES3    0.0000
    113 H46       -2.6978    9.2519  -14.7371 H         3 RES3    0.0000
    114 C35       -1.4525    7.7842  -14.0429 C.3       3 RES3    0.0000
    115 H47       -0.5723    7.4435  -14.3086 H         3 RES3    0.0000
    116 C36       -2.3955    6.5918  -13.8800 C.3       3 RES3    0.0000
    117 H48       -2.2202    5.9140  -14.5666 H         3 RES3    0.0000
    118 C37       -3.9006    6.9451  -13.8298 C.3       3 RES3    0.0000
    119 H49       -4.1533    7.3476  -14.6874 H         3 RES3    0.0000
    120 C38       -4.6912    5.6918  -13.6450 C.2       3 RES3    0.0000
    121 H50       -4.7810    5.3202  -12.7973 H         3 RES3    0.0000
    122 C39       -6.3138    3.1612  -15.3959 C.ar      3 RES3    0.0000
    123 C40       -6.3454    3.6705  -16.7234 C.ar      3 RES3    0.0000
    124 H51       -6.0836    4.5495  -16.8757 H         3 RES3    0.0000
    125 C41       -6.7495    2.9045  -17.7808 C.ar      3 RES3    0.0000
    126 H52       -6.7819    3.2659  -18.6367 H         3 RES3    0.0000
    127 C42       -7.1145    1.5685  -17.5649 C.ar      3 RES3    0.0000
    128 C43       -1.9514    7.3227  -11.8281 C.3       3 RES3    0.0000
    129 H53       -1.4009    7.2006  -11.0268 H         3 RES3    0.0000
    130 C44       -3.3534    7.7341  -11.4361 C.3       3 RES3    0.0000
    131 H54       -3.7613    6.9967  -10.9356 H         3 RES3    0.0000
    132 C45       -4.1817    7.9701  -12.7081 C.3       3 RES3    0.0000
    133 H55       -3.9944    8.8620  -13.0435 H         3 RES3    0.0000
    134 H56       -5.1237    7.9324  -12.4801 H         3 RES3    0.0000
    135 C46       -6.7358    1.8177  -15.2288 C.ar      3 RES3    0.0000
    136 C47       -7.1147    1.0197  -16.3062 C.ar      3 RES3    0.0000
    137 H57       -7.3635    0.1320  -16.1750 H         3 RES3    0.0000
    138 C48       -3.3508    8.9640  -10.5543 C.3       3 RES3    0.0000
    139 H58       -4.2534    9.1859  -10.3143 H         3 RES3    0.0000
    140 H59       -2.9547    9.6988  -11.0303 H         3 RES3    0.0000
    141 H60       -2.8427    8.7871   -9.7592 H         3 RES3    0.0000
    142 O22       -8.0845   10.9637   -8.3744 O.3       4 RES4    0.0000
    143 O23      -13.4840    1.8042  -13.2634 O.2       4 RES4    0.0000
    144 O24       -7.8152    6.6248   -6.5299 O.3       4 RES4    0.0000
    145 O25       -7.5502    8.8728   -6.2616 O.3       4 RES4    0.0000
    146 O26      -13.8571    0.0471  -12.0445 O.2       4 RES4    0.0000
    147 O27      -12.5576   -0.0594   -7.5342 O.2       4 RES4    0.0000
    148 O28      -11.9992    1.7244   -6.4398 O.2       4 RES4    0.0000
    149 N13      -11.2273    5.3304   -7.8907 N.2       4 RES4    0.0000
    150 N14      -11.6092    4.0085   -7.6954 N.pl3     4 RES4    0.0000
    151 H61      -11.5479    3.6468   -6.9176 H         4 RES4    0.0000
    152 N15      -13.4773    1.2032  -12.1857 N.pl3     4 RES4    0.0000
    153 N16      -12.3193    1.1399   -7.4966 N.pl3     4 RES4    0.0000
    154 C49       -7.8984   11.6967   -7.1691 C.3       4 RES4    0.0000
    155 H62       -7.1655   11.3212   -6.6762 H         4 RES4    0.0000
    156 H63       -8.6970   11.6481   -6.6395 H         4 RES4    0.0000
    157 H64       -7.7069   12.6138   -7.3792 H         4 RES4    0.0000
    158 C50       -8.8027    9.7575   -8.1828 C.3       4 RES4    0.0000
    159 H65       -9.1816    9.4798   -9.0325 H         4 RES4    0.0000
    160 H66       -9.5382    9.9267   -7.5733 H         4 RES4    0.0000
    161 C51       -7.9634    8.6272   -7.6335 C.3       4 RES4    0.0000
    162 H67       -7.1609    8.5382   -8.1887 H         4 RES4    0.0000
    163 C52       -8.6399    7.2552   -7.5308 C.3       4 RES4    0.0000
    164 H68       -8.5755    6.7747   -8.3828 H         4 RES4    0.0000
    165 C53      -10.0997    7.2717   -7.0240 C.3       4 RES4    0.0000
    166 H69      -10.6538    7.7524   -7.6739 H         4 RES4    0.0000
    167 C54      -10.5833    5.8597   -6.9277 C.2       4 RES4    0.0000
    168 H70      -10.4129    5.3652   -6.1590 H         4 RES4    0.0000
    169 C55      -12.0760    3.3046   -8.7433 C.ar      4 RES4    0.0000
    170 C56      -12.4194    1.9260   -8.7064 C.ar      4 RES4    0.0000
    171 C57      -12.8749    1.2431   -9.8254 C.ar      4 RES4    0.0000
    172 H71      -13.0874    0.3389   -9.7734 H         4 RES4    0.0000
    173 C58      -13.0067    1.9236  -11.0111 C.ar      4 RES4    0.0000
    174 C59       -7.7377    7.6436   -5.5462 C.3       4 RES4    0.0000
    175 H72       -6.9710    7.4795   -4.9577 H         4 RES4    0.0000
    176 C60       -9.0202    7.6726   -4.7265 C.3       4 RES4    0.0000
    177 H73       -9.1566    6.7867   -4.3328 H         4 RES4    0.0000
    178 C61      -10.2093    7.9821   -5.6584 C.3       4 RES4    0.0000
    179 H74      -10.2570    8.9400   -5.8028 H         4 RES4    0.0000
    180 H75      -11.0316    7.7074   -5.2240 H         4 RES4    0.0000
    181 C62      -12.6821    3.2782  -11.1083 C.ar      4 RES4    0.0000
    182 H76      -12.7668    3.7218  -11.9227 H         4 RES4    0.0000
    183 C63      -12.2407    3.9521  -10.0080 C.ar      4 RES4    0.0000
    184 H77      -12.0415    4.8584  -10.0823 H         4 RES4    0.0000
    185 C64       -8.9543    8.6932   -3.6043 C.3       4 RES4    0.0000
    186 H78       -8.2827    8.4302   -2.9706 H         4 RES4    0.0000
    187 H79       -9.8065    8.7421   -3.1659 H         4 RES4    0.0000
    188 H80       -8.7309    9.5548   -3.9671 H         4 RES4    0.0000
@<TRIPOS>BOND
     1    1   13 1
     2    2    8 2
     3    3   10 2
     4    4   10 2
     5    5    8 2
     6    6   22 1
     7    7   20 1
     8    8   32 1
     9    9   11 1
    10   10   29 1
    11   11   12 1
    12   13   14 1
    13   15   13 1
    14   16   13 1
    15   17    1 1
    16   18   17 1
    17   19   17 1
    18   20   17 1
    19   21   20 1
    20   22   20 1
    21   23   22 1
    22   24   22 1
    23   25   24 1
    24   26    9 2
    25   27   26 1
    26   28   11 1
    27   29   28 ar
    28   30   29 ar
    29   31   30 1
    30   32   30 ar
    31   33   28 ar
    32   34   33 1
    33   35   32 ar
    34   36   35 1
    35   37   24 1
    36   38   37 1
    37   39   37 1
    38   40   37 1
    39   41   40 1
    40   42   40 1
    41   43   42 1
    42   44   42 1
    43   45   42 1
    44   46    6 1
    45   47   46 1
    46   48   55 2
    47   49   73 1
    48   50   55 2
    49   51   69 1
    50   52   71 1
    51   53   59 2
    52   54   59 2
    53   55   60 1
    54   56   57 1
    55   58   56 1
    56   59   63 1
    57   60   61 ar
    58   61   62 1
    59   63   61 ar
    60   64   56 1
    61   65   58 2
    62   66   65 1
    63   67   65 1
    64   68   67 1
    65   69   67 1
    66   70   69 1
    67   71   69 1
    68   72   71 1
    69   73   71 1
    70   74   73 1
    71   75   73 1
    72   76   49 1
    73   77   76 1
    74   78   76 1
    75   79   76 1
    76   80   64 ar
    77   81   80 1
    78   82   60 ar
    79   83   82 1
    80   84   51 1
    81   85   84 1
    82   86   84 1
    83   87   86 1
    84   88   67 1
    85   89   88 1
    86   90   88 1
    87   91   86 1
    88   92   91 1
    89   93   91 1
    90   94   91 1
    91   95  107 1
    92   96  105 2
    93   97  116 1
    94   98  114 1
    95   99  106 2
    96  100  106 2
    97  101  105 2
    98  102  103 1
    99  103  104 1
   100  105  127 1
   101  106  135 1
   102  107  108 1
   103  109  107 1
   104  110  107 1
   105  111   95 1
   106  112  111 1
   107  113  111 1
   108  114  111 1
   109  115  114 1
   110  116  114 1
   111  117  116 1
   112  118  116 1
   113  119  118 1
   114  120  102 2
   115  121  120 1
   116  122  103 1
   117  123  122 ar
   118  124  123 1
   119  125  123 ar
   120  126  125 1
   121  127  125 ar
   122  128   97 1
   123  129  128 1
   124  130  128 1
   125  131  130 1
   126  132  118 1
   127  133  132 1
   128  134  132 1
   129  135  122 ar
   130  136  127 ar
   131  137  136 1
   132  138  130 1
   133  139  138 1
   134  140  138 1
   135  141  138 1
   136  142  154 1
   137  143  152 2
   138  144  163 1
   139  145  161 1
   140  146  152 2
   141  147  153 2
   142  148  153 2
   143  149  150 1
   144  150  151 1
   145  152  173 1
   146  153  170 1
   147  154  155 1
   148  156  154 1
   149  157  154 1
   150  158  142 1
   151  159  158 1
   152  160  158 1
   153  161  158 1
   154  162  161 1
   155  163  161 1
   156  164  163 1
   157  165  163 1
   158  166  165 1
   159  167  149 2
   160  168  167 1
   161  169  150 1
   162  170  169 ar
   163  171  170 ar
   164  172  171 1
   165  173  171 ar
   166  174  144 1
   167  175  174 1
   168  176  174 1
   169  177  176 1
   170  178  165 1
   171  179  178 1
   172  180  178 1
   173  181  173 ar
   174  182  181 1
   175  183  169 ar
   176  184  183 1
   177  185  176 1
   178  186  185 1
   179  187  185 1
   180  188  185 1
   181    7   46 1
   182   24   26 1
   183   33   35 ar
   184   40   46 1
   185   52   84 1
   186   63   64 ar
   187   80   82 ar
   188   86   88 1
   189   98  128 1
   190  118  120 1
   191  130  132 1
   192  135  136 ar
   193  145  174 1
   194  165  167 1
   195  176  178 1
   196  181  183 ar
@<TRIPOS>SUBSTRUCTURE
     1 RES1 1
     2 RES2 48
     3 RES3 95
     4 RES4 142

@<TRIPOS>CRYSIN
   9.7570   29.9900   11.9700  90.0000  98.6100  90.0000   4 1

