# MOL2 file generated by ConQuest
# Please check atom types

@<TRIPOS>MOLECULE
ULOMEN
    51    47     2
SMALL
NO_CHARGES
****
Generated from CSD

@<TRIPOS>ATOM
      1 C1         0.3820    0.3769   21.8847 C.2       1 RES1    0.0000
      2 H1        -0.4678    0.2610   21.4978 H         1 RES1    0.0000
      3 H2        -0.4376   -0.0227   21.6538 Du        2 SUP2    0.0000
      4 N1         0.4834   -0.1473   23.0600 N.2       1 RES1    0.0000
      5 O1         1.7618    0.2058   23.5592 O.3       1 RES1    0.0000
      6 H3         1.8615   -0.1181   24.3164 H         1 RES1    0.0000
      7 N2         0.9651    0.4116   23.0392 Du        2 SUP2    0.0000
      8 O2         0.0245   -0.2794   23.8442 Du        2 SUP2    0.0000
      9 H4         0.2887   -0.2881   24.6305 Du        2 SUP2    0.0000
     10 C2         1.3234    1.1221   21.0194 C.3       1 RES1    0.0000
     11 H5         1.7380    1.8543   21.5415 H         1 RES1    0.0000
     12 C3         2.4177    0.2350   20.4432 C.3       1 RES1    0.0000
     13 H6         2.9919   -0.1191   21.1671 H         1 RES1    0.0000
     14 O3         1.7650   -0.8524   19.7362 O.3       1 RES1    0.0000
     15 C4         2.3711   -2.0720   19.7714 C.2       1 RES1    0.0000
     16 O4         3.3567   -2.2897   20.4099 O.2       1 RES1    0.0000
     17 C5         1.6366   -3.0327   18.9143 C.3       1 RES1    0.0000
     18 H7         0.8891   -2.5810   18.4900 H         1 RES1    0.0000
     19 H8         1.3062   -3.7649   19.4573 H         1 RES1    0.0000
     20 H9         2.2329   -3.3793   18.2321 H         1 RES1    0.0000
     21 C6         3.2552    1.0094   19.4302 C.3       1 RES1    0.0000
     22 H10        3.7190    1.7557   19.8858 H         1 RES1    0.0000
     23 O5         4.2212    0.1744   18.7760 O.3       1 RES1    0.0000
     24 C7         5.3474   -0.0823   19.5093 C.2       1 RES1    0.0000
     25 O6         5.5225    0.3791   20.5847 O.2       1 RES1    0.0000
     26 C8         6.2717   -0.9856   18.7750 C.3       1 RES1    0.0000
     27 H11        5.8938   -1.1990   17.9076 H         1 RES1    0.0000
     28 H12        6.3968   -1.8023   19.2846 H         1 RES1    0.0000
     29 H13        7.1272   -0.5448   18.6564 H         1 RES1    0.0000
     30 C9         2.3416    1.5575   18.3714 C.3       1 RES1    0.0000
     31 H14        1.9131    0.8210   17.8660 H         1 RES1    0.0000
     32 O7         3.1097    2.3958   17.4837 O.3       1 RES1    0.0000
     33 C10        3.2732    1.9756   16.2206 C.2       1 RES1    0.0000
     34 O8         2.7604    0.9618   15.7880 O.2       1 RES1    0.0000
     35 C11        4.0560    2.9547   15.4364 C.3       1 RES1    0.0000
     36 H15        4.3422    3.6782   16.0147 H         1 RES1    0.0000
     37 H16        3.5055    3.3110   14.7209 H         1 RES1    0.0000
     38 H17        4.8346    2.5171   15.0558 H         1 RES1    0.0000
     39 C12        1.2833    2.4478   19.0204 C.3       1 RES1    0.0000
     40 H18        1.7307    3.1962   19.4905 H         1 RES1    0.0000
     41 C13        0.3059    3.0045   18.0157 C.3       1 RES1    0.0000
     42 H19       -0.3885    3.5179   18.4796 H         1 RES1    0.0000
     43 H20        0.7721    3.6056   17.3980 H         1 RES1    0.0000
     44 O9        -0.2920    1.9225   17.2863 O.3       1 RES1    0.0000
     45 C14       -0.2805    1.9972   15.9772 C.2       1 RES1    0.0000
     46 O10        0.1006    2.9395   15.3615 O.2       1 RES1    0.0000
     47 C15       -0.8048    0.7387   15.3574 C.3       1 RES1    0.0000
     48 H21       -1.1524    0.1570   16.0521 H         1 RES1    0.0000
     49 H22       -0.0875    0.2881   14.8873 H         1 RES1    0.0000
     50 H23       -1.5148    0.9575   14.7333 H         1 RES1    0.0000
     51 O11        0.5325    1.6842   19.9629 O.3       1 RES1    0.0000
@<TRIPOS>BOND
     1    1    2 1
     2    4    1 2
     3    5    4 1
     4    6    5 1
     5   10    1 1
     6   11   10 1
     7   12   10 1
     8   13   12 1
     9   14   12 1
    10   15   14 1
    11   16   15 2
    12   17   15 1
    13   18   17 1
    14   19   17 1
    15   20   17 1
    16   21   12 1
    17   22   21 1
    18   23   21 1
    19   24   23 1
    20   25   24 2
    21   26   24 1
    22   27   26 1
    23   28   26 1
    24   29   26 1
    25   30   21 1
    26   31   30 1
    27   32   30 1
    28   33   32 1
    29   34   33 2
    30   35   33 1
    31   36   35 1
    32   37   35 1
    33   38   35 1
    34   39   30 1
    35   40   39 1
    36   41   39 1
    37   42   41 1
    38   43   41 1
    39   44   41 1
    40   45   44 1
    41   46   45 2
    42   47   45 1
    43   48   47 1
    44   49   47 1
    45   50   47 1
    46   51   10 1
    47   39   51 1
@<TRIPOS>SUBSTRUCTURE
     1 RES1 1
     2 SUP2 3

@<TRIPOS>CRYSIN
   8.1790   10.8310   20.8010  90.0000  90.0000  90.0000  19 1

