# MOL2 file generated by ConQuest
# Please check atom types

@<TRIPOS>MOLECULE
ULUJEQ
    92    96     2
SMALL
NO_CHARGES
****
Generated from CSD

@<TRIPOS>ATOM
      1 O1         7.3017    7.8858    1.3184 O.2       1 RES1    0.0000
      2 O2         4.9975   12.6675    1.5336 O.2       1 RES1    0.0000
      3 O3         4.7973    8.8360    2.7117 O.3       1 RES1    0.0000
      4 O4         6.2549    9.8413   -2.0754 O.2       1 RES1    0.0000
      5 O5        -0.5133    2.5891    5.2213 O.2       2 RES2    0.0000
      6 O6         2.3182   -1.8820    5.0193 O.2       2 RES2    0.0000
      7 O7         2.3126    1.9946    4.1232 O.3       2 RES2    0.0000
      8 O8         0.7146    0.7960    8.6414 O.2       2 RES2    0.0000
      9 N1         6.3803    9.6346    0.1640 N.am      1 RES1    0.0000
     10 N2         5.9204   10.8933    2.5988 N.am      1 RES1    0.0000
     11 N3         4.6850    8.1095    3.9396 N.2       1 RES1    0.0000
     12 N4         0.5978    0.9570    6.3980 N.am      2 RES2    0.0000
     13 N5         1.3080   -0.1394    3.9501 N.am      2 RES2    0.0000
     14 N6         2.5600    2.7275    2.9137 N.2       2 RES2    0.0000
     15 C1         6.1062    9.4739    2.6172 C.3       1 RES1    0.0000
     16 C2         6.6803    8.9333    1.3106 C.2       1 RES1    0.0000
     17 C3         5.3982   10.7307    0.2217 C.3       1 RES1    0.0000
     18 C4         5.4289   11.5101    1.4995 C.2       1 RES1    0.0000
     19 C5         6.8540    8.9621    3.8438 C.3       1 RES1    0.0000
     20 C6         5.8035    8.1765    4.5470 C.2       1 RES1    0.0000
     21 C7         5.9719    7.5365    5.8851 C.ar      1 RES1    0.0000
     22 C8         5.2693    8.0051    7.0015 C.ar      1 RES1    0.0000
     23 C9         5.5002    7.4015    8.2163 C.ar      1 RES1    0.0000
     24 C10        6.4096    6.3553    8.3803 C.ar      1 RES1    0.0000
     25 C11        7.0722    5.8919    7.2521 C.ar      1 RES1    0.0000
     26 C12        6.8841    6.4676    6.0097 C.ar      1 RES1    0.0000
     27 C13        4.2843    9.1453    6.9123 C.3       1 RES1    0.0000
     28 C14        6.6742    5.7304    9.7289 C.3       1 RES1    0.0000
     29 C15        7.5983    5.8764    4.7871 C.3       1 RES1    0.0000
     30 C16        6.8021    9.2957   -1.1531 C.2       1 RES1    0.0000
     31 C17        7.9237    8.3212   -1.3158 C.3       1 RES1    0.0000
     32 C18        7.5493   10.0090    4.7477 C.3       1 RES1    0.0000
     33 C19        1.0369    1.2768    3.9894 C.3       2 RES2    0.0000
     34 C20        0.2743    1.6594    5.2646 C.2       2 RES2    0.0000
     35 C21        1.6462   -0.0741    6.3574 C.3       2 RES2    0.0000
     36 C22        1.7884   -0.7818    5.0599 C.2       2 RES2    0.0000
     37 C23        0.4211    1.8193    2.7064 C.3       2 RES2    0.0000
     38 C24        1.5434    2.6215    2.1423 C.2       2 RES2    0.0000
     39 C25        1.5298    3.2810    0.8317 C.ar      2 RES2    0.0000
     40 C26        2.2799    2.7987   -0.2309 C.ar      2 RES2    0.0000
     41 C27        2.2141    3.4356   -1.4746 C.ar      2 RES2    0.0000
     42 C28        1.4293    4.5953   -1.6648 C.ar      2 RES2    0.0000
     43 C29        0.7356    5.1003   -0.5851 C.ar      2 RES2    0.0000
     44 C30        0.7773    4.4709    0.6651 C.ar      2 RES2    0.0000
     45 C31        3.1890    1.5823   -0.0695 C.3       2 RES2    0.0000
     46 C32        1.3797    5.2754   -3.0016 C.3       2 RES2    0.0000
     47 C33        0.0345    5.0841    1.8366 C.3       2 RES2    0.0000
     48 C34        0.1032    1.2594    7.7152 C.2       2 RES2    0.0000
     49 C35       -1.1050    2.1045    7.8503 C.3       2 RES2    0.0000
     50 C36       -0.1753    0.8009    1.7251 C.3       2 RES2    0.0000
     51 H1         6.1791   11.4124    3.3519 H         1 RES1    0.0000
     52 H2         1.5003   -0.6079    3.1157 H         2 RES2    0.0000
     53 H3         5.5900   11.3650   -0.5274 H         1 RES1    0.0000
     54 H4         4.4835   10.3453    0.1050 H         1 RES1    0.0000
     55 H5         7.6624    8.4424    3.5670 H         1 RES1    0.0000
     56 H6         5.0080    7.7316    9.0218 H         1 RES1    0.0000
     57 H7         7.7072    5.1247    7.3413 H         1 RES1    0.0000
     58 H8         3.8769    9.3184    7.8083 H         1 RES1    0.0000
     59 H9         4.7662    9.9640    6.6014 H         1 RES1    0.0000
     60 H10        3.5655    8.9123    6.2577 H         1 RES1    0.0000
     61 H11        7.3484    5.0023    9.6331 H         1 RES1    0.0000
     62 H12        7.0114    6.4236   10.3639 H         1 RES1    0.0000
     63 H13        5.8194    5.3467   10.0818 H         1 RES1    0.0000
     64 H14        8.2054    5.1353    5.0730 H         1 RES1    0.0000
     65 H15        8.1313    6.5866    4.3279 H         1 RES1    0.0000
     66 H16        6.9099    5.5174    4.1560 H         1 RES1    0.0000
     67 H17        8.1131    8.1787   -2.2879 H         1 RES1    0.0000
     68 H18        8.7437    8.6740   -0.8645 H         1 RES1    0.0000
     69 H19        7.6593    7.4526   -0.8973 H         1 RES1    0.0000
     70 H20        8.0260    9.5457    5.4955 H         1 RES1    0.0000
     71 H21        8.2065   10.5380    4.2111 H         1 RES1    0.0000
     72 H22        6.8566   10.6232    5.1255 H         1 RES1    0.0000
     73 H23        1.4382   -0.7562    7.0592 H         2 RES2    0.0000
     74 H24        2.5205    0.3618    6.5660 H         2 RES2    0.0000
     75 H25       -0.4089    2.3446    2.8940 H         2 RES2    0.0000
     76 H26        2.7373    3.0663   -2.2433 H         2 RES2    0.0000
     77 H27        0.1787    5.9222   -0.7110 H         2 RES2    0.0000
     78 H28        3.6455    1.3744   -0.9341 H         2 RES2    0.0000
     79 H29        3.8759    1.7793    0.6310 H         2 RES2    0.0000
     80 H30        2.6378    0.7975    0.2138 H         2 RES2    0.0000
     81 H31        0.7782    6.0714   -2.9386 H         2 RES2    0.0000
     82 H32        2.2966    5.5698   -3.2718 H         2 RES2    0.0000
     83 H33        1.0191    4.6394   -3.6851 H         2 RES2    0.0000
     84 H34       -0.4579    5.9036    1.5441 H         2 RES2    0.0000
     85 H35        0.6989    5.3274    2.5424 H         2 RES2    0.0000
     86 H36       -0.6150    4.4191    2.2066 H         2 RES2    0.0000
     87 H37       -1.3363    2.2134    8.8172 H         2 RES2    0.0000
     88 H38       -0.9234    3.0008    7.4475 H         2 RES2    0.0000
     89 H39       -1.8695    1.6730    7.3715 H         2 RES2    0.0000
     90 H40       -0.5725    1.2704    0.9367 H         2 RES2    0.0000
     91 H41       -0.8826    0.2639    2.1843 H         2 RES2    0.0000
     92 H42        0.5580    0.1943    1.4181 H         2 RES2    0.0000
@<TRIPOS>BOND
     1    1   16 2
     2    2   18 2
     3    3   11 1
     4    4   30 2
     5    5   34 2
     6    6   36 2
     7    7   14 1
     8    8   48 2
     9    9   16 1
    10   10   15 1
    11   11   20 2
    12   12   34 1
    13   13   33 1
    14   14   38 2
    15   15    3 1
    16   16   15 1
    17   17    9 1
    18   18   10 1
    19   19   15 1
    20   20   19 1
    21   21   20 1
    22   22   21 ar
    23   23   22 ar
    24   24   23 ar
    25   25   24 ar
    26   26   21 ar
    27   27   22 1
    28   28   24 1
    29   29   26 1
    30   30    9 1
    31   31   30 1
    32   32   19 1
    33   33    7 1
    34   34   33 1
    35   35   12 1
    36   36   13 1
    37   37   33 1
    38   38   37 1
    39   39   38 1
    40   40   39 ar
    41   41   40 ar
    42   42   41 ar
    43   43   42 ar
    44   44   39 ar
    45   45   40 1
    46   46   42 1
    47   47   44 1
    48   48   12 1
    49   49   48 1
    50   50   37 1
    51   51   10 1
    52   52   13 1
    53   53   17 1
    54   54   17 1
    55   55   19 1
    56   56   23 1
    57   57   25 1
    58   58   27 1
    59   59   27 1
    60   60   27 1
    61   61   28 1
    62   62   28 1
    63   63   28 1
    64   64   29 1
    65   65   29 1
    66   66   29 1
    67   67   31 1
    68   68   31 1
    69   69   31 1
    70   70   32 1
    71   71   32 1
    72   72   32 1
    73   73   35 1
    74   74   35 1
    75   75   37 1
    76   76   41 1
    77   77   43 1
    78   78   45 1
    79   79   45 1
    80   80   45 1
    81   81   46 1
    82   82   46 1
    83   83   46 1
    84   84   47 1
    85   85   47 1
    86   86   47 1
    87   87   49 1
    88   88   49 1
    89   89   49 1
    90   90   50 1
    91   91   50 1
    92   92   50 1
    93   17   18 1
    94   25   26 ar
    95   35   36 1
    96   43   44 ar
@<TRIPOS>SUBSTRUCTURE
     1 RES1 1
     2 RES2 5

@<TRIPOS>CRYSIN
   9.3920   14.3339   14.9874  61.9190  78.6084  79.1140   2 1

