# MOL2 file generated by ConQuest
# Please check atom types

@<TRIPOS>MOLECULE
UMAKIE
    23    23     1
SMALL
NO_CHARGES
****
Generated from CSD

@<TRIPOS>ATOM
      1 C1         1.8970    1.4793    7.7039 C.ar      1 RES1    0.0000
      2 C2         1.3872    0.6050    6.7390 C.ar      1 RES1    0.0000
      3 H1         1.6801    0.6783    5.8379 H         1 RES1    0.0000
      4 C3         0.4620   -0.3636    7.0791 C.ar      1 RES1    0.0000
      5 H2         0.0950   -0.9400    6.4185 H         1 RES1    0.0000
      6 C4         0.0834   -0.4731    8.4081 C.ar      1 RES1    0.0000
      7 C5         0.5615    0.3677    9.3860 C.ar      1 RES1    0.0000
      8 H3         0.2846    0.2714   10.2901 H         1 RES1    0.0000
      9 C6         1.4544    1.3576    9.0190 C.ar      1 RES1    0.0000
     10 H4         1.7725    1.9656    9.6758 H         1 RES1    0.0000
     11 C7         2.8389    2.5553    7.3828 C.2       1 RES1    0.0000
     12 H5         3.0107    3.2264    8.0323 H         1 RES1    0.0000
     13 C8         5.0229    3.8059    4.9451 C.2       1 RES1    0.0000
     14 N1         3.4355    2.6169    6.2547 N.2       1 RES1    0.0000
     15 N2         4.2326    3.7193    6.0585 N.am      1 RES1    0.0000
     16 H6         4.2348    4.3706    6.6506 H         1 RES1    0.0000
     17 N3         5.0318    2.7590    4.1355 N.am      1 RES1    0.0000
     18 H7         5.5105    2.7773    3.3972 H         1 RES1    0.0000
     19 H8         4.5592    2.0440    4.3356 H         1 RES1    0.0000
     20 N4        -0.8752   -1.5215    8.7939 N.pl3     1 RES1    0.0000
     21 O1         5.6613    4.8564    4.7392 O.2       1 RES1    0.0000
     22 O2        -1.5709   -2.0099    7.9108 O.2       1 RES1    0.0000
     23 O3        -0.9164   -1.8531    9.9730 O.2       1 RES1    0.0000
@<TRIPOS>BOND
     1    1    2 ar
     2    2    3 1
     3    4    2 ar
     4    5    4 1
     5    6    4 ar
     6    7    6 ar
     7    8    7 1
     8    9    1 ar
     9   10    9 1
    10   11    1 1
    11   12   11 1
    12   13   15 1
    13   14   11 2
    14   15   14 1
    15   16   15 1
    16   17   13 1
    17   18   17 1
    18   19   17 1
    19   20    6 1
    20   21   13 2
    21   22   20 2
    22   23   20 2
    23    7    9 ar
@<TRIPOS>SUBSTRUCTURE
     1 RES1 1

@<TRIPOS>CRYSIN
  13.4639    5.0922   13.2009  90.0000 100.9280  90.0000  14 1

