# MOL2 file generated by ConQuest
# Please check atom types

@<TRIPOS>MOLECULE
UMAQOO
    37    38     1
SMALL
USER_CHARGES
****
Generated from CSD

@<TRIPOS>ATOM
      1 O1         0.7160    0.8841    6.4257 O.2       1 RES1   -1.0000
      2 O2         3.3021    4.5929    6.9754 O.2       1 RES1    0.0000
      3 N1         1.2130    1.9720    5.9218 N.pl3     1 RES1    1.0000
      4 N2         2.4927    3.9181    6.2352 N.3       1 RES1    0.0000
      5 C1         2.0631    2.7100    6.6609 C.2       1 RES1    0.0000
      6 C2         0.8025    2.2928    4.5178 C.3       1 RES1    0.0000
      7 C3         1.6313    3.4785    4.0224 C.3       1 RES1    0.0000
      8 H1         1.1779    3.8684    3.2868 H         1 RES1    0.0000
      9 H2         2.5042    3.1421    3.6799 H         1 RES1    0.0000
     10 C4         1.9278    4.5912    5.0198 C.3       1 RES1    0.0000
     11 C5        -0.7070    2.5282    4.5104 C.3       1 RES1    0.0000
     12 H3        -1.1673    1.7280    4.7192 H         1 RES1    0.0000
     13 H4        -0.9961    2.7854    3.6074 H         1 RES1    0.0000
     14 H5        -0.9557    3.2339    5.1917 H         1 RES1    0.0000
     15 C6         1.1155    1.0605    3.6755 C.3       1 RES1    0.0000
     16 H6         0.6327    0.2670    3.9777 H         1 RES1    0.0000
     17 H7         2.1007    0.8843    3.7126 H         1 RES1    0.0000
     18 H8         0.8774    1.2581    2.7229 H         1 RES1    0.0000
     19 C7         0.7182    5.3916    5.4876 C.3       1 RES1    0.0000
     20 H9         0.2655    5.7908    4.7460 H         1 RES1    0.0000
     21 H10        1.0168    6.1283    6.0782 H         1 RES1    0.0000
     22 H11        0.0761    4.8338    6.0087 H         1 RES1    0.0000
     23 C8         2.9807    5.5227    4.4418 C.3       1 RES1    0.0000
     24 H12        3.7952    4.9962    4.1593 H         1 RES1    0.0000
     25 H13        3.2246    6.1838    5.0617 H         1 RES1    0.0000
     26 H14        2.5816    5.9403    3.6600 H         1 RES1    0.0000
     27 C9         2.4555    2.2362    8.0122 C.ar      1 RES1    0.0000
     28 C10        3.7553    1.8641    8.2936 C.ar      1 RES1    0.0000
     29 H15        4.4245    1.8840    7.5950 H         1 RES1    0.0000
     30 C11        4.0930    1.4516    9.5715 C.ar      1 RES1    0.0000
     31 H16        4.9991    1.1940    9.7203 H         1 RES1    0.0000
     32 C12        3.1371    1.4119   10.5615 C.ar      1 RES1    0.0000
     33 H17        3.3844    1.1150   11.4128 H         1 RES1    0.0000
     34 C13        1.8592    1.7979   10.2848 C.ar      1 RES1    0.0000
     35 H18        1.1780    1.7921   10.9651 H         1 RES1    0.0000
     36 C14        1.5090    2.2123    9.0184 C.ar      1 RES1    0.0000
     37 H19        0.6519    2.4735    8.8507 H         1 RES1    0.0000
@<TRIPOS>BOND
     1    1    3 1
     2    2    4 1
     3    3    5 2
     4    4    5 1
     5    5   27 1
     6    6    3 1
     7    7    6 1
     8    8    7 1
     9    9    7 1
    10   10    4 1
    11   11    6 1
    12   12   11 1
    13   13   11 1
    14   14   11 1
    15   15    6 1
    16   16   15 1
    17   17   15 1
    18   18   15 1
    19   19   10 1
    20   20   19 1
    21   21   19 1
    22   22   19 1
    23   23   10 1
    24   24   23 1
    25   25   23 1
    26   26   23 1
    27   27   28 ar
    28   28   29 1
    29   30   28 ar
    30   31   30 1
    31   32   30 ar
    32   33   32 1
    33   34   32 ar
    34   35   34 1
    35   36   27 ar
    36   37   36 1
    37    7   10 1
    38   34   36 ar
@<TRIPOS>SUBSTRUCTURE
     1 RES1 1

@<TRIPOS>CRYSIN
   6.2438   21.3603    9.9984  90.0000  96.8620  90.0000 231 1

