# MOL2 file generated by ConQuest
# Please check atom types

@<TRIPOS>MOLECULE
UMATOT
    38    31     2
SMALL
NO_CHARGES
****
Generated from CSD

@<TRIPOS>ATOM
      1 C1         2.8780    3.1842    7.6816 C.ar      1 RES1    0.0000
      2 C2         4.7464    2.7500    9.6913 C.ar      1 RES1    0.0000
      3 H1         5.3660    2.6125   10.3717 H         1 RES1    0.0000
      4 C3         1.8780    3.4141    6.6019 C.2       1 RES1    0.0000
      5 C4         0.7153    2.5551    6.5399 C.2       1 RES1    0.0000
      6 H2         0.6701    1.8175    7.1037 H         1 RES1    0.0000
      7 C5         1.6816    5.6318    3.8435 C.ar      1 RES1    0.0000
      8 C6         2.8058    6.4264    3.9767 C.ar      1 RES1    0.0000
      9 H3         3.3866    6.3155    4.6947 H         1 RES1    0.0000
     10 C7         3.0409    7.3789    3.0232 C.ar      1 RES1    0.0000
     11 H4         3.7886    7.9276    3.0818 H         1 RES1    0.0000
     12 C8         2.1458    7.5178    1.9674 C.ar      1 RES1    0.0000
     13 H5         2.2802    8.1634    1.3111 H         1 RES1    0.0000
     14 C9         1.0754    6.6903    1.9163 C.ar      1 RES1    0.0000
     15 H6         0.4814    6.7877    1.2075 H         1 RES1    0.0000
     16 C10        2.5359    2.6730    8.9014 C.ar      1 RES1    0.0000
     17 H7         1.6510    2.4451    9.0696 H         1 RES1    0.0000
     18 C11        3.4935    2.4876    9.8956 C.ar      1 RES1    0.0000
     19 H8         3.2270    2.1678   10.7276 H         1 RES1    0.0000
     20 C12        5.1801    3.2462    8.4343 C.ar      1 RES1    0.0000
     21 H9         6.0791    3.4176    8.2781 H         1 RES1    0.0000
     22 C13        4.2381    3.4701    7.4476 C.ar      1 RES1    0.0000
     23 H10        4.5038    3.8114    6.6231 H         1 RES1    0.0000
     24 N1        -0.2468    2.7779    5.7358 N.2       1 RES1    0.0000
     25 N2         2.1788    4.3895    5.7836 N.2       1 RES1    0.0000
     26 N3         1.3350    4.6674    4.7643 N.pl3     1 RES1    0.0000
     27 H11        0.5891    4.2461    4.6917 H         1 RES1    0.0000
     28 N4         0.8185    5.7388    2.8277 N.ar      1 RES1    0.0000
     29 O1        -1.2352    1.8085    5.8247 O.3       1 RES1    0.0000
     30 H12       -1.9152    2.0768    5.4532 H         1 RES1    0.0000
     31 C14        2.9304    1.9749    8.3352 Du        2 SUP2    0.0000
     32 H13        2.3386    1.3003    8.0934 Du        2 SUP2    0.0000
     33 C15        3.8505    1.7390    9.3489 Du        2 SUP2    0.0000
     34 H14        3.8687    0.9225    9.7920 Du        2 SUP2    0.0000
     35 C16        4.6310    3.9773    9.1146 Du        2 SUP2    0.0000
     36 H15        5.1665    4.6784    9.4090 Du        2 SUP2    0.0000
     37 C17        3.7141    4.1912    8.0859 Du        2 SUP2    0.0000
     38 H16        3.6698    5.0232    7.6729 Du        2 SUP2    0.0000
@<TRIPOS>BOND
     1    1    4 1
     2    2    3 1
     3    4    5 1
     4    5    6 1
     5    7    8 ar
     6    8    9 1
     7   10    8 ar
     8   11   10 1
     9   12   10 ar
    10   13   12 1
    11   14   12 ar
    12   15   14 1
    13   16    1 ar
    14   17   16 1
    15   18    2 ar
    16   19   18 1
    17   20    2 ar
    18   21   20 1
    19   22    1 ar
    20   23   22 1
    21   24    5 2
    22   25    4 2
    23   26    7 1
    24   27   26 1
    25   28    7 ar
    26   29   24 1
    27   30   29 1
    28   14   28 ar
    29   16   18 ar
    30   20   22 ar
    31   25   26 1
@<TRIPOS>SUBSTRUCTURE
     1 RES1 1
     2 SUP2 31

@<TRIPOS>CRYSIN
  16.3460    4.9972   15.7880  90.0000 107.9640  90.0000  14 1

