# MOL2 file generated by ConQuest
# Please check atom types

@<TRIPOS>MOLECULE
UMIDAX
    20    21     1
SMALL
NO_CHARGES
****
Generated from CSD

@<TRIPOS>ATOM
      1 O1        -0.3993    0.2876    3.2915 O.2       1 RES1    0.0000
      2 O2         0.1170    2.3076    2.6874 O.2       1 RES1    0.0000
      3 N1         0.0880    1.7538    4.8796 N.3       1 RES1    0.0000
      4 N2         0.7141    2.9587    5.0843 N.pl3     1 RES1    0.0000
      5 N3         2.0674    4.6441    5.1927 N.2       1 RES1    0.0000
      6 N4         0.8199    4.9858    5.6527 N.2       1 RES1    0.0000
      7 N5         0.0034    3.9966    5.5855 N.2       1 RES1    0.0000
      8 N6        -0.0503    1.4319    3.4896 N.pl3     1 RES1    0.0000
      9 C1         1.9742    3.3984    4.8394 C.2       1 RES1    0.0000
     10 H1         0.4567    1.0751    5.2821 H         1 RES1    0.0000
     11 O1B        5.4037    5.7187    5.8156 O.2       1 RES1    0.0000
     12 O2B        4.8874    3.6987    6.4196 O.2       1 RES1    0.0000
     13 N1B        4.9164    4.2525    4.2275 N.3       1 RES1    0.0000
     14 N2B        4.2903    3.0476    4.0228 N.pl3     1 RES1    0.0000
     15 N3B        2.9371    1.3622    3.9143 N.2       1 RES1    0.0000
     16 N4B        4.1845    1.0205    3.4544 N.2       1 RES1    0.0000
     17 N5B        5.0011    2.0097    3.5215 N.2       1 RES1    0.0000
     18 N6B        5.0548    4.5744    5.6174 N.pl3     1 RES1    0.0000
     19 C1B        3.0302    2.6079    4.2677 C.2       1 RES1    0.0000
     20 H1B        4.5477    4.9312    3.8250 H         1 RES1    0.0000
@<TRIPOS>BOND
     1    1    8 2
     2    2    8 2
     3    3    4 1
     4    4    7 1
     5    5    6 1
     6    6    7 2
     7    8    3 1
     8    9    4 1
     9   10    3 1
    10   11   18 2
    11   12   18 2
    12   13   14 1
    13   14   17 1
    14   15   16 1
    15   16   17 2
    16   18   13 1
    17   19    9 1
    18   20   13 1
    19    5    9 2
    20   14   19 1
    21   15   19 2
@<TRIPOS>SUBSTRUCTURE
     1 RES1 1

@<TRIPOS>CRYSIN
   7.9670    6.0063    9.5768  90.0000 108.0200  90.0000 231 1

