# MOL2 file generated by ConQuest
# Please check atom types

@<TRIPOS>MOLECULE
UMOLOZ
    51    45     2
SMALL
NO_CHARGES
****
Generated from CSD

@<TRIPOS>ATOM
      1 O1        10.7876    6.6723    9.2108 O.3       1 RES1    0.0000
      2 O2        11.4184    5.0663   10.6312 O.2       1 RES1    0.0000
      3 N1         9.6481    7.0033    8.3839 N.2       1 RES1    0.0000
      4 N2         9.0454   -0.5407   13.1801 N.3       1 RES1    0.0000
      5 C1         8.9312    0.5548   12.4054 C.ar      1 RES1    0.0000
      6 C2        10.0461    1.3656   12.0930 C.ar      1 RES1    0.0000
      7 H1        10.8986    1.1374   12.4453 H         1 RES1    0.0000
      8 C3         9.9259    2.4745   11.2916 C.ar      1 RES1    0.0000
      9 H2        10.6999    2.9879   11.0917 H         1 RES1    0.0000
     10 C4         8.6826    2.8677   10.7603 C.ar      1 RES1    0.0000
     11 C5         7.5757    2.0481   11.0721 C.ar      1 RES1    0.0000
     12 H3         6.7243    2.2803   10.7219 H         1 RES1    0.0000
     13 C6         7.6789    0.9378   11.8556 C.ar      1 RES1    0.0000
     14 H4         6.9061    0.4149   12.0365 H         1 RES1    0.0000
     15 C7         8.4544    3.9902    9.9166 C.2       1 RES1    0.0000
     16 H5         7.5683    4.0235    9.5756 H         1 RES1    0.0000
     17 C8        10.5650    5.4862    9.8769 C.2       1 RES1    0.0000
     18 C9         9.2331    5.0346    9.4885 C.2       1 RES1    0.0000
     19 C10        8.7760    6.0593    8.5736 C.2       1 RES1    0.0000
     20 C11        7.4819    6.0947    7.8586 C.ar      1 RES1    0.0000
     21 C12        6.6346    7.1846    7.9633 C.ar      1 RES1    0.0000
     22 H6         6.8953    7.9343    8.4860 H         1 RES1    0.0000
     23 C13        5.4068    7.1927    7.3113 C.ar      1 RES1    0.0000
     24 H7         4.8232    7.9370    7.4062 H         1 RES1    0.0000
     25 C14        5.0368    6.1279    6.5310 C.ar      1 RES1    0.0000
     26 H8         4.2008    6.1388    6.0799 H         1 RES1    0.0000
     27 C15        5.8794    5.0373    6.3997 C.ar      1 RES1    0.0000
     28 H9         5.6275    4.3039    5.8510 H         1 RES1    0.0000
     29 C16        7.0958    5.0197    7.0748 C.ar      1 RES1    0.0000
     30 H10        7.6659    4.2639    6.9973 H         1 RES1    0.0000
     31 C17       10.3135   -1.0254   13.7423 C.3       1 RES1    0.0000
     32 H11       10.8492   -0.2866   14.1296 H         1 RES1    0.0000
     33 H12       10.8541   -1.5096   13.0713 H         1 RES1    0.0000
     34 C18        9.7620   -1.9679   14.8313 C.3       1 RES1    0.0000
     35 H13       10.4230   -2.6783   15.0295 H         1 RES1    0.0000
     36 H14        9.5911   -1.4607   15.6652 H         1 RES1    0.0000
     37 C19        8.4713   -2.5852   14.3253 C.3       1 RES1    0.0000
     38 H15        7.8549   -2.8005   15.0706 H         1 RES1    0.0000
     39 H16        8.6411   -3.4021   13.7932 H         1 RES1    0.0000
     40 C20        7.9362   -1.4559   13.4637 C.3       1 RES1    0.0000
     41 H17        7.5683   -1.8179   12.6194 H         1 RES1    0.0000
     42 H18        7.2132   -0.9772   13.9399 H         1 RES1    0.0000
     43 C21       10.2954   -0.9643   13.8303 Du        2 SUP2    0.0000
     44 H19       10.4315   -0.4557   14.6695 Du        2 SUP2    0.0000
     45 H20       11.0660   -0.7932   13.2337 Du        2 SUP2    0.0000
     46 C22       10.1762   -2.4413   14.1257 Du        2 SUP2    0.0000
     47 H21       10.6759   -2.7047   14.9375 Du        2 SUP2    0.0000
     48 H22       10.4591   -3.0015   13.3589 Du        2 SUP2    0.0000
     49 C23        8.6544   -2.4650   14.3389 Du        2 SUP2    0.0000
     50 H23        8.3136   -3.3750   14.1355 Du        2 SUP2    0.0000
     51 H24        8.4557   -2.2749   15.2897 Du        2 SUP2    0.0000
@<TRIPOS>BOND
     1    1    3 1
     2    2   17 2
     3    3   19 2
     4    4    5 1
     5    5    6 ar
     6    6    7 1
     7    8    6 ar
     8    9    8 1
     9   10    8 ar
    10   11   10 ar
    11   12   11 1
    12   13    5 ar
    13   14   13 1
    14   15   10 1
    15   16   15 1
    16   17    1 1
    17   18   15 2
    18   19   18 1
    19   20   19 1
    20   21   20 ar
    21   22   21 1
    22   23   21 ar
    23   24   23 1
    24   25   23 ar
    25   26   25 1
    26   27   25 ar
    27   28   27 1
    28   29   20 ar
    29   30   29 1
    30   31    4 1
    31   32   31 1
    32   33   31 1
    33   34   31 1
    34   35   34 1
    35   36   34 1
    36   37   34 1
    37   38   37 1
    38   39   37 1
    39   40    4 1
    40   41   40 1
    41   42   40 1
    42   11   13 ar
    43   17   18 1
    44   27   29 ar
    45   37   40 1
@<TRIPOS>SUBSTRUCTURE
     1 RES1 1
     2 SUP2 43

@<TRIPOS>CRYSIN
  12.0400    6.7907   19.5620  90.0000  90.0000  90.0000  33 1

