# MOL2 file generated by ConQuest
# Please check atom types

@<TRIPOS>MOLECULE
UMOLUF
    51    43     2
SMALL
NO_CHARGES
****
Generated from CSD

@<TRIPOS>ATOM
      1 O1         7.5291   -0.2335    5.9123 O.3       1 RES1    0.0000
      2 O2         5.8779    1.1681    6.4675 O.2       1 RES1    0.0000
      3 N1         8.5754   -0.3282    4.9171 N.2       1 RES1    0.0000
      4 C1         3.6868    5.4177    3.8673 C.ar      1 RES1    0.0000
      5 C2         3.8494    4.4774    4.8810 C.ar      1 RES1    0.0000
      6 H1         3.2334    4.4768    5.6047 H         1 RES1    0.0000
      7 C3         4.8612    3.5508    4.8789 C.ar      1 RES1    0.0000
      8 H2         4.9244    2.9228    5.5885 H         1 RES1    0.0000
      9 C4         5.7984    3.5207    3.8488 C.ar      1 RES1    0.0000
     10 C5         5.6500    4.4661    2.8360 C.ar      1 RES1    0.0000
     11 H3         6.2714    4.4740    2.1169 H         1 RES1    0.0000
     12 C6         4.6259    5.3905    2.8483 C.ar      1 RES1    0.0000
     13 H4         4.5621    6.0230    2.1424 H         1 RES1    0.0000
     14 C7         6.9114    2.6077    3.7543 C.2       1 RES1    0.0000
     15 H5         7.4685    2.7749    3.0042 H         1 RES1    0.0000
     16 C8         6.7796    0.9079    5.7054 C.2       1 RES1    0.0000
     17 C9         7.3317    1.5586    4.5113 C.2       1 RES1    0.0000
     18 C10        8.4471    0.7062    4.1528 C.2       1 RES1    0.0000
     19 C11        9.4104    0.9170    3.0436 C.ar      1 RES1    0.0000
     20 C12        9.5650   -0.0470    2.0476 C.ar      1 RES1    0.0000
     21 H6         9.0404   -0.8388    2.0683 H         1 RES1    0.0000
     22 C13       10.4809    0.1491    1.0287 C.ar      1 RES1    0.0000
     23 H7        10.5768   -0.5033    0.3447 H         1 RES1    0.0000
     24 C14       11.2575    1.2933    1.0041 C.ar      1 RES1    0.0000
     25 H8        11.8945    1.4169    0.3100 H         1 RES1    0.0000
     26 C15       11.1129    2.2591    1.9852 C.ar      1 RES1    0.0000
     27 H9        11.6500    3.0418    1.9666 H         1 RES1    0.0000
     28 C16       10.1766    2.0783    2.9971 C.ar      1 RES1    0.0000
     29 H10       10.0603    2.7494    3.6589 H         1 RES1    0.0000
     30 C17        2.5582    6.3880    3.8845 C.ar      1 RES1    0.0000
     31 C18        2.6168    7.5583    3.1060 C.ar      1 RES1    0.0000
     32 H11        3.3943    7.7425    2.5912 H         1 RES1    0.0000
     33 C19        1.5497    8.4493    3.0829 C.ar      1 RES1    0.0000
     34 H12        1.5790    9.2042    2.5068 H         1 RES1    0.0000
     35 C20        0.4527    8.2486    3.8845 C.ar      1 RES1    0.0000
     36 H13       -0.2656    8.8704    3.8822 H         1 RES1    0.0000
     37 C21        0.4079    7.1287    4.6943 C.ar      1 RES1    0.0000
     38 H14       -0.3484    6.9785    5.2484 H         1 RES1    0.0000
     39 C22        1.4618    6.2202    4.7035 C.ar      1 RES1    0.0000
     40 H15        1.4253    5.4704    5.2854 H         1 RES1    0.0000
     41 C23        2.5913    6.4140    3.8867 Du        2 SUP2    0.0000
     42 C24        2.2475    7.1497    2.7394 Du        2 SUP2    0.0000
     43 H16        2.7080    6.9950    1.9226 Du        2 SUP2    0.0000
     44 C25        1.2349    8.1030    2.7937 Du        2 SUP2    0.0000
     45 H17        1.0463    8.6323    2.0279 Du        2 SUP2    0.0000
     46 C26        0.5076    8.2860    3.9447 Du        2 SUP2    0.0000
     47 H18       -0.1990    8.9197    3.9690 Du        2 SUP2    0.0000
     48 C27        0.8162    7.5373    5.0633 Du        2 SUP2    0.0000
     49 H19        0.3309    7.6734    5.8696 Du        2 SUP2    0.0000
     50 C28        1.8309    6.5863    5.0228 Du        2 SUP2    0.0000
     51 H20        2.0023    6.0496    5.7874 Du        2 SUP2    0.0000
@<TRIPOS>BOND
     1    1    3 1
     2    2   16 2
     3    3   18 2
     4    4    5 ar
     5    5    6 1
     6    7    5 ar
     7    8    7 1
     8    9    7 ar
     9   10    9 ar
    10   11   10 1
    11   12    4 ar
    12   13   12 1
    13   14    9 1
    14   15   14 1
    15   16    1 1
    16   17   14 2
    17   18   17 1
    18   19   18 1
    19   20   19 ar
    20   21   20 1
    21   22   20 ar
    22   23   22 1
    23   24   22 ar
    24   25   24 1
    25   26   24 ar
    26   27   26 1
    27   28   19 ar
    28   29   28 1
    29   30    4 1
    30   31   30 ar
    31   32   31 1
    32   33   31 ar
    33   34   33 1
    34   35   33 ar
    35   36   35 1
    36   37   35 ar
    37   38   37 1
    38   39   30 ar
    39   40   39 1
    40   10   12 ar
    41   16   17 1
    42   26   28 ar
    43   37   39 ar
@<TRIPOS>SUBSTRUCTURE
     1 RES1 1
     2 SUP2 41

@<TRIPOS>CRYSIN
  24.6950    5.6676   11.6440  90.0000  96.5520  90.0000  14 1

