# MOL2 file generated by ConQuest
# Please check atom types

@<TRIPOS>MOLECULE
UMOMEQ
    35    37     1
SMALL
NO_CHARGES
****
Generated from CSD

@<TRIPOS>ATOM
      1 C1         1.5398    5.0016    2.9652 C.3       1 RES1    0.0000
      2 H1         0.8042    4.6844    3.5117 H         1 RES1    0.0000
      3 H2         2.2128    4.3056    2.9049 H         1 RES1    0.0000
      4 C2         1.0608    5.4132    1.5951 C.3       1 RES1    0.0000
      5 H3         1.7546    5.2760    0.9325 H         1 RES1    0.0000
      6 H4         0.2770    4.9032    1.3375 H         1 RES1    0.0000
      7 C3         0.7323    6.8499    1.7196 C.3       1 RES1    0.0000
      8 H5        -0.1684    6.9684    2.0584 H         1 RES1    0.0000
      9 H6         0.8055    7.2949    0.8614 H         1 RES1    0.0000
     10 C4         1.7562    7.4034    2.7025 C.3       1 RES1    0.0000
     11 H7         2.5331    7.7534    2.2386 H         1 RES1    0.0000
     12 H8         1.3708    8.1054    3.2504 H         1 RES1    0.0000
     13 C5         2.8331    6.2985    4.6544 C.ar      1 RES1    0.0000
     14 C6         3.0573    5.1589    5.4548 C.ar      1 RES1    0.0000
     15 H9         2.6791    4.3491    5.1980 H         1 RES1    0.0000
     16 C7         3.8034    5.2030    6.5855 C.ar      1 RES1    0.0000
     17 H10        3.9242    4.4254    7.0812 H         1 RES1    0.0000
     18 C8         4.4071    6.4083    7.0301 C.ar      1 RES1    0.0000
     19 C9         4.1516    7.5499    6.2520 C.ar      1 RES1    0.0000
     20 H11        4.5015    8.3650    6.5323 H         1 RES1    0.0000
     21 C10        3.4106    7.5191    5.1028 C.ar      1 RES1    0.0000
     22 H12        3.2842    8.2994    4.6128 H         1 RES1    0.0000
     23 C11        5.2114    6.5454    8.1912 C.2       1 RES1    0.0000
     24 H13        5.4646    7.4261    8.3509 H         1 RES1    0.0000
     25 C12        5.6998    5.6755    9.1314 C.2       1 RES1    0.0000
     26 C13        5.5586    4.2340    9.2943 C.2       1 RES1    0.0000
     27 C14        6.4858    6.0596   10.2696 C.2       1 RES1    0.0000
     28 C15        7.0198    7.4234   10.5750 C.3       1 RES1    0.0000
     29 H14        7.4625    7.4107   11.4261 H         1 RES1    0.0000
     30 H15        6.2950    8.0525   10.6011 H         1 RES1    0.0000
     31 H16        7.6434    7.6831    9.8935 H         1 RES1    0.0000
     32 N1         2.1077    6.2383    3.5113 N.pl3     1 RES1    0.0000
     33 N2         6.7634    5.0926   11.0748 N.2       1 RES1    0.0000
     34 O1         5.0633    3.3447    8.6302 O.2       1 RES1    0.0000
     35 O2         6.1620    3.9101   10.4857 O.3       1 RES1    0.0000
@<TRIPOS>BOND
     1    1    2 1
     2    3    1 1
     3    4    1 1
     4    5    4 1
     5    6    4 1
     6    7    4 1
     7    8    7 1
     8    9    7 1
     9   10    7 1
    10   11   10 1
    11   12   10 1
    12   13   14 ar
    13   14   15 1
    14   16   14 ar
    15   17   16 1
    16   18   16 ar
    17   19   18 ar
    18   20   19 1
    19   21   13 ar
    20   22   21 1
    21   23   18 1
    22   24   23 1
    23   25   23 2
    24   26   25 1
    25   27   25 1
    26   28   27 1
    27   29   28 1
    28   30   28 1
    29   31   28 1
    30   32    1 1
    31   33   27 2
    32   34   26 2
    33   35   26 1
    34   10   32 1
    35   13   32 1
    36   19   21 ar
    37   33   35 1
@<TRIPOS>SUBSTRUCTURE
     1 RES1 1

@<TRIPOS>CRYSIN
  11.9710    6.6920   17.4660  90.0000 108.8100  90.0000  14 1

