# MOL2 file generated by ConQuest
# Please check atom types

@<TRIPOS>MOLECULE
UMOMAM
    52    56     1
SMALL
NO_CHARGES
****
Generated from CSD

@<TRIPOS>ATOM
      1 O1         8.6499    2.8685    5.0398 O.2       1 RES1    0.0000
      2 O2        10.1153    2.0974    6.5371 O.3       1 RES1    0.0000
      3 N1         2.9562    0.9923    2.1888 N.pl3     1 RES1    0.0000
      4 N2        10.2170    1.0152    7.4861 N.2       1 RES1    0.0000
      5 C1         1.0903    0.6731    3.7346 C.ar      1 RES1    0.0000
      6 H1         1.5500    1.1599    4.3803 H         1 RES1    0.0000
      7 C2        -0.1513    0.1547    4.0324 C.ar      1 RES1    0.0000
      8 H2        -0.5024    0.2632    4.8853 H         1 RES1    0.0000
      9 C3        -0.8593   -0.5060    3.1009 C.ar      1 RES1    0.0000
     10 H3        -1.7048   -0.8391    3.2976 H         1 RES1    0.0000
     11 C4        -0.3211   -0.6810    1.8693 C.ar      1 RES1    0.0000
     12 H4        -0.8143   -1.1249    1.2180 H         1 RES1    0.0000
     13 C5         0.9448   -0.2162    1.5577 C.ar      1 RES1    0.0000
     14 H5         1.3063   -0.3761    0.7163 H         1 RES1    0.0000
     15 C6         1.6604    0.4797    2.4922 C.ar      1 RES1    0.0000
     16 C7         3.1693    1.6591    0.9530 C.ar      1 RES1    0.0000
     17 C8         2.3574    2.6914    0.5621 C.ar      1 RES1    0.0000
     18 H6         1.6724    2.9861    1.1190 H         1 RES1    0.0000
     19 C9         2.5653    3.2967   -0.6773 C.ar      1 RES1    0.0000
     20 H7         2.0247    4.0049   -0.9441 H         1 RES1    0.0000
     21 C10        3.5609    2.8540   -1.5026 C.ar      1 RES1    0.0000
     22 H8         3.6925    3.2561   -2.3304 H         1 RES1    0.0000
     23 C11        4.3486    1.8330   -1.1147 C.ar      1 RES1    0.0000
     24 H9         5.0208    1.5281   -1.6802 H         1 RES1    0.0000
     25 C12        4.1684    1.2378    0.1169 C.ar      1 RES1    0.0000
     26 H10        4.7309    0.5455    0.3796 H         1 RES1    0.0000
     27 C13        4.0253    0.7827    3.0718 C.ar      1 RES1    0.0000
     28 C14        5.0554    1.7099    3.1741 C.ar      1 RES1    0.0000
     29 H11        5.0497    2.4610    2.6242 H         1 RES1    0.0000
     30 C15        6.0818    1.5388    4.0684 C.ar      1 RES1    0.0000
     31 H12        6.7521    2.1809    4.1228 H         1 RES1    0.0000
     32 C16        6.1395    0.4193    4.8989 C.ar      1 RES1    0.0000
     33 C17        5.1163   -0.5240    4.7573 C.ar      1 RES1    0.0000
     34 H13        5.1409   -1.2943    5.2781 H         1 RES1    0.0000
     35 C18        4.0811   -0.3524    3.8789 C.ar      1 RES1    0.0000
     36 H14        3.4119   -0.9961    3.8191 H         1 RES1    0.0000
     37 C19        7.1327    0.1604    5.9050 C.2       1 RES1    0.0000
     38 H15        6.9797   -0.6336    6.3641 H         1 RES1    0.0000
     39 C20        8.2458    0.8138    6.3367 C.2       1 RES1    0.0000
     40 C21        8.9173    2.0205    5.8538 C.2       1 RES1    0.0000
     41 C22        9.1404    0.3133    7.3613 C.2       1 RES1    0.0000
     42 C23        8.9193   -0.8375    8.2598 C.ar      1 RES1    0.0000
     43 C24        9.8823   -1.8270    8.4140 C.ar      1 RES1    0.0000
     44 H16       10.6768   -1.7777    7.9321 H         1 RES1    0.0000
     45 C25        9.6662   -2.8811    9.2745 C.ar      1 RES1    0.0000
     46 H17       10.3165   -3.5395    9.3680 H         1 RES1    0.0000
     47 C26        8.5043   -2.9703    9.9938 C.ar      1 RES1    0.0000
     48 H18        8.3599   -3.6897   10.5662 H         1 RES1    0.0000
     49 C27        7.5525   -1.9900    9.8628 C.ar      1 RES1    0.0000
     50 H19        6.7695   -2.0386   10.3615 H         1 RES1    0.0000
     51 C28        7.7468   -0.9338    8.9983 C.ar      1 RES1    0.0000
     52 H20        7.0894   -0.2823    8.9091 H         1 RES1    0.0000
@<TRIPOS>BOND
     1    1   40 2
     2    2    4 1
     3    3   15 1
     4    4   41 2
     5    5    6 1
     6    7    5 ar
     7    8    7 1
     8    9    7 ar
     9   10    9 1
    10   11    9 ar
    11   12   11 1
    12   13   11 ar
    13   14   13 1
    14   15    5 ar
    15   16    3 1
    16   17   16 ar
    17   18   17 1
    18   19   17 ar
    19   20   19 1
    20   21   19 ar
    21   22   21 1
    22   23   21 ar
    23   24   23 1
    24   25   16 ar
    25   26   25 1
    26   27    3 1
    27   28   27 ar
    28   29   28 1
    29   30   28 ar
    30   31   30 1
    31   32   30 ar
    32   33   32 ar
    33   34   33 1
    34   35   27 ar
    35   36   35 1
    36   37   32 1
    37   38   37 1
    38   39   37 2
    39   40    2 1
    40   41   39 1
    41   42   41 1
    42   43   42 ar
    43   44   43 1
    44   45   43 ar
    45   46   45 1
    46   47   45 ar
    47   48   47 1
    48   49   47 ar
    49   50   49 1
    50   51   42 ar
    51   52   51 1
    52   13   15 ar
    53   23   25 ar
    54   33   35 ar
    55   39   40 1
    56   49   51 ar
@<TRIPOS>SUBSTRUCTURE
     1 RES1 1

@<TRIPOS>CRYSIN
  11.5500   11.2940   33.0090  90.0000  90.0000  90.0000  61 1

