# MOL2 file generated by ConQuest
# Please check atom types

@<TRIPOS>MOLECULE
UMOMIU
   102   111     3
SMALL
NO_CHARGES
****
Generated from CSD

@<TRIPOS>ATOM
      1 O1        -3.4398    1.2468    9.4846 O.3       1 RES1    0.0000
      2 O2        -2.3545    0.6878    7.6362 O.2       1 RES1    0.0000
      3 N1        -3.3003    1.0789   10.9048 N.2       1 RES1    0.0000
      4 C1         4.4314   -2.7970    5.5390 C.ar      1 RES1    0.0000
      5 H1         4.8583   -3.1771    6.2727 H         1 RES1    0.0000
      6 C2         4.9586   -2.9075    4.2558 C.ar      1 RES1    0.0000
      7 H2         5.7501   -3.3750    4.1172 H         1 RES1    0.0000
      8 C3         4.3160   -2.3272    3.1962 C.ar      1 RES1    0.0000
      9 H3         4.6919   -2.3977    2.3475 H         1 RES1    0.0000
     10 C4         3.1531   -1.6559    3.3426 C.ar      1 RES1    0.0000
     11 H4         2.7236   -1.2810    2.6057 H         1 RES1    0.0000
     12 C5         2.6200   -1.5371    4.5959 C.ar      1 RES1    0.0000
     13 C6         3.2389   -2.0967    5.6791 C.ar      1 RES1    0.0000
     14 C7         2.4178   -1.7827    6.8788 C.ar      1 RES1    0.0000
     15 C8         1.3331   -1.0556    6.4679 C.ar      1 RES1    0.0000
     16 C9         1.3296   -0.8450    5.0068 C.3       1 RES1    0.0000
     17 H5         1.3464    0.0996    4.7832 H         1 RES1    0.0000
     18 H6         0.5572   -1.2588    4.5896 H         1 RES1    0.0000
     19 C10        0.3579   -0.6052    7.4031 C.ar      1 RES1    0.0000
     20 H7        -0.3827   -0.1154    7.1276 H         1 RES1    0.0000
     21 C11        0.5502   -0.9215    8.7383 C.ar      1 RES1    0.0000
     22 C12        1.6829   -1.6743    9.1067 C.ar      1 RES1    0.0000
     23 H8         1.8108   -1.8798   10.0042 H         1 RES1    0.0000
     24 C13        2.6016   -2.1143    8.1888 C.ar      1 RES1    0.0000
     25 H9         3.3326   -2.6275    8.4533 H         1 RES1    0.0000
     26 C14       -0.3389   -0.5249    9.8105 C.2       1 RES1    0.0000
     27 H10       -0.0293   -0.7848   10.6481 H         1 RES1    0.0000
     28 C15       -1.5118    0.1331    9.8719 C.2       1 RES1    0.0000
     29 C16       -2.3869    0.6685    8.8454 C.2       1 RES1    0.0000
     30 C17       -2.2076    0.4369   11.0921 C.2       1 RES1    0.0000
     31 C18       -1.7950    0.1009   12.4619 C.3       1 RES1    0.0000
     32 H11       -2.4175    0.4805   13.0854 H         1 RES1    0.0000
     33 H12       -0.9184    0.4580   12.6272 H         1 RES1    0.0000
     34 H13       -1.7770   -0.8532   12.5658 H         1 RES1    0.0000
     35 O3         5.4528    1.1603    2.0563 O.3       2 RES2    0.0000
     36 O4         3.6320    1.9734    3.0167 O.2       2 RES2    0.0000
     37 N2         6.6775    0.5172    2.4577 N.2       2 RES2    0.0000
     38 C19       -0.0234    3.4301    9.2075 C.ar      2 RES2    0.0000
     39 H14       -0.3995    3.7329    8.4124 H         2 RES2    0.0000
     40 C20       -0.6764    3.6359   10.4576 C.ar      2 RES2    0.0000
     41 H15       -1.4923    4.0777   10.5080 H         2 RES2    0.0000
     42 C21       -0.0501    3.1526   11.5975 C.ar      2 RES2    0.0000
     43 H16       -0.4486    3.2852   12.4288 H         2 RES2    0.0000
     44 C22        1.1262    2.4937   11.5235 C.ar      2 RES2    0.0000
     45 H17        1.5192    2.1663   12.2997 H         2 RES2    0.0000
     46 C23        1.7199    2.3105   10.3679 C.ar      2 RES2    0.0000
     47 C24        1.1917    2.7644    9.2201 C.ar      2 RES2    0.0000
     48 C25        2.0878    2.4049    8.0550 C.ar      2 RES2    0.0000
     49 C26        3.1468    1.7089    8.6328 C.ar      2 RES2    0.0000
     50 C27        3.0707    1.5595   10.0640 C.3       2 RES2    0.0000
     51 H18        3.8224    1.9820   10.5080 H         2 RES2    0.0000
     52 H19        3.0265    0.6255   10.3238 H         2 RES2    0.0000
     53 C28        4.2123    1.2241    7.8015 C.ar      2 RES2    0.0000
     54 H20        4.9349    0.7621    8.1589 H         2 RES2    0.0000
     55 C29        4.1172    1.4756    6.4537 C.ar      2 RES2    0.0000
     56 C30        3.0117    2.1990    5.9436 C.ar      2 RES2    0.0000
     57 H21        2.9663    2.3609    5.0288 H         2 RES2    0.0000
     58 C31        2.0062    2.6716    6.7482 C.ar      2 RES2    0.0000
     59 H22        1.2963    3.1598    6.3971 H         2 RES2    0.0000
     60 C32        5.2117    0.9870    5.6303 C.2       2 RES2    0.0000
     61 H23        5.8975    0.6028    6.1278 H         2 RES2    0.0000
     62 C33        5.4496    0.9675    4.3125 C.2       2 RES2    0.0000
     63 C34        6.6535    0.4166    3.7331 C.2       2 RES2    0.0000
     64 C35        7.7787   -0.2119    4.4258 C.3       2 RES2    0.0000
     65 H24        8.4562   -0.4470    3.7882 H         2 RES2    0.0000
     66 H25        7.4749   -1.0045    4.8761 H         2 RES2    0.0000
     67 H26        8.1420    0.4011    5.0682 H         2 RES2    0.0000
     68 C36        4.7007    1.4405    3.1584 C.2       2 RES2    0.0000
     69 O5         6.6380    9.8142    2.6010 O.3       3 RES3    0.0000
     70 O6         5.4287    8.0302    3.0765 O.2       3 RES3    0.0000
     71 N3         6.6270   10.9037    1.6343 N.2       3 RES3    0.0000
     72 C37        0.2244    2.8594    2.4892 C.ar      3 RES3    0.0000
     73 H27        0.5779    2.4118    3.2229 H         3 RES3    0.0000
     74 C38       -0.8946    2.3809    1.8374 C.ar      3 RES3    0.0000
     75 H28       -1.2885    1.5940    2.1397 H         3 RES3    0.0000
     76 C39       -1.4422    3.0246    0.7636 C.ar      3 RES3    0.0000
     77 H29       -2.2047    2.6825    0.3527 H         3 RES3    0.0000
     78 C40       -0.8639    4.1872    0.2850 C.ar      3 RES3    0.0000
     79 H30       -1.2263    4.6351   -0.4456 H         3 RES3    0.0000
     80 C41        0.2829    4.6757    0.9289 C.ar      3 RES3    0.0000
     81 C42        0.8035    4.0234    2.0216 C.ar      3 RES3    0.0000
     82 C43        2.0082    4.7548    2.5396 C.3       3 RES3    0.0000
     83 H31        1.8746    5.0497    3.4544 H         3 RES3    0.0000
     84 H32        2.8034    4.2018    2.4955 H         3 RES3    0.0000
     85 C44        2.0999    5.9215    1.5965 C.ar      3 RES3    0.0000
     86 C45        1.0779    5.8717    0.6487 C.ar      3 RES3    0.0000
     87 C46        0.9775    6.8389   -0.3196 C.ar      3 RES3    0.0000
     88 H33        0.3055    6.7964   -0.9604 H         3 RES3    0.0000
     89 C47        1.8859    7.8691   -0.3275 C.ar      3 RES3    0.0000
     90 H34        1.8086    8.5339   -0.9730 H         3 RES3    0.0000
     91 C48        2.9237    7.9474    0.6077 C.ar      3 RES3    0.0000
     92 C49        3.0305    6.9457    1.5839 C.ar      3 RES3    0.0000
     93 H35        3.7159    6.9703    2.2121 H         3 RES3    0.0000
     94 C50        3.8082    9.0810    0.4991 C.2       3 RES3    0.0000
     95 H36        3.5862    9.6467   -0.2047 H         3 RES3    0.0000
     96 C51        4.8892    9.5042    1.1934 C.2       3 RES3    0.0000
     97 C52        5.6317   10.7066    0.8628 C.2       3 RES3    0.0000
     98 C53        5.3278   11.6680   -0.2251 C.3       3 RES3    0.0000
     99 H37        4.4781   12.0810   -0.0583 H         3 RES3    0.0000
    100 H38        5.2973   11.2016   -1.0643 H         3 RES3    0.0000
    101 H39        6.0107   12.3415   -0.2582 H         3 RES3    0.0000
    102 C54        5.5884    8.9805    2.3523 C.2       3 RES3    0.0000
@<TRIPOS>BOND
     1    1    3 1
     2    2   29 2
     3    3   30 2
     4    4    5 1
     5    6    4 ar
     6    7    6 1
     7    8    6 ar
     8    9    8 1
     9   10    8 ar
    10   11   10 1
    11   12   10 ar
    12   13    4 ar
    13   14   13 1
    14   15   14 ar
    15   16   12 1
    16   17   16 1
    17   18   16 1
    18   19   15 ar
    19   20   19 1
    20   21   19 ar
    21   22   21 ar
    22   23   22 1
    23   24   14 ar
    24   25   24 1
    25   26   21 1
    26   27   26 1
    27   28   26 2
    28   29    1 1
    29   30   28 1
    30   31   30 1
    31   32   31 1
    32   33   31 1
    33   34   31 1
    34   35   37 1
    35   36   68 2
    36   37   63 2
    37   38   39 1
    38   40   38 ar
    39   41   40 1
    40   42   40 ar
    41   43   42 1
    42   44   42 ar
    43   45   44 1
    44   46   44 ar
    45   47   38 ar
    46   48   47 1
    47   49   48 ar
    48   50   46 1
    49   51   50 1
    50   52   50 1
    51   53   49 ar
    52   54   53 1
    53   55   53 ar
    54   56   55 ar
    55   57   56 1
    56   58   48 ar
    57   59   58 1
    58   60   55 1
    59   61   60 1
    60   62   60 2
    61   63   62 1
    62   64   63 1
    63   65   64 1
    64   66   64 1
    65   67   64 1
    66   68   35 1
    67   69   71 1
    68   70  102 2
    69   71   97 2
    70   72   73 1
    71   74   72 ar
    72   75   74 1
    73   76   74 ar
    74   77   76 1
    75   78   76 ar
    76   79   78 1
    77   80   78 ar
    78   81   72 ar
    79   82   81 1
    80   83   82 1
    81   84   82 1
    82   85   82 1
    83   86   80 1
    84   87   86 ar
    85   88   87 1
    86   89   87 ar
    87   90   89 1
    88   91   89 ar
    89   92   85 ar
    90   93   92 1
    91   94   91 1
    92   95   94 1
    93   96   94 2
    94   97   96 1
    95   98   97 1
    96   99   98 1
    97  100   98 1
    98  101   98 1
    99  102   69 1
   100   12   13 ar
   101   15   16 1
   102   22   24 ar
   103   28   29 1
   104   46   47 ar
   105   49   50 1
   106   56   58 ar
   107   62   68 1
   108   80   81 ar
   109   85   86 ar
   110   91   92 ar
   111   96  102 1
@<TRIPOS>SUBSTRUCTURE
     1 RES1 1
     2 RES2 35
     3 RES3 69

@<TRIPOS>CRYSIN
  10.6405   12.7120   16.5340 107.0750  90.2630 105.0290   2 1

