# MOL2 file generated by ConQuest
# Please check atom types

@<TRIPOS>MOLECULE
UMOTUM01
    21    22     1
SMALL
NO_CHARGES
****
Generated from CSD

@<TRIPOS>ATOM
      1 N1         3.6773    2.0565    8.6905 N.2       1 RES1    0.0000
      2 N2         2.3094    0.2409    9.2299 N.am      1 RES1    0.0000
      3 C1         3.2836    1.8892    7.3523 C.ar      1 RES1    0.0000
      4 C2         1.8484   -0.0010    7.9334 C.2       1 RES1    0.0000
      5 C3         3.8197    2.7707    6.3775 C.ar      1 RES1    0.0000
      6 O1         1.7529   -0.5077   10.2514 O.3       1 RES1    0.0000
      7 C4         2.4144    0.8911    6.9450 C.ar      1 RES1    0.0000
      8 C5         3.5656    1.3930   11.0143 C.3       1 RES1    0.0000
      9 C6         3.1752    1.2477    9.5643 C.2       1 RES1    0.0000
     10 O2         1.0286   -0.8891    7.7177 O.2       1 RES1    0.0000
     11 C7         2.0708    0.7792    5.5951 C.ar      1 RES1    0.0000
     12 C8         3.4732    2.6149    5.0577 C.ar      1 RES1    0.0000
     13 C9         2.5917    1.6358    4.6699 C.ar      1 RES1    0.0000
     14 H1         4.4221    3.4688    6.6444 H         1 RES1    0.0000
     15 H2         3.1207    0.7164   11.5304 H         1 RES1    0.0000
     16 H3         3.3033    2.2604   11.3301 H         1 RES1    0.0000
     17 H4         4.5158    1.2921   11.1062 H         1 RES1    0.0000
     18 H5         1.4449    0.1034    5.3256 H         1 RES1    0.0000
     19 H6         3.8577    3.1895    4.3915 H         1 RES1    0.0000
     20 H7         2.3568    1.5507    3.7430 H         1 RES1    0.0000
     21 H8         2.0493   -0.3711   11.1543 H         1 RES1    0.0000
@<TRIPOS>BOND
     1    1    3 1
     2    2    4 1
     3    3    5 ar
     4    4    7 1
     5    5   12 ar
     6    6    2 1
     7    7    3 ar
     8    8    9 1
     9    9    1 2
    10   10    4 2
    11   11    7 ar
    12   12   13 ar
    13   13   11 ar
    14   14    5 1
    15   15    8 1
    16   16    8 1
    17   17    8 1
    18   18   11 1
    19   19   12 1
    20   20   13 1
    21   21    6 1
    22    2    9 1
@<TRIPOS>SUBSTRUCTURE
     1 RES1 1

@<TRIPOS>CRYSIN
   4.3363    9.5607    9.7628  90.0000  95.4430  90.0000   4 1

