# MOL2 file generated by ConQuest
# Please check atom types

@<TRIPOS>MOLECULE
UMUKUK
    41    45     1
SMALL
NO_CHARGES
****
Generated from CSD

@<TRIPOS>ATOM
      1 O1         8.5760    7.2567    6.6981 O.3       1 RES1    0.0000
      2 O2         6.8942    5.8835    7.2314 O.2       1 RES1    0.0000
      3 N1         9.6294    7.3401    5.7107 N.2       1 RES1    0.0000
      4 C1         3.6528    0.7233    4.7429 C.ar      1 RES1    0.0000
      5 C2         3.1718   -0.3412    3.9772 C.ar      1 RES1    0.0000
      6 H1         3.6458   -0.6538    3.2152 H         1 RES1    0.0000
      7 C3         1.9636   -0.9322    4.3749 C.ar      1 RES1    0.0000
      8 H2         1.6064   -1.6588    3.8782 H         1 RES1    0.0000
      9 C4         1.2860   -0.4594    5.4923 C.ar      1 RES1    0.0000
     10 H3         0.4554   -0.8510    5.7354 H         1 RES1    0.0000
     11 C5         1.7972    0.5653    6.2497 C.ar      1 RES1    0.0000
     12 H4         1.3383    0.8616    7.0258 H         1 RES1    0.0000
     13 C6         2.9754    1.1558    5.8770 C.ar      1 RES1    0.0000
     14 C7         3.7394    2.3132    6.5177 C.3       1 RES1    0.0000
     15 H5         3.1752    3.1244    6.5786 H         1 RES1    0.0000
     16 H6         4.0616    2.0729    7.4231 H         1 RES1    0.0000
     17 C8         4.8916    2.5199    5.5659 C.ar      1 RES1    0.0000
     18 C9         5.8896    3.4785    5.6111 C.ar      1 RES1    0.0000
     19 H7         5.9142    4.1188    6.3118 H         1 RES1    0.0000
     20 C10        6.8641    3.4858    4.6017 C.ar      1 RES1    0.0000
     21 C11        6.8037    2.5143    3.5628 C.ar      1 RES1    0.0000
     22 H8         7.4623    2.5266    2.8784 H         1 RES1    0.0000
     23 C12        5.8065    1.5502    3.5262 C.ar      1 RES1    0.0000
     24 H9         5.7817    0.8986    2.8345 H         1 RES1    0.0000
     25 C13        4.8526    1.5636    4.5212 C.ar      1 RES1    0.0000
     26 C14        7.9664    4.4152    4.5235 C.2       1 RES1    0.0000
     27 H10        8.5345    4.2583    3.7774 H         1 RES1    0.0000
     28 C15        7.8153    6.1272    6.4854 C.2       1 RES1    0.0000
     29 C16        8.3691    5.4684    5.2878 C.2       1 RES1    0.0000
     30 C17        9.4996    6.3104    4.9344 C.2       1 RES1    0.0000
     31 C18       10.4579    6.0914    3.8321 C.ar      1 RES1    0.0000
     32 C19       10.5934    7.0438    2.8198 C.ar      1 RES1    0.0000
     33 H11       10.0685    7.8359    2.8369 H         1 RES1    0.0000
     34 C20       11.4972    6.8275    1.7868 C.ar      1 RES1    0.0000
     35 H12       11.5857    7.4707    1.0923 H         1 RES1    0.0000
     36 C21       12.2689    5.6835    1.7643 C.ar      1 RES1    0.0000
     37 H13       12.8883    5.5452    1.0567 H         1 RES1    0.0000
     38 C22       12.1455    4.7328    2.7701 C.ar      1 RES1    0.0000
     39 H14       12.6852    3.9502    2.7539 H         1 RES1    0.0000
     40 C23       11.2347    4.9289    3.7969 C.ar      1 RES1    0.0000
     41 H15       11.1391    4.2729    4.4771 H         1 RES1    0.0000
@<TRIPOS>BOND
     1    1    3 1
     2    2   28 2
     3    3   30 2
     4    4    5 ar
     5    5    6 1
     6    7    5 ar
     7    8    7 1
     8    9    7 ar
     9   10    9 1
    10   11    9 ar
    11   12   11 1
    12   13    4 ar
    13   14   13 1
    14   15   14 1
    15   16   14 1
    16   17   14 1
    17   18   17 ar
    18   19   18 1
    19   20   18 ar
    20   21   20 ar
    21   22   21 1
    22   23   21 ar
    23   24   23 1
    24   25    4 1
    25   26   20 1
    26   27   26 1
    27   28    1 1
    28   29   26 2
    29   30   29 1
    30   31   30 1
    31   32   31 ar
    32   33   32 1
    33   34   32 ar
    34   35   34 1
    35   36   34 ar
    36   37   36 1
    37   38   36 ar
    38   39   38 1
    39   40   31 ar
    40   41   40 1
    41   11   13 ar
    42   17   25 ar
    43   23   25 ar
    44   28   29 1
    45   38   40 ar
@<TRIPOS>SUBSTRUCTURE
     1 RES1 1

@<TRIPOS>CRYSIN
  24.4420    5.6023   11.9660  90.0000  97.6380  90.0000   9 1

