# MOL2 file generated by ConQuest
# Please check atom types

@<TRIPOS>MOLECULE
UNAYUD
    32    33     1
SMALL
NO_CHARGES
****
Generated from CSD

@<TRIPOS>ATOM
      1 N1         3.5304    4.9643   11.5369 N.pl3     1 RES1    0.0000
      2 O1        -1.0011   -0.4489    7.8220 O.2       1 RES1    0.0000
      3 O2        -0.1236    1.5968    7.5984 O.3       1 RES1    0.0000
      4 O3        -3.1957    0.7800    9.0174 O.3       1 RES1    0.0000
      5 O4        -3.8963    3.9596    9.0262 O.2       1 RES1    0.0000
      6 O5        -1.9914    5.1012    8.7718 O.3       1 RES1    0.0000
      7 O6         4.0599    4.1940   12.3130 O.2       1 RES1    0.0000
      8 O7         3.7948    6.1617   11.4830 O.2       1 RES1    0.0000
      9 C1        -1.0844    0.7328    7.9914 C.2       1 RES1    0.0000
     10 C2        -2.1778    1.5148    8.6096 C.2       1 RES1    0.0000
     11 C3        -1.8637    2.8146    8.5734 C.2       1 RES1    0.0000
     12 C4        -0.4767    2.9500    7.9971 C.3       1 RES1    0.0000
     13 C5         0.5766    3.4698    8.9379 C.ar      1 RES1    0.0000
     14 C6         1.1178    2.6617    9.9192 C.ar      1 RES1    0.0000
     15 C7         2.0896    3.1377   10.7617 C.ar      1 RES1    0.0000
     16 C8         2.5296    4.4295   10.6134 C.ar      1 RES1    0.0000
     17 C9         2.0168    5.2563    9.6428 C.ar      1 RES1    0.0000
     18 C10        1.0411    4.7723    8.8108 C.ar      1 RES1    0.0000
     19 C11       -4.0475    1.2408   10.0925 C.3       1 RES1    0.0000
     20 C12       -2.7148    3.9769    8.8426 C.2       1 RES1    0.0000
     21 C13       -2.7149    6.3224    9.0284 C.3       1 RES1    0.0000
     22 H1        -0.5372    3.4891    7.1613 H         1 RES1    0.0000
     23 H2         0.7752    1.8192   10.0049 H         1 RES1    0.0000
     24 H3         2.4976    2.6368   11.4685 H         1 RES1    0.0000
     25 H4         2.3992    6.1070    9.5908 H         1 RES1    0.0000
     26 H5         0.6040    5.3228    8.1175 H         1 RES1    0.0000
     27 H6        -3.5277    1.7801   10.6885 H         1 RES1    0.0000
     28 H7        -4.8148    1.7003    9.7160 H         1 RES1    0.0000
     29 H8        -4.4030    0.4856   10.5056 H         1 RES1    0.0000
     30 H9        -2.0945    7.0377    8.7338 H         1 RES1    0.0000
     31 H10       -2.9652    6.3709    9.9374 H         1 RES1    0.0000
     32 H11       -3.4918    6.3796    8.5123 H         1 RES1    0.0000
@<TRIPOS>BOND
     1    1    7 2
     2    2    9 2
     3    3    9 1
     4    4   10 1
     5    5   20 2
     6    6   20 1
     7    8    1 2
     8    9   10 1
     9   10   11 2
    10   11   12 1
    11   12    3 1
    12   13   12 1
    13   14   13 ar
    14   15   14 ar
    15   16    1 1
    16   17   16 ar
    17   18   13 ar
    18   19    4 1
    19   20   11 1
    20   21    6 1
    21   22   12 1
    22   23   14 1
    23   24   15 1
    24   25   17 1
    25   26   18 1
    26   27   19 1
    27   28   19 1
    28   29   19 1
    29   30   21 1
    30   31   21 1
    31   32   21 1
    32   15   16 ar
    33   17   18 ar
@<TRIPOS>SUBSTRUCTURE
     1 RES1 1

