# MOL2 file generated by ConQuest
# Please check atom types

@<TRIPOS>MOLECULE
UNILIO
    37    40     1
SMALL
NO_CHARGES
****
Generated from CSD

@<TRIPOS>ATOM
      1 C1         5.1927    6.8959    7.3259 C.3       1 RES1    0.0000
      2 C2         3.8186    7.1210    7.8522 C.2       1 RES1    0.0000
      3 C3         2.8428    6.2368    7.8169 C.2       1 RES1    0.0000
      4 C4         3.0125    4.8524    7.3030 C.3       1 RES1    0.0000
      5 O1         2.5446    3.9131    8.2849 O.3       1 RES1    0.0000
      6 C5         3.6822    3.3503    8.9703 C.3       1 RES1    0.0000
      7 O2         4.8252    4.0055    8.4286 O.3       1 RES1    0.0000
      8 C6         4.4640    4.4499    7.1147 C.3       1 RES1    0.0000
      9 C7         5.4494    5.5327    6.6844 C.3       1 RES1    0.0000
     10 C8         6.9054    5.0206    6.8319 C.3       1 RES1    0.0000
     11 C9         7.2029    3.8871    5.8666 C.3       1 RES1    0.0000
     12 C10        6.9791    4.2917    4.4059 C.3       1 RES1    0.0000
     13 C11        5.5706    4.8798    4.1782 C.3       1 RES1    0.0000
     14 C12        5.3223    5.8986    5.2243 C.2       1 RES1    0.0000
     15 N1         5.3335    7.1639    5.0060 N.2       1 RES1    0.0000
     16 O3         5.3883    7.8555    6.2399 O.3       1 RES1    0.0000
     17 C13        3.6285    3.6572   10.4436 C.3       1 RES1    0.0000
     18 C14        3.7263    1.8674    8.6928 C.3       1 RES1    0.0000
     19 H1         5.9392    7.1469    8.0042 H         1 RES1    0.0000
     20 H2         3.6152    8.0202    8.2334 H         1 RES1    0.0000
     21 H3         1.9876    6.4607    8.1508 H         1 RES1    0.0000
     22 H4         2.4805    4.7462    6.4804 H         1 RES1    0.0000
     23 H5         4.4681    3.6991    6.4992 H         1 RES1    0.0000
     24 H6         7.4651    5.7567    6.6551 H         1 RES1    0.0000
     25 H7         7.0269    4.7497    7.7543 H         1 RES1    0.0000
     26 H8         8.1458    3.5823    5.9637 H         1 RES1    0.0000
     27 H9         6.6591    3.1368    6.0426 H         1 RES1    0.0000
     28 H10        7.6763    5.0260    4.1468 H         1 RES1    0.0000
     29 H11        7.0269    3.4487    3.7729 H         1 RES1    0.0000
     30 H12        5.5557    5.3111    3.3257 H         1 RES1    0.0000
     31 H13        4.8750    4.1527    4.2013 H         1 RES1    0.0000
     32 H14        4.4290    3.1813   10.8658 H         1 RES1    0.0000
     33 H15        3.6778    4.6161   10.5539 H         1 RES1    0.0000
     34 H16        2.8327    3.2972   10.8169 H         1 RES1    0.0000
     35 H17        4.5150    1.4704    9.2255 H         1 RES1    0.0000
     36 H18        2.8561    1.4436    8.9756 H         1 RES1    0.0000
     37 H19        3.8030    1.7377    7.7449 H         1 RES1    0.0000
@<TRIPOS>BOND
     1    1    2 1
     2    2    3 2
     3    3    4 1
     4    4    5 1
     5    5    6 1
     6    6    7 1
     7    7    8 1
     8    8    4 1
     9    9    1 1
    10   10    9 1
    11   11   10 1
    12   12   11 1
    13   13   12 1
    14   14    9 1
    15   15   14 2
    16   16    1 1
    17   17    6 1
    18   18    6 1
    19   19    1 1
    20   20    2 1
    21   21    3 1
    22   22    4 1
    23   23    8 1
    24   24   10 1
    25   25   10 1
    26   26   11 1
    27   27   11 1
    28   28   12 1
    29   29   12 1
    30   30   13 1
    31   31   13 1
    32   32   17 1
    33   33   17 1
    34   34   17 1
    35   35   18 1
    36   36   18 1
    37   37   18 1
    38    8    9 1
    39   13   14 1
    40   15   16 1
@<TRIPOS>SUBSTRUCTURE
     1 RES1 1

@<TRIPOS>CRYSIN
   7.8250    8.9113   18.7892  90.0000  90.0000  90.0000  19 1

