# MOL2 file generated by ConQuest
# Please check atom types

@<TRIPOS>MOLECULE
UNOBII
    41    43     1
SMALL
NO_CHARGES
****
Generated from CSD

@<TRIPOS>ATOM
      1 C1         2.3831   13.1308    3.1637 C.3       1 RES1    0.0000
      2 H1         1.6698   12.4759    3.0197 H         1 RES1    0.0000
      3 C2         2.9665   13.5424    1.8076 C.3       1 RES1    0.0000
      4 H2         2.4261   13.1931    1.0826 H         1 RES1    0.0000
      5 H3         3.0083   14.5088    1.7299 H         1 RES1    0.0000
      6 C3         4.3149   12.9599    1.7799 C.3       1 RES1    0.0000
      7 H4         4.9166   13.6699    2.0860 H         1 RES1    0.0000
      8 C4         4.3007   11.9470    2.8741 C.3       1 RES1    0.0000
      9 H5         3.9470   11.1022    2.5569 H         1 RES1    0.0000
     10 H6         5.1944   11.8021    3.2220 H         1 RES1    0.0000
     11 C5         1.8736   14.2031    3.9243 C.3       1 RES1    0.0000
     12 H7         1.1268   14.6088    3.4566 H         1 RES1    0.0000
     13 H8         2.5612   14.8769    4.0408 H         1 RES1    0.0000
     14 C6         4.8845   12.4846    0.4617 C.ar      1 RES1    0.0000
     15 C7         4.1954   11.7021   -0.4499 C.ar      1 RES1    0.0000
     16 H9         3.3258   11.4326   -0.2622 H         1 RES1    0.0000
     17 C8         4.7857   11.3210   -1.6345 C.ar      1 RES1    0.0000
     18 H10        4.3146   10.7907   -2.2348 H         1 RES1    0.0000
     19 C9         6.0369   11.7108   -1.9257 C.ar      1 RES1    0.0000
     20 H11        6.4225   11.4674   -2.7365 H         1 RES1    0.0000
     21 C10        6.7188   12.4397   -1.0648 C.ar      1 RES1    0.0000
     22 H12        7.5919   12.6889   -1.2655 H         1 RES1    0.0000
     23 C11        6.1577   12.8410    0.1343 C.ar      1 RES1    0.0000
     24 H13        6.6552   13.3598    0.7234 H         1 RES1    0.0000
     25 C12        1.2852   14.6450    6.1430 C.2       1 RES1    0.0000
     26 C13        0.9172   14.0727    7.4732 C.ar      1 RES1    0.0000
     27 C14        0.8987   14.9290    8.5542 C.ar      1 RES1    0.0000
     28 H14        1.1200   15.8245    8.4393 H         1 RES1    0.0000
     29 C15        0.5542   14.4668    9.8079 C.ar      1 RES1    0.0000
     30 H15        0.5497   15.0377   10.5414 H         1 RES1    0.0000
     31 C16        0.2181   13.1395    9.9440 C.ar      1 RES1    0.0000
     32 C17        0.2241   12.2672    8.8876 C.ar      1 RES1    0.0000
     33 H16       -0.0075   11.3747    9.0073 H         1 RES1    0.0000
     34 C18        0.5806   12.7411    7.6399 C.ar      1 RES1    0.0000
     35 H17        0.5953   12.1644    6.9100 H         1 RES1    0.0000
     36 N1        -0.1523   12.6353   11.2763 N.pl3     1 RES1    0.0000
     37 O1         3.4609   12.5010    3.8657 O.3       1 RES1    0.0000
     38 O2         1.4360   13.7151    5.2249 O.3       1 RES1    0.0000
     39 O3         1.4384   15.8150    5.9320 O.2       1 RES1    0.0000
     40 O4        -0.4019   11.4572   11.3944 O.2       1 RES1    0.0000
     41 O5        -0.2203   13.4395   12.1924 O.2       1 RES1    0.0000
@<TRIPOS>BOND
     1    1    2 1
     2    3    1 1
     3    4    3 1
     4    5    3 1
     5    6    3 1
     6    7    6 1
     7    8    6 1
     8    9    8 1
     9   10    8 1
    10   11    1 1
    11   12   11 1
    12   13   11 1
    13   14    6 1
    14   15   14 ar
    15   16   15 1
    16   17   15 ar
    17   18   17 1
    18   19   17 ar
    19   20   19 1
    20   21   19 ar
    21   22   21 1
    22   23   14 ar
    23   24   23 1
    24   25   26 1
    25   26   27 ar
    26   27   28 1
    27   29   27 ar
    28   30   29 1
    29   31   29 ar
    30   32   31 ar
    31   33   32 1
    32   34   26 ar
    33   35   34 1
    34   36   31 1
    35   37    1 1
    36   38   11 1
    37   39   25 2
    38   40   36 2
    39   41   36 2
    40    8   37 1
    41   21   23 ar
    42   25   38 1
    43   32   34 ar
@<TRIPOS>SUBSTRUCTURE
     1 RES1 1

@<TRIPOS>CRYSIN
   6.9930   14.4900   16.2740  90.0000  96.0700  90.0000  14 1

