# MOL2 file generated by ConQuest
# Please check atom types

@<TRIPOS>MOLECULE
UNOGAF
    35    35     1
SMALL
NO_CHARGES
****
Generated from CSD

@<TRIPOS>ATOM
      1 C1         3.1196    9.8049    0.0376 C.ar      1 RES1    0.0000
      2 C2         3.6060   10.8787    0.7474 C.ar      1 RES1    0.0000
      3 C3         4.8034   10.7281    1.4255 C.ar      1 RES1    0.0000
      4 C4         5.4927    9.5236    1.3898 C.ar      1 RES1    0.0000
      5 C5         4.9502    8.4503    0.6956 C.ar      1 RES1    0.0000
      6 C6         3.7630    8.5829    0.0025 C.ar      1 RES1    0.0000
      7 N1         1.8716    9.9646   -0.7198 N.pl3     1 RES1    0.0000
      8 O1         1.4900    9.0385   -1.4163 O.2       1 RES1    0.0000
      9 O2         1.2587   11.0130   -0.6088 O.2       1 RES1    0.0000
     10 C7         6.8356    9.4277    2.0779 C.3       1 RES1    0.0000
     11 C8         6.9400    8.2212    3.0030 C.2       1 RES1    0.0000
     12 C9         7.9845    9.2854    1.0806 C.2       1 RES1    0.0000
     13 O3         6.9407    8.5876    4.2766 O.3       1 RES1    0.0000
     14 O4         7.0168    7.0902    2.6162 O.2       1 RES1    0.0000
     15 C10        7.1339    7.5176    5.2527 C.3       1 RES1    0.0000
     16 C11        8.5774    7.2745    5.4815 C.3       1 RES1    0.0000
     17 O5         9.1050    9.7458    1.6323 O.3       1 RES1    0.0000
     18 O6         7.8938    8.7970   -0.0117 O.2       1 RES1    0.0000
     19 C12       10.3282    9.6222    0.8334 C.3       1 RES1    0.0000
     20 C13       10.9047    8.2564    0.9695 C.3       1 RES1    0.0000
     21 H1         3.1327   11.7023    0.7708 H         1 RES1    0.0000
     22 H2         5.1581   11.4573    1.9199 H         1 RES1    0.0000
     23 H3         5.4014    7.6138    0.6965 H         1 RES1    0.0000
     24 H4         3.3993    7.8532   -0.4860 H         1 RES1    0.0000
     25 H5         6.9800   10.2573    2.6163 H         1 RES1    0.0000
     26 H6         6.7071    6.6878    4.9220 H         1 RES1    0.0000
     27 H7         6.7014    7.7674    6.1070 H         1 RES1    0.0000
     28 H8         9.0027    7.0159    4.6372 H         1 RES1    0.0000
     29 H9         8.6873    6.5550    6.1371 H         1 RES1    0.0000
     30 H10        8.9972    8.0927    5.8214 H         1 RES1    0.0000
     31 H11       10.9910   10.2933    1.1366 H         1 RES1    0.0000
     32 H12       10.1216    9.8020   -0.1177 H         1 RES1    0.0000
     33 H13       11.0446    8.0539    1.9182 H         1 RES1    0.0000
     34 H14       11.7624    8.2158    0.4969 H         1 RES1    0.0000
     35 H15       10.2874    7.6013    0.5829 H         1 RES1    0.0000
@<TRIPOS>BOND
     1    1    2 ar
     2    2    3 ar
     3    3    4 ar
     4    4    5 ar
     5    5    6 ar
     6    6    1 ar
     7    7    1 1
     8    8    7 2
     9    9    7 2
    10   10    4 1
    11   11   10 1
    12   12   10 1
    13   13   11 1
    14   14   11 2
    15   15   13 1
    16   16   15 1
    17   17   12 1
    18   18   12 2
    19   19   17 1
    20   20   19 1
    21   21    2 1
    22   22    3 1
    23   23    5 1
    24   24    6 1
    25   25   10 1
    26   26   15 1
    27   27   15 1
    28   28   16 1
    29   29   16 1
    30   30   16 1
    31   31   19 1
    32   32   19 1
    33   33   20 1
    34   34   20 1
    35   35   20 1
@<TRIPOS>SUBSTRUCTURE
     1 RES1 1

@<TRIPOS>CRYSIN
  11.9275   13.8407    8.4595  90.0000  99.1920  90.0000  14 1

