# MOL2 file generated by ConQuest
# Please check atom types

@<TRIPOS>MOLECULE
UNOHIQ
    98   104     2
SMALL
NO_CHARGES
****
Generated from CSD

@<TRIPOS>ATOM
      1 O1         1.8952    7.4882    4.5441 O.3       1 RES1    0.0000
      2 O2        -0.0200    8.5774    5.8896 O.3       1 RES1    0.0000
      3 O3        -1.5620    3.1156   -0.1661 O.2       1 RES1    0.0000
      4 O4        -0.0254    1.8563    0.6986 O.2       1 RES1    0.0000
      5 O5         2.3374    4.2522   -1.4254 O.2       1 RES1    0.0000
      6 O6         2.0992    6.8813   -1.0250 O.3       1 RES1    0.0000
      7 O7         4.0129    6.7174    4.9263 O.3       1 RES1    0.0000
      8 N1        -0.6382    2.9180    0.6126 N.pl3     1 RES1    0.0000
      9 C1         0.6320    7.0362    4.2560 C.ar      1 RES1    0.0000
     10 C2        -0.4131    7.6499    4.9763 C.ar      1 RES1    0.0000
     11 C3        -1.7185    7.3198    4.6936 C.ar      1 RES1    0.0000
     12 H1        -2.4250    7.7412    5.1698 H         1 RES1    0.0000
     13 C4        -2.0109    6.3820    3.7209 C.ar      1 RES1    0.0000
     14 H2        -2.9170    6.1685    3.5273 H         1 RES1    0.0000
     15 C5        -0.9844    5.7448    3.0225 C.ar      1 RES1    0.0000
     16 C6        -1.2332    4.7466    2.0094 C.2       1 RES1    0.0000
     17 H3        -2.1177    4.6217    1.6863 H         1 RES1    0.0000
     18 C7        -0.2514    3.9994    1.5213 C.2       1 RES1    0.0000
     19 C8         1.1944    4.0609    1.9875 C.3       1 RES1    0.0000
     20 H4         1.3115    3.4249    2.7498 H         1 RES1    0.0000
     21 C9         2.2065    3.6972    0.8902 C.3       1 RES1    0.0000
     22 H5         3.1169    3.7028    1.2773 H         1 RES1    0.0000
     23 H6         2.0189    2.7796    0.5722 H         1 RES1    0.0000
     24 C10        2.1714    4.6306   -0.2777 C.2       1 RES1    0.0000
     25 C11        1.9710    6.0602    0.0656 C.2       1 RES1    0.0000
     26 C12        1.7099    6.4394    1.3143 C.2       1 RES1    0.0000
     27 H7         1.6580    7.3718    1.4860 H         1 RES1    0.0000
     28 C13        1.4863    5.4930    2.4924 C.3       1 RES1    0.0000
     29 C14        2.7292    5.4813    3.4112 C.3       1 RES1    0.0000
     30 H8         2.5700    4.8644    4.1685 H         1 RES1    0.0000
     31 H9         3.5086    5.1449    2.9030 H         1 RES1    0.0000
     32 C15        3.0387    6.8496    3.9430 C.3       1 RES1    0.0000
     33 H10        3.3889    7.4222    3.2025 H         1 RES1    0.0000
     34 C16        0.3602    6.0848    3.3035 C.ar      1 RES1    0.0000
     35 C17       -1.0529    9.2768    6.6003 C.3       1 RES1    0.0000
     36 H11       -1.6771    9.6779    5.9591 H         1 RES1    0.0000
     37 H12       -0.6513    9.9824    7.1489 H         1 RES1    0.0000
     38 H13       -1.5354    8.6485    7.1775 H         1 RES1    0.0000
     39 C18        2.0163    8.2891   -0.7539 C.3       1 RES1    0.0000
     40 H14        1.1355    8.4983   -0.3803 H         1 RES1    0.0000
     41 H15        2.1449    8.7902   -1.5870 H         1 RES1    0.0000
     42 H16        2.7123    8.5399   -0.1111 H         1 RES1    0.0000
     43 C19        4.7283    7.9210    5.2506 C.3       1 RES1    0.0000
     44 H17        4.7838    8.4828    4.4361 H         1 RES1    0.0000
     45 H18        5.6535    7.6780    5.5081 H         1 RES1    0.0000
     46 C20        4.1337    8.7250    6.3361 C.3       1 RES1    0.0000
     47 H19        3.2943    9.1250    6.0247 H         1 RES1    0.0000
     48 H20        4.7559    9.4357    6.5969 H         1 RES1    0.0000
     49 H21        3.9542    8.1496    7.1085 H         1 RES1    0.0000
     50 O8         5.8605    0.7839    3.8659 O.3       2 RES2    0.0000
     51 O9         7.9257   -0.2094    2.7207 O.3       2 RES2    0.0000
     52 O10        8.6554    5.6288    8.5711 O.2       2 RES2    0.0000
     53 O11        7.0239    6.6810    7.5959 O.2       2 RES2    0.0000
     54 O12        4.6216    4.1905    9.6398 O.2       2 RES2    0.0000
     55 O13        5.1334    1.5964    9.4053 O.3       2 RES2    0.0000
     56 O14        3.6941    1.2804    3.3850 O.3       2 RES2    0.0000
     57 N2         7.7371    5.6841    7.7548 N.pl3     2 RES2    0.0000
     58 C21        7.0598    1.3329    4.2291 C.ar      2 RES2    0.0000
     59 C22        8.1958    0.7631    3.6435 C.ar      2 RES2    0.0000
     60 C23        9.4489    1.2189    3.9918 C.ar      2 RES2    0.0000
     61 H22       10.2199    0.8577    3.5694 H         2 RES2    0.0000
     62 C24        9.5837    2.1981    4.9511 C.ar      2 RES2    0.0000
     63 H23       10.4510    2.4806    5.2136 H         2 RES2    0.0000
     64 C25        8.4650    2.7773    5.5367 C.ar      2 RES2    0.0000
     65 C26        8.5652    3.8367    6.5246 C.2       2 RES2    0.0000
     66 H24        9.4103    4.0370    6.9083 H         2 RES2    0.0000
     67 C27        7.4983    4.5339    6.9015 C.2       2 RES2    0.0000
     68 C28        6.1052    4.3278    6.3445 C.3       2 RES2    0.0000
     69 H25        6.0063    4.9117    5.5384 H         2 RES2    0.0000
     70 C29        4.9757    4.6661    7.3088 C.3       2 RES2    0.0000
     71 H26        5.0649    5.6113    7.5882 H         2 RES2    0.0000
     72 H27        4.1109    4.5711    6.8376 H         2 RES2    0.0000
     73 C30        4.9621    3.7908    8.5390 C.2       2 RES2    0.0000
     74 C31        5.3201    2.3801    8.2916 C.2       2 RES2    0.0000
     75 C32        5.7272    1.9601    7.1001 C.2       2 RES2    0.0000
     76 H28        5.8936    1.0312    6.9941 H         2 RES2    0.0000
     77 C33        5.9482    2.8582    5.8884 C.3       2 RES2    0.0000
     78 C34        4.7765    2.7216    4.9056 C.3       2 RES2    0.0000
     79 H29        3.9392    2.9981    5.3550 H         2 RES2    0.0000
     80 H30        4.9237    3.3256    4.1365 H         2 RES2    0.0000
     81 C35        4.6323    1.3075    4.4092 C.3       2 RES2    0.0000
     82 H31        4.3248    0.7212    5.1581 H         2 RES2    0.0000
     83 C36        7.1775    2.3310    5.1799 C.ar      2 RES2    0.0000
     84 C37        9.0381   -0.9138    2.1423 C.3       2 RES2    0.0000
     85 H32        9.5574   -0.3002    1.5819 H         2 RES2    0.0000
     86 H33        8.7064   -1.6551    1.5937 H         2 RES2    0.0000
     87 H34        9.6094   -1.2656    2.8559 H         2 RES2    0.0000
     88 C38        5.2187    0.1761    9.2004 C.3       2 RES2    0.0000
     89 H35        4.6351   -0.0829    8.4565 H         2 RES2    0.0000
     90 H36        4.9336   -0.2898   10.0149 H         2 RES2    0.0000
     91 H37        6.1436   -0.0690    8.9900 H         2 RES2    0.0000
     92 C39        3.2978   -0.0650    3.0376 C.3       2 RES2    0.0000
     93 H38        4.1052   -0.6253    2.9198 H         2 RES2    0.0000
     94 H39        2.7630   -0.4506    3.7764 H         2 RES2    0.0000
     95 C40        2.5237   -0.0845    1.8293 C.3       2 RES2    0.0000
     96 H40        1.7780    0.5467    1.9084 H         2 RES2    0.0000
     97 H41        2.1732   -0.9870    1.6812 H         2 RES2    0.0000
     98 H42        3.0920    0.1737    1.0737 H         2 RES2    0.0000
@<TRIPOS>BOND
     1    1    9 1
     2    2   10 1
     3    3    8 2
     4    4    8 2
     5    5   24 2
     6    6   25 1
     7    7   32 1
     8    8   18 1
     9    9   10 ar
    10   10   11 ar
    11   11   12 1
    12   13   11 ar
    13   14   13 1
    14   15   13 ar
    15   16   15 1
    16   17   16 1
    17   18   16 2
    18   19   18 1
    19   20   19 1
    20   21   19 1
    21   22   21 1
    22   23   21 1
    23   24   21 1
    24   25   24 1
    25   26   25 2
    26   27   26 1
    27   28   19 1
    28   29   28 1
    29   30   29 1
    30   31   29 1
    31   32    1 1
    32   33   32 1
    33   34    9 ar
    34   35    2 1
    35   36   35 1
    36   37   35 1
    37   38   35 1
    38   39    6 1
    39   40   39 1
    40   41   39 1
    41   42   39 1
    42   43    7 1
    43   44   43 1
    44   45   43 1
    45   46   43 1
    46   47   46 1
    47   48   46 1
    48   49   46 1
    49   50   58 1
    50   51   59 1
    51   52   57 2
    52   53   57 2
    53   54   73 2
    54   55   74 1
    55   56   81 1
    56   57   67 1
    57   58   59 ar
    58   59   60 ar
    59   60   61 1
    60   62   60 ar
    61   63   62 1
    62   64   62 ar
    63   65   64 1
    64   66   65 1
    65   67   65 2
    66   68   67 1
    67   69   68 1
    68   70   68 1
    69   71   70 1
    70   72   70 1
    71   73   70 1
    72   74   73 1
    73   75   74 2
    74   76   75 1
    75   77   68 1
    76   78   77 1
    77   79   78 1
    78   80   78 1
    79   81   50 1
    80   82   81 1
    81   83   58 ar
    82   84   51 1
    83   85   84 1
    84   86   84 1
    85   87   84 1
    86   88   55 1
    87   89   88 1
    88   90   88 1
    89   91   88 1
    90   92   56 1
    91   93   92 1
    92   94   92 1
    93   95   92 1
    94   96   95 1
    95   97   95 1
    96   98   95 1
    97   15   34 ar
    98   26   28 1
    99   28   34 1
   100   29   32 1
   101   64   83 ar
   102   75   77 1
   103   77   83 1
   104   78   81 1
@<TRIPOS>SUBSTRUCTURE
     1 RES1 1
     2 RES2 50

@<TRIPOS>CRYSIN
  10.3480   10.8530   17.3840 102.9340  93.2100 103.8570   2 1

