# MOL2 file generated by ConQuest
# Please check atom types

@<TRIPOS>MOLECULE
UNOKUD
    36    38     1
SMALL
NO_CHARGES
****
Generated from CSD

@<TRIPOS>ATOM
      1 H1         1.4488   -0.1133    3.0073 H         1 RES1    0.0000
      2 H2         3.9029    1.7329   -2.2046 H         1 RES1    0.0000
      3 H3         1.4349    2.2764   -1.0169 H         1 RES1    0.0000
      4 H4         4.6166    2.6289   -4.1949 H         1 RES1    0.0000
      5 H5        -0.7005    3.1276   -1.2236 H         1 RES1    0.0000
      6 H6        -3.0097    1.2088    2.3214 H         1 RES1    0.0000
      7 H7        -0.1941   -0.7101    4.5035 H         1 RES1    0.0000
      8 H8         4.7818    5.2070   -0.2202 H         1 RES1    0.0000
      9 H9        -2.3343    2.4556    0.2965 H         1 RES1    0.0000
     10 H10       -2.4452   -0.1099    4.1395 H         1 RES1    0.0000
     11 H11        2.5584   -0.0592    1.1038 H         1 RES1    0.0000
     12 H12        5.5239    4.8436   -4.2713 H         1 RES1    0.0000
     13 H13        5.6193    6.1538   -2.2615 H         1 RES1    0.0000
     14 H14        5.4847   -0.9129    0.3639 H         1 RES1    0.0000
     15 N1         2.4892    0.8011    0.8748 N.pl3     1 RES1    0.0000
     16 N2         4.7258    0.7450    0.1829 N.2       1 RES1    0.0000
     17 O1         4.6025   -0.6303    0.5321 O.3       1 RES1    0.0000
     18 C1         1.1748    1.3070    0.7327 C.ar      1 RES1    0.0000
     19 C2         0.2126    0.9231    1.7051 C.ar      1 RES1    0.0000
     20 O2         3.3782    3.5748    1.1153 O.2       1 RES1    0.0000
     21 C3         3.7199    2.8613    0.1935 C.2       1 RES1    0.0000
     22 C4        -1.1293    1.3449    1.5182 C.ar      1 RES1    0.0000
     23 C5         4.2732    3.3811   -1.0687 C.ar      1 RES1    0.0000
     24 C6         3.6103    1.3626    0.3726 C.2       1 RES1    0.0000
     25 C7         0.5176    0.1508    2.8459 C.ar      1 RES1    0.0000
     26 C8        -1.4469    2.1788    0.4198 C.ar      1 RES1    0.0000
     27 C9         0.8158    2.0876   -0.3250 C.ar      1 RES1    0.0000
     28 C10       -2.1108    0.9222    2.4460 C.ar      1 RES1    0.0000
     29 C11        4.7639    4.6872   -1.0918 C.ar      1 RES1    0.0000
     30 C12       -1.7805    0.1581    3.5071 C.ar      1 RES1    0.0000
     31 C13        4.2623    2.6331   -2.2326 C.ar      1 RES1    0.0000
     32 C14       -0.4985    2.5503   -0.4595 C.ar      1 RES1    0.0000
     33 C15       -0.4587   -0.2308    3.7203 C.ar      1 RES1    0.0000
     34 C16        4.7225    3.1910   -3.4124 C.ar      1 RES1    0.0000
     35 C17        5.2369    5.2163   -2.2600 C.ar      1 RES1    0.0000
     36 C18        5.2181    4.4826   -3.4142 C.ar      1 RES1    0.0000
@<TRIPOS>BOND
     1    1   25 1
     2    2   31 1
     3    3   27 1
     4    4   34 1
     5    5   32 1
     6    6   28 1
     7    7   33 1
     8    8   29 1
     9    9   26 1
    10   10   30 1
    11   11   15 1
    12   12   36 1
    13   13   35 1
    14   14   17 1
    15   15   18 1
    16   16   17 1
    17   18   19 ar
    18   19   22 ar
    19   20   21 2
    20   21   23 1
    21   22   26 ar
    22   23   29 ar
    23   24   15 1
    24   25   19 ar
    25   26   32 ar
    26   27   18 ar
    27   28   22 ar
    28   29   35 ar
    29   30   28 ar
    30   31   23 ar
    31   32   27 ar
    32   33   25 ar
    33   34   31 ar
    34   35   36 ar
    35   36   34 ar
    36   16   24 2
    37   21   24 1
    38   30   33 ar
@<TRIPOS>SUBSTRUCTURE
     1 RES1 1

@<TRIPOS>CRYSIN
  12.0073    8.4530   15.0167  90.0000  94.1880  90.0000  14 1

