# MOL2 file generated by ConQuest
# Please check atom types

@<TRIPOS>MOLECULE
UNONIU
    52    49     2
SMALL
NO_CHARGES
****
Generated from CSD

@<TRIPOS>ATOM
      1 O1         1.6484    7.8467    7.6010 O.2       1 RES1    0.0000
      2 O2         4.1447    4.0989    8.2579 O.2       1 RES1    0.0000
      3 O3         5.1094    6.7027    4.2667 O.3       1 RES1    0.0000
      4 H1         5.5051    6.7989    3.5556 H         1 RES1    0.0000
      5 N1         3.0475    6.0189    7.6116 N.am      1 RES1    0.0000
      6 N2         4.0512    5.7893    4.0950 N.2       1 RES1    0.0000
      7 C1         2.2482    4.7176    5.1877 C.3       1 RES1    0.0000
      8 H2         2.3337    4.0447    5.8948 H         1 RES1    0.0000
      9 C2         1.8099    4.0658    3.8651 C.3       1 RES1    0.0000
     10 H3         1.8726    3.0978    3.8711 H         1 RES1    0.0000
     11 H4         2.2570    4.4333    3.0865 H         1 RES1    0.0000
     12 C3         0.3618    4.5940    4.0541 C.3       1 RES1    0.0000
     13 C4         0.8736    5.4281    5.2692 C.3       1 RES1    0.0000
     14 H5         0.9183    6.3807    5.0957 H         1 RES1    0.0000
     15 H6         0.3932    5.2498    6.0920 H         1 RES1    0.0000
     16 C5         2.0338    6.8377    8.1162 C.2       1 RES1    0.0000
     17 C6         1.5758    6.1904    9.3802 C.ar      1 RES1    0.0000
     18 C7         0.6280    6.5802   10.2846 C.ar      1 RES1    0.0000
     19 H7         0.1312    7.3579   10.1665 H         1 RES1    0.0000
     20 C8         0.4392    5.7597   11.3884 C.ar      1 RES1    0.0000
     21 H8        -0.1969    5.9962   12.0242 H         1 RES1    0.0000
     22 C9         1.1630    4.6151   11.5657 C.ar      1 RES1    0.0000
     23 H9         1.0049    4.0875   12.3148 H         1 RES1    0.0000
     24 C10        2.1237    4.2253   10.6566 C.ar      1 RES1    0.0000
     25 H10        2.6133    3.4442   10.7747 H         1 RES1    0.0000
     26 C11        2.3299    5.0509    9.5546 C.ar      1 RES1    0.0000
     27 C12        3.2953    4.9387    8.4396 C.2       1 RES1    0.0000
     28 C13        3.8343    6.3528    6.4310 C.3       1 RES1    0.0000
     29 H11        4.7660    6.1551    6.6130 H         1 RES1    0.0000
     30 H12        3.7624    7.3066    6.2705 H         1 RES1    0.0000
     31 C14        3.4175    5.6173    5.1779 C.2       1 RES1    0.0000
     32 C15       -0.5907    3.4915    4.5035 C.3       1 RES1    0.0000
     33 H13       -0.1833    2.9844    5.2099 H         1 RES1    0.0000
     34 H14       -0.7827    2.9115    3.7631 H         1 RES1    0.0000
     35 H15       -1.4070    3.8835    4.8217 H         1 RES1    0.0000
     36 C16       -0.1978    5.4537    2.9360 C.ar      1 RES1    0.0000
     37 C17       -1.5500    5.5409    2.6703 C.ar      1 RES1    0.0000
     38 H16       -2.1375    4.9968    3.1446 H         1 RES1    0.0000
     39 C18       -2.0589    6.4058    1.7284 C.ar      1 RES1    0.0000
     40 H17       -2.9372    6.3232    1.4343 H         1 RES1    0.0000
     41 C19       -1.2443    7.3955    1.2288 C.ar      1 RES1    0.0000
     42 H18       -1.5965    8.0729    0.6974 H         1 RES1    0.0000
     43 C20        0.0893    7.3670    1.5235 C.ar      1 RES1    0.0000
     44 H19        0.6668    7.9772    1.1250 H         1 RES1    0.0000
     45 C21        0.5907    6.4098    2.4410 C.ar      1 RES1    0.0000
     46 H20        1.4816    6.4503    2.7025 H         1 RES1    0.0000
     47 C22       -1.1604    6.8941    0.7369 Du        2 SUP2    0.0000
     48 H21       -1.4836    7.2815   -0.0436 Du        2 SUP2    0.0000
     49 C23        0.1199    6.7915    0.9444 Du        2 SUP2    0.0000
     50 H22        0.7004    7.2080    0.3508 Du        2 SUP2    0.0000
     51 C24        0.6440    6.1078    1.9905 Du        2 SUP2    0.0000
     52 H23        1.5669    6.0622    2.0922 Du        2 SUP2    0.0000
@<TRIPOS>BOND
     1    1   16 2
     2    2   27 2
     3    3    4 1
     4    5   16 1
     5    6    3 1
     6    7    8 1
     7    9    7 1
     8   10    9 1
     9   11    9 1
    10   12    9 1
    11   13    7 1
    12   14   13 1
    13   15   13 1
    14   16   17 1
    15   17   18 ar
    16   18   19 1
    17   20   18 ar
    18   21   20 1
    19   22   20 ar
    20   23   22 1
    21   24   22 ar
    22   25   24 1
    23   26   17 ar
    24   27    5 1
    25   28    5 1
    26   29   28 1
    27   30   28 1
    28   31    6 2
    29   32   12 1
    30   33   32 1
    31   34   32 1
    32   35   32 1
    33   36   12 1
    34   37   36 ar
    35   38   37 1
    36   39   37 ar
    37   40   39 1
    38   41   39 ar
    39   42   41 1
    40   43   41 ar
    41   44   43 1
    42   45   36 ar
    43   46   45 1
    44    7   31 1
    45   12   13 1
    46   24   26 ar
    47   26   27 1
    48   28   31 1
    49   43   45 ar
@<TRIPOS>SUBSTRUCTURE
     1 RES1 1
     2 SUP2 47

@<TRIPOS>CRYSIN
  14.6497    5.6976   21.9650  90.0000 109.0950  90.0000  14 1

