# MOL2 file generated by ConQuest
# Please check atom types

@<TRIPOS>MOLECULE
UNOZIH
   164   170     2
SMALL
NO_CHARGES
****
Generated from CSD

@<TRIPOS>ATOM
      1 O1         8.7514    4.8342   13.8876 O.3       1 RES1    0.0000
      2 O2        14.8820    6.2628   12.7643 O.3       1 RES1    0.0000
      3 O3        16.0911    7.8101   11.6778 O.2       1 RES1    0.0000
      4 N1        10.0481    5.1433   13.3896 N.2       1 RES1    0.0000
      5 C1        10.0355    5.6011   12.2052 C.2       1 RES1    0.0000
      6 C2        11.3537    5.9402   11.5659 C.3       1 RES1    0.0000
      7 H1        11.2661    6.8771   11.2250 H         1 RES1    0.0000
      8 C3        12.5486    5.9421   12.5291 C.3       1 RES1    0.0000
      9 H2        12.3587    6.5390   13.2952 H         1 RES1    0.0000
     10 H3        12.6973    5.0284   12.8782 H         1 RES1    0.0000
     11 C4        13.7865    6.4192   11.8056 C.3       1 RES1    0.0000
     12 H4        13.6866    7.3822   11.5547 H         1 RES1    0.0000
     13 C5        14.0754    5.5924   10.5727 C.3       1 RES1    0.0000
     14 H5        14.3163    4.6720   10.8454 H         1 RES1    0.0000
     15 H6        14.8485    5.9807   10.0913 H         1 RES1    0.0000
     16 C6        12.8612    5.5403    9.6263 C.3       1 RES1    0.0000
     17 H7        13.0749    4.9472    8.8626 H         1 RES1    0.0000
     18 H8        12.6972    6.4482    9.2672 H         1 RES1    0.0000
     19 C7        11.5769    5.0342   10.3080 C.3       1 RES1    0.0000
     20 C8        15.9855    6.9959   12.5568 C.2       1 RES1    0.0000
     21 C9        17.0548    6.6414   13.5444 C.3       1 RES1    0.0000
     22 H9        17.8873    7.1002   13.3052 H         1 RES1    0.0000
     23 H10       17.2013    5.6716   13.5325 H         1 RES1    0.0000
     24 H11       16.7760    6.9186   14.4414 H         1 RES1    0.0000
     25 C10       11.7325    3.5622   10.7291 C.3       1 RES1    0.0000
     26 H12       12.4354    3.4897   11.4073 H         1 RES1    0.0000
     27 H13       11.9757    3.0232    9.9489 H         1 RES1    0.0000
     28 H14       10.8852    3.2367   11.1002 H         1 RES1    0.0000
     29 C11       10.3534    5.2196    9.3638 C.3       1 RES1    0.0000
     30 H15       10.3507    6.1807    9.0899 H         1 RES1    0.0000
     31 C12       10.4525    4.3967    8.0673 C.3       1 RES1    0.0000
     32 H16       10.5169    3.4366    8.3008 H         1 RES1    0.0000
     33 H17       11.2834    4.6478    7.5916 H         1 RES1    0.0000
     34 C13        9.2510    4.6005    7.1173 C.3       1 RES1    0.0000
     35 H18        9.2555    5.5306    6.7800 H         1 RES1    0.0000
     36 H19        9.3425    3.9939    6.3405 H         1 RES1    0.0000
     37 C14        7.9233    4.3242    7.8203 C.3       1 RES1    0.0000
     38 C15        7.8717    5.2235    9.0672 C.3       1 RES1    0.0000
     39 H20        7.9903    6.1633    8.7453 H         1 RES1    0.0000
     40 C16        9.0023    4.9569   10.0581 C.3       1 RES1    0.0000
     41 H21        8.9671    3.9929   10.3185 H         1 RES1    0.0000
     42 C17        8.8378    5.8011   11.3259 C.3       1 RES1    0.0000
     43 H22        8.7544    6.7573   11.0852 H         1 RES1    0.0000
     44 H23        8.0179    5.5287   11.8069 H         1 RES1    0.0000
     45 C18        7.8000    2.8291    8.1812 C.3       1 RES1    0.0000
     46 H24        6.9435    2.6707    8.6279 H         1 RES1    0.0000
     47 H25        8.5328    2.5760    8.7802 H         1 RES1    0.0000
     48 H26        7.8461    2.2911    7.3643 H         1 RES1    0.0000
     49 C19        6.6292    4.7927    7.0829 C.3       1 RES1    0.0000
     50 H27        6.8124    5.6958    6.6926 H         1 RES1    0.0000
     51 C20        5.6099    4.9791    8.2423 C.3       1 RES1    0.0000
     52 H28        5.0664    5.7943    8.0935 H         1 RES1    0.0000
     53 H29        5.0007    4.2006    8.2933 H         1 RES1    0.0000
     54 C21        6.4271    5.1095    9.5546 C.3       1 RES1    0.0000
     55 H30        6.1583    5.9160   10.0613 H         1 RES1    0.0000
     56 H31        6.3080    4.3117   10.1287 H         1 RES1    0.0000
     57 C22        6.0676    3.9022    5.9524 C.3       1 RES1    0.0000
     58 H32        5.8812    3.0000    6.3405 H         1 RES1    0.0000
     59 C23        7.0585    3.7167    4.7927 C.3       1 RES1    0.0000
     60 H33        6.6029    3.2888    4.0380 H         1 RES1    0.0000
     61 H34        7.8040    3.1526    5.0868 H         1 RES1    0.0000
     62 H35        7.4024    4.5918    4.5125 H         1 RES1    0.0000
     63 C24        4.7417    4.4653    5.4220 C.3       1 RES1    0.0000
     64 H36        4.2135    4.8062    6.1856 H         1 RES1    0.0000
     65 H37        4.9372    5.2312    4.8271 H         1 RES1    0.0000
     66 C25        3.8927    3.4540    4.6538 C.3       1 RES1    0.0000
     67 H38        3.8394    2.6146    5.1767 H         1 RES1    0.0000
     68 H39        4.3379    3.2483    3.7933 H         1 RES1    0.0000
     69 C26        2.4763    3.9591    4.3749 C.3       1 RES1    0.0000
     70 H40        2.1160    4.3581    5.2067 H         1 RES1    0.0000
     71 H41        2.5277    4.6778    3.6959 H         1 RES1    0.0000
     72 C27        1.5022    2.9025    3.8847 C.3       1 RES1    0.0000
     73 H42        1.5266    2.1443    4.5350 H         1 RES1    0.0000
     74 C28        0.0789    3.4501    3.8712 C.3       1 RES1    0.0000
     75 H43       -0.1684    3.7418    4.7747 H         1 RES1    0.0000
     76 H44       -0.5389    2.7489    3.5735 H         1 RES1    0.0000
     77 H45        0.0272    4.2122    3.2564 H         1 RES1    0.0000
     78 C29        1.8618    2.3442    2.5187 C.3       1 RES1    0.0000
     79 H46        2.7457    1.9240    2.5597 H         1 RES1    0.0000
     80 H47        1.8753    3.0715    1.8629 H         1 RES1    0.0000
     81 H48        1.1955    1.6768    2.2525 H         1 RES1    0.0000
     82 H49        9.0266    4.6362   14.8110 H         1 RES1    0.0000
     83 O4        11.4272    4.7657   15.7188 O.3       2 RES2    0.0000
     84 O5         5.2632    3.8587   17.4661 O.3       2 RES2    0.0000
     85 O6         5.0296    5.9991   16.8265 O.2       2 RES2    0.0000
     86 N2        10.1513    4.6053   16.3129 N.2       2 RES2    0.0000
     87 C30        7.6572    4.3011   17.4429 C.3       2 RES2    0.0000
     88 H50        7.5669    5.0216   16.7714 H         2 RES2    0.0000
     89 H51        7.7821    3.4453   16.9611 H         2 RES2    0.0000
     90 C31        6.3997    4.2306   18.2837 C.3       2 RES2    0.0000
     91 H52        6.2299    5.1240   18.6992 H         2 RES2    0.0000
     92 C32        6.5093    3.1884   19.3712 C.3       2 RES2    0.0000
     93 H53        6.5865    2.2901   18.9614 H         2 RES2    0.0000
     94 H54        5.6896    3.2029   19.9253 H         2 RES2    0.0000
     95 C33        7.7283    3.4492   20.2565 C.3       2 RES2    0.0000
     96 H55        7.7958    2.7267   20.9292 H         2 RES2    0.0000
     97 H56        7.5964    4.3020   20.7419 H         2 RES2    0.0000
     98 C34        9.0452    3.5216   19.4694 C.3       2 RES2    0.0000
     99 C35        8.8762    4.5744   18.3294 C.3       2 RES2    0.0000
    100 H57        8.7065    5.4514   18.7791 H         2 RES2    0.0000
    101 C36        4.6738    4.8468   16.7576 C.2       2 RES2    0.0000
    102 C37        3.5442    4.3223   15.9193 C.3       2 RES2    0.0000
    103 H58        2.9396    5.0583   15.6876 H         2 RES2    0.0000
    104 H59        3.0510    3.6414   16.4242 H         2 RES2    0.0000
    105 H60        3.9038    3.9244   15.0982 H         2 RES2    0.0000
    106 C38        9.3820    2.1452   18.8753 C.3       2 RES2    0.0000
    107 H61        9.6759    1.5435   19.5907 H         2 RES2    0.0000
    108 H62       10.0988    2.2408   18.2148 H         2 RES2    0.0000
    109 H63        8.5856    1.7724   18.4420 H         2 RES2    0.0000
    110 C39       10.2080    4.0229   20.3813 C.3       2 RES2    0.0000
    111 H64        9.9724    4.9598   20.6396 H         2 RES2    0.0000
    112 C40       10.3638    3.2531   21.6839 C.3       2 RES2    0.0000
    113 H65       10.5292    2.2998   21.4736 H         2 RES2    0.0000
    114 H66        9.5129    3.3052   22.1878 H         2 RES2    0.0000
    115 C41       11.5035    3.7689   22.5799 C.3       2 RES2    0.0000
    116 H67       11.2914    4.6864   22.8846 H         2 RES2    0.0000
    117 H68       11.5793    3.1903   23.3790 H         2 RES2    0.0000
    118 C42       12.8375    3.7785   21.8310 C.3       2 RES2    0.0000
    119 C43       12.6324    4.6275   20.5514 C.3       2 RES2    0.0000
    120 H69       12.3392    5.5326   20.8593 H         2 RES2    0.0000
    121 C44       11.5354    4.1146   19.6262 C.3       2 RES2    0.0000
    122 H70       11.7871    3.2000   19.3085 H         2 RES2    0.0000
    123 C45       11.3966    5.0400   18.4018 C.3       2 RES2    0.0000
    124 H71       11.3460    5.9788   18.7092 H         2 RES2    0.0000
    125 H72       12.2022    4.9492   17.8352 H         2 RES2    0.0000
    126 C46       10.1772    4.7270   17.5782 C.2       2 RES2    0.0000
    127 C47       13.3018    2.3519   21.5003 C.3       2 RES2    0.0000
    128 H73       12.6448    1.9231   20.9118 H         2 RES2    0.0000
    129 H74       13.3838    1.8342   22.3302 H         2 RES2    0.0000
    130 H75       14.1712    2.3867   21.0491 H         2 RES2    0.0000
    131 C48       14.0144    4.5850   22.4905 C.3       2 RES2    0.0000
    132 H76       13.6288    5.4408   22.8371 H         2 RES2    0.0000
    133 C49       14.9119    4.9424   21.2721 C.3       2 RES2    0.0000
    134 H77       15.2475    5.8697   21.3563 H         2 RES2    0.0000
    135 H78       15.6881    4.3300   21.2289 H         2 RES2    0.0000
    136 C50       14.0524    4.8004   19.9998 C.3       2 RES2    0.0000
    137 H79       14.1186    5.6098   19.4334 H         2 RES2    0.0000
    138 H80       14.3283    4.0113   19.4709 H         2 RES2    0.0000
    139 C51       14.8210    3.9514   23.6380 C.3       2 RES2    0.0000
    140 H81       15.3029    3.1517   23.2816 H         2 RES2    0.0000
    141 C52       13.9524    3.5061   24.8109 C.3       2 RES2    0.0000
    142 H82       13.3682    2.7730   24.5252 H         2 RES2    0.0000
    143 H83       13.4052    4.2595   25.1171 H         2 RES2    0.0000
    144 H84       14.5255    3.2000   25.5441 H         2 RES2    0.0000
    145 C53       15.8640    4.9714   24.1192 C.3       2 RES2    0.0000
    146 H85       16.3392    5.3259   23.3266 H         2 RES2    0.0000
    147 H86       15.3852    5.7296   24.5377 H         2 RES2    0.0000
    148 C54       16.9101    4.4614   25.1121 C.3       2 RES2    0.0000
    149 H87       16.4458    4.0693   25.8937 H         2 RES2    0.0000
    150 H88       17.4489    5.2264   25.4342 H         2 RES2    0.0000
    151 C55       17.8502    3.4057   24.5088 C.3       2 RES2    0.0000
    152 H89       17.3525    2.5557   24.4104 H         2 RES2    0.0000
    153 H90       18.1226    3.7022   23.6038 H         2 RES2    0.0000
    154 C56       19.1012    3.1468   25.3356 C.3       2 RES2    0.0000
    155 H91       18.8197    2.9710   26.2783 H         2 RES2    0.0000
    156 C57       20.0354    4.3407   25.3366 C.3       2 RES2    0.0000
    157 H92       20.8507    4.1166   25.8338 H         2 RES2    0.0000
    158 H93       19.5914    5.1027   25.7639 H         2 RES2    0.0000
    159 H94       20.2680    4.5734   24.4129 H         2 RES2    0.0000
    160 C58       19.8250    1.9192   24.8224 C.3       2 RES2    0.0000
    161 H95       20.6273    1.7627   25.3643 H         2 RES2    0.0000
    162 H96       20.0844    2.0593   23.8884 H         2 RES2    0.0000
    163 H97       19.2322    1.1407   24.8848 H         2 RES2    0.0000
    164 H98       11.1450    4.9067   14.8235 H         2 RES2    0.0000
@<TRIPOS>BOND
     1    1    4 1
     2    2   11 1
     3    3   20 2
     4    4    5 2
     5    5    6 1
     6    6    7 1
     7    8    6 1
     8    9    8 1
     9   10    8 1
    10   11    8 1
    11   12   11 1
    12   13   11 1
    13   14   13 1
    14   15   13 1
    15   16   13 1
    16   17   16 1
    17   18   16 1
    18   19    6 1
    19   20    2 1
    20   21   20 1
    21   22   21 1
    22   23   21 1
    23   24   21 1
    24   25   19 1
    25   26   25 1
    26   27   25 1
    27   28   25 1
    28   29   19 1
    29   30   29 1
    30   31   29 1
    31   32   31 1
    32   33   31 1
    33   34   31 1
    34   35   34 1
    35   36   34 1
    36   37   34 1
    37   38   37 1
    38   39   38 1
    39   40   29 1
    40   41   40 1
    41   42    5 1
    42   43   42 1
    43   44   42 1
    44   45   37 1
    45   46   45 1
    46   47   45 1
    47   48   45 1
    48   49   37 1
    49   50   49 1
    50   51   49 1
    51   52   51 1
    52   53   51 1
    53   54   38 1
    54   55   54 1
    55   56   54 1
    56   57   49 1
    57   58   57 1
    58   59   57 1
    59   60   59 1
    60   61   59 1
    61   62   59 1
    62   63   57 1
    63   64   63 1
    64   65   63 1
    65   66   63 1
    66   67   66 1
    67   68   66 1
    68   69   66 1
    69   70   69 1
    70   71   69 1
    71   72   69 1
    72   73   72 1
    73   74   72 1
    74   75   74 1
    75   76   74 1
    76   77   74 1
    77   78   72 1
    78   79   78 1
    79   80   78 1
    80   81   78 1
    81   82    1 1
    82   83   86 1
    83   84   90 1
    84   85  101 2
    85   86  126 2
    86   87   88 1
    87   89   87 1
    88   90   87 1
    89   91   90 1
    90   92   90 1
    91   93   92 1
    92   94   92 1
    93   95   92 1
    94   96   95 1
    95   97   95 1
    96   98   95 1
    97   99   87 1
    98  100   99 1
    99  101   84 1
   100  102  101 1
   101  103  102 1
   102  104  102 1
   103  105  102 1
   104  106   98 1
   105  107  106 1
   106  108  106 1
   107  109  106 1
   108  110   98 1
   109  111  110 1
   110  112  110 1
   111  113  112 1
   112  114  112 1
   113  115  112 1
   114  116  115 1
   115  117  115 1
   116  118  115 1
   117  119  118 1
   118  120  119 1
   119  121  110 1
   120  122  121 1
   121  123  121 1
   122  124  123 1
   123  125  123 1
   124  126   99 1
   125  127  118 1
   126  128  127 1
   127  129  127 1
   128  130  127 1
   129  131  118 1
   130  132  131 1
   131  133  131 1
   132  134  133 1
   133  135  133 1
   134  136  119 1
   135  137  136 1
   136  138  136 1
   137  139  131 1
   138  140  139 1
   139  141  139 1
   140  142  141 1
   141  143  141 1
   142  144  141 1
   143  145  139 1
   144  146  145 1
   145  147  145 1
   146  148  145 1
   147  149  148 1
   148  150  148 1
   149  151  148 1
   150  152  151 1
   151  153  151 1
   152  154  151 1
   153  155  154 1
   154  156  154 1
   155  157  156 1
   156  158  156 1
   157  159  156 1
   158  160  154 1
   159  161  160 1
   160  162  160 1
   161  163  160 1
   162  164   83 1
   163   16   19 1
   164   38   40 1
   165   40   42 1
   166   51   54 1
   167   98   99 1
   168  119  121 1
   169  123  126 1
   170  133  136 1
@<TRIPOS>SUBSTRUCTURE
     1 RES1 1
     2 RES2 83

@<TRIPOS>CRYSIN
  11.3934    9.6588   25.0180  90.0000  93.4660  90.0000   4 1

