# MOL2 file generated by ConQuest
# Please check atom types

@<TRIPOS>MOLECULE
UNOZIH01
   164   170     2
SMALL
NO_CHARGES
****
Generated from CSD

@<TRIPOS>ATOM
      1 N1        10.8896   10.2693    3.8300 N.2       1 RES1    0.0000
      2 O1         5.7715   11.6569    4.3444 O.2       1 RES1    0.0000
      3 C1         4.2969    9.9870    3.4301 C.3       1 RES1    0.0000
      4 H1         3.6674   10.6927    3.2643 H         1 RES1    0.0000
      5 H2         3.8565    9.2668    3.8867 H         1 RES1    0.0000
      6 H3         4.6497    9.6689    2.5945 H         1 RES1    0.0000
      7 O2        12.1651   10.4324    3.2346 O.3       1 RES1    0.0000
      8 H4        11.8570   10.6240    2.3920 H         1 RES1    0.0000
      9 C2         5.4132   10.5051    4.2774 C.2       1 RES1    0.0000
     10 O3         6.0079    9.5168    4.9762 O.3       1 RES1    0.0000
     11 C3         7.1428    9.8969    5.8068 C.3       1 RES1    0.0000
     12 H5         6.9829   10.7884    6.1813 H         1 RES1    0.0000
     13 C4         8.4038    9.9668    4.9550 C.3       1 RES1    0.0000
     14 H6         8.4696    9.1256    4.4566 H         1 RES1    0.0000
     15 H7         8.3203   10.7014    4.2766 H         1 RES1    0.0000
     16 C5         9.6124   10.2301    5.8481 C.3       1 RES1    0.0000
     17 H8         9.4692   11.0397    6.2912 H         1 RES1    0.0000
     18 C6        10.9146   10.3942    5.1002 C.2       1 RES1    0.0000
     19 C7        12.1282   10.6985    5.9196 C.3       1 RES1    0.0000
     20 H9        12.0060   11.6487    6.2287 H         1 RES1    0.0000
     21 H10       12.9351   10.6530    5.3164 H         1 RES1    0.0000
     22 C8        12.2732    9.7830    7.1416 C.3       1 RES1    0.0000
     23 H11       12.5269    8.8936    6.8236 H         1 RES1    0.0000
     24 C9        10.9379    9.6842    7.9019 C.3       1 RES1    0.0000
     25 H12       10.7099   10.6627    8.1659 H         1 RES1    0.0000
     26 C10        9.7848    9.1842    6.9851 C.3       1 RES1    0.0000
     27 C11       10.1136    7.8073    6.3967 C.3       1 RES1    0.0000
     28 H13       10.3543    7.2058    7.1061 H         1 RES1    0.0000
     29 H14       10.8467    7.8883    5.7838 H         1 RES1    0.0000
     30 H15        9.3457    7.4649    5.9338 H         1 RES1    0.0000
     31 C12        8.4641    9.1063    7.7737 C.3       1 RES1    0.0000
     32 H16        8.3567    9.9763    8.2408 H         1 RES1    0.0000
     33 H17        8.5245    8.3910    8.4908 H         1 RES1    0.0000
     34 C13        7.2501    8.8463    6.8844 C.3       1 RES1    0.0000
     35 H18        7.3358    7.9753    6.5112 H         1 RES1    0.0000
     36 H19        6.4013    8.8163    7.4385 H         1 RES1    0.0000
     37 C14       11.0938    8.9091    9.2121 C.3       1 RES1    0.0000
     38 H20       10.2554    8.9903    9.7230 H         1 RES1    0.0000
     39 H21       11.2145    7.9366    9.0432 H         1 RES1    0.0000
     40 C15       12.2344    9.4282   10.0942 C.3       1 RES1    0.0000
     41 H22       12.0079   10.4017   10.4029 H         1 RES1    0.0000
     42 H23       12.2646    8.9226   10.9628 H         1 RES1    0.0000
     43 C16       13.5719    9.4492    9.3494 C.3       1 RES1    0.0000
     44 C17       13.3641   10.2896    8.0676 C.3       1 RES1    0.0000
     45 H24       13.0488   11.1751    8.3783 H         1 RES1    0.0000
     46 C18       14.0290    8.0168    9.0264 C.3       1 RES1    0.0000
     47 H25       13.3946    7.6041    8.4358 H         1 RES1    0.0000
     48 H26       14.0875    7.5093    9.8380 H         1 RES1    0.0000
     49 H27       14.8897    8.0439    8.6033 H         1 RES1    0.0000
     50 C19       14.7768   10.4674    7.5182 C.3       1 RES1    0.0000
     51 H28       15.0594    9.7153    6.9586 H         1 RES1    0.0000
     52 H29       14.8776   11.2524    7.0111 H         1 RES1    0.0000
     53 C20       15.6403   10.6057    8.7920 C.3       1 RES1    0.0000
     54 H30       16.4071    9.9763    8.7782 H         1 RES1    0.0000
     55 H31       15.9942   11.5907    8.8857 H         1 RES1    0.0000
     56 C21       14.7360   10.2457   10.0055 C.3       1 RES1    0.0000
     57 H32       14.3741   11.1461   10.3754 H         1 RES1    0.0000
     58 C22       15.5426    9.6225   11.1615 C.3       1 RES1    0.0000
     59 H33       16.0003    8.8550   10.8153 H         1 RES1    0.0000
     60 C23       14.6747    9.1749   12.3270 C.3       1 RES1    0.0000
     61 H34       14.1265    9.9077   12.6175 H         1 RES1    0.0000
     62 H35       15.2353    8.8869   13.0524 H         1 RES1    0.0000
     63 H36       14.1139    8.4470   12.0476 H         1 RES1    0.0000
     64 C24       16.5870   10.6337   11.6452 C.3       1 RES1    0.0000
     65 H37       17.0519   10.9807   10.8678 H         1 RES1    0.0000
     66 H38       16.1172   11.3771   12.0551 H         1 RES1    0.0000
     67 C25       17.6262   10.1368   12.6297 C.3       1 RES1    0.0000
     68 H39       17.1744    9.7559   13.3998 H         1 RES1    0.0000
     69 H40       18.1518   10.8908   12.9399 H         1 RES1    0.0000
     70 C26       18.5695    9.0831   12.0356 C.3       1 RES1    0.0000
     71 H41       18.0818    8.2508   11.9351 H         1 RES1    0.0000
     72 H42       18.8414    9.3731   11.1503 H         1 RES1    0.0000
     73 C27       19.8114    8.8221   12.8629 C.3       1 RES1    0.0000
     74 H43       19.5190    8.6520   13.8697 H         1 RES1    0.0000
     75 C28       20.7436   10.0131   12.8522 C.3       1 RES1    0.0000
     76 H44       21.5354    9.8043   13.3523 H         1 RES1    0.0000
     77 H45       20.3026   10.7671   13.2498 H         1 RES1    0.0000
     78 H46       20.9826   10.2238   11.9476 H         1 RES1    0.0000
     79 C29       20.5307    7.6050   12.3558 C.3       1 RES1    0.0000
     80 H47       20.8108    7.7529   11.4502 H         1 RES1    0.0000
     81 H48       19.9416    6.8481   12.3875 H         1 RES1    0.0000
     82 H49       21.3002    7.4359   12.9049 H         1 RES1    0.0000
     83 N2        -0.5895    1.1396    0.9046 N.2       2 RES2    0.0000
     84 O4         5.4501    3.8129   -0.8006 O.2       2 RES2    0.0000
     85 O5        -1.8861    0.8312    1.4040 O.3       2 RES2    0.0000
     86 H50       -1.6837    0.6574    2.2445 H         2 RES2    0.0000
     87 O6         4.2404    2.2682    0.2827 O.3       2 RES2    0.0000
     88 C30        6.4063    2.6391    1.0615 C.3       2 RES2    0.0000
     89 H51        7.2033    3.1427    0.8773 H         2 RES2    0.0000
     90 H52        6.5985    1.7014    0.9973 H         2 RES2    0.0000
     91 H53        6.0961    2.8421    1.9471 H         2 RES2    0.0000
     92 C31        5.3494    2.9999    0.0690 C.2       2 RES2    0.0000
     93 C32        3.1504    2.4210   -0.6776 C.3       2 RES2    0.0000
     94 H54        3.0508    3.4221   -0.8498 H         2 RES2    0.0000
     95 C33        1.9045    1.9410    0.0430 C.3       2 RES2    0.0000
     96 H55        2.0767    1.0344    0.4224 H         2 RES2    0.0000
     97 H56        1.6875    2.5328    0.7923 H         2 RES2    0.0000
     98 C34        0.7162    1.9364   -0.9166 C.3       2 RES2    0.0000
     99 H57        0.5588    2.8808   -1.2373 H         2 RES2    0.0000
    100 C35       -0.5995    1.6018   -0.2782 C.2       2 RES2    0.0000
    101 C36       -1.7950    1.7961   -1.1538 C.3       2 RES2    0.0000
    102 H58       -2.6125    1.5854   -0.7024 H         2 RES2    0.0000
    103 H59       -1.8670    2.6971   -1.3872 H         2 RES2    0.0000
    104 C37       -1.6324    0.9524   -2.4268 C.3       2 RES2    0.0000
    105 H60       -1.6961    0.0193   -2.1096 H         2 RES2    0.0000
    106 C38       -0.2741    1.2189   -3.1201 C.3       2 RES2    0.0000
    107 H61       -0.2548    2.2331   -3.3568 H         2 RES2    0.0000
    108 C39        0.9408    1.0348   -2.1698 C.3       2 RES2    0.0000
    109 C40        1.1027   -0.4370   -1.7591 C.3       2 RES2    0.0000
    110 H62        1.3427   -0.9590   -2.5270 H         2 RES2    0.0000
    111 H63        0.2751   -0.7618   -1.3972 H         2 RES2    0.0000
    112 H64        1.7914   -0.5104   -1.0948 H         2 RES2    0.0000
    113 C41        2.2277    1.5439   -2.8504 C.3       2 RES2    0.0000
    114 H65        2.4364    0.9648   -3.5993 H         2 RES2    0.0000
    115 H66        2.0660    2.4332   -3.2019 H         2 RES2    0.0000
    116 C42        3.4353    1.5941   -1.9141 C.3       2 RES2    0.0000
    117 H67        3.7287    0.6187   -1.6022 H         2 RES2    0.0000
    118 H68        4.2202    1.9527   -2.3020 H         2 RES2    0.0000
    119 C43       -0.1793    0.3992   -4.4166 C.3       2 RES2    0.0000
    120 H69       -0.0946   -0.5510   -4.1842 H         2 RES2    0.0000
    121 H70        0.6759    0.6670   -4.8865 H         2 RES2    0.0000
    122 C44       -1.3763    0.6048   -5.3599 C.3       2 RES2    0.0000
    123 H71       -1.2509    0.0387   -6.1538 H         2 RES2    0.0000
    124 H72       -1.3195    1.5661   -5.6864 H         2 RES2    0.0000
    125 C45       -2.7055    0.3192   -4.6646 C.3       2 RES2    0.0000
    126 C46       -2.7567    1.2148   -3.4146 C.3       2 RES2    0.0000
    127 H73       -2.6285    2.1557   -3.7442 H         2 RES2    0.0000
    128 C47       -2.8253   -1.1681   -4.3079 C.3       2 RES2    0.0000
    129 H74       -2.7876   -1.6937   -5.1115 H         2 RES2    0.0000
    130 H75       -3.6612   -1.3234   -3.8617 H         2 RES2    0.0000
    131 H76       -2.1016   -1.4172   -3.7267 H         2 RES2    0.0000
    132 C48       -4.2002    1.1011   -2.9294 C.3       2 RES2    0.0000
    133 H77       -4.3113    0.3287   -2.2695 H         2 RES2    0.0000
    134 H78       -4.4781    1.9334   -2.4070 H         2 RES2    0.0000
    135 C49       -5.0142    0.9706   -4.2344 C.3       2 RES2    0.0000
    136 H79       -5.6633    0.1643   -4.2216 H         2 RES2    0.0000
    137 H80       -5.5533    1.8077   -4.3266 H         2 RES2    0.0000
    138 C50       -3.9945    0.7875   -5.3974 C.3       2 RES2    0.0000
    139 H81       -3.8079    1.7014   -5.8188 H         2 RES2    0.0000
    140 C51       -4.5499   -0.1006   -6.5297 C.3       2 RES2    0.0000
    141 H82       -4.7251   -0.9957   -6.1488 H         2 RES2    0.0000
    142 C52       -3.5621   -0.2861   -7.6872 C.3       2 RES2    0.0000
    143 H83       -4.0121   -0.6980   -8.4283 H         2 RES2    0.0000
    144 H84       -2.8363   -0.8459   -7.4010 H         2 RES2    0.0000
    145 H85       -3.2197    0.5694   -7.9559 H         2 RES2    0.0000
    146 C53       -5.8829    0.4579   -7.0583 C.3       2 RES2    0.0000
    147 H86       -6.4016    0.7869   -6.3087 H         2 RES2    0.0000
    148 H87       -5.6960    1.2122   -7.6385 H         2 RES2    0.0000
    149 C54       -6.7225   -0.5510   -7.8254 C.3       2 RES2    0.0000
    150 H88       -6.7754   -1.3737   -7.3135 H         2 RES2    0.0000
    151 H89       -6.2844   -0.7531   -8.6683 H         2 RES2    0.0000
    152 C55       -8.1392   -0.0464   -8.1076 C.3       2 RES2    0.0000
    153 H90       -8.4971    0.3393   -7.2935 H         2 RES2    0.0000
    154 H91       -8.0876    0.6632   -8.7657 H         2 RES2    0.0000
    155 C56       -9.1107   -1.0982   -8.6090 C.3       2 RES2    0.0000
    156 H92       -9.0583   -1.8464   -7.9909 H         2 RES2    0.0000
    157 C57       -8.7390   -1.6502   -9.9712 C.3       2 RES2    0.0000
    158 H93       -9.3808   -2.3143  -10.2329 H         2 RES2    0.0000
    159 H94       -7.8669   -2.0475   -9.9280 H         2 RES2    0.0000
    160 H95       -8.7348   -0.9377  -10.6154 H         2 RES2    0.0000
    161 C58      -10.5369   -0.5617   -8.6225 C.3       2 RES2    0.0000
    162 H96      -10.5876    0.1972   -9.2081 H         2 RES2    0.0000
    163 H97      -10.7878   -0.2958   -7.7334 H         2 RES2    0.0000
    164 H98      -11.1338   -1.2461   -8.9307 H         2 RES2    0.0000
@<TRIPOS>BOND
     1    1    7 1
     2    2    9 2
     3    3    4 1
     4    5    3 1
     5    6    3 1
     6    7    8 1
     7    9    3 1
     8   10    9 1
     9   11   10 1
    10   12   11 1
    11   13   11 1
    12   14   13 1
    13   15   13 1
    14   16   13 1
    15   17   16 1
    16   18    1 2
    17   19   18 1
    18   20   19 1
    19   21   19 1
    20   22   19 1
    21   23   22 1
    22   24   22 1
    23   25   24 1
    24   26   16 1
    25   27   26 1
    26   28   27 1
    27   29   27 1
    28   30   27 1
    29   31   26 1
    30   32   31 1
    31   33   31 1
    32   34   11 1
    33   35   34 1
    34   36   34 1
    35   37   24 1
    36   38   37 1
    37   39   37 1
    38   40   37 1
    39   41   40 1
    40   42   40 1
    41   43   40 1
    42   44   22 1
    43   45   44 1
    44   46   43 1
    45   47   46 1
    46   48   46 1
    47   49   46 1
    48   50   44 1
    49   51   50 1
    50   52   50 1
    51   53   50 1
    52   54   53 1
    53   55   53 1
    54   56   43 1
    55   57   56 1
    56   58   56 1
    57   59   58 1
    58   60   58 1
    59   61   60 1
    60   62   60 1
    61   63   60 1
    62   64   58 1
    63   65   64 1
    64   66   64 1
    65   67   64 1
    66   68   67 1
    67   69   67 1
    68   70   67 1
    69   71   70 1
    70   72   70 1
    71   73   70 1
    72   74   73 1
    73   75   73 1
    74   76   75 1
    75   77   75 1
    76   78   75 1
    77   79   73 1
    78   80   79 1
    79   81   79 1
    80   82   79 1
    81   83   85 1
    82   84   92 2
    83   85   86 1
    84   87   92 1
    85   88   89 1
    86   90   88 1
    87   91   88 1
    88   92   88 1
    89   93   87 1
    90   94   93 1
    91   95   93 1
    92   96   95 1
    93   97   95 1
    94   98   95 1
    95   99   98 1
    96  100   83 2
    97  101  100 1
    98  102  101 1
    99  103  101 1
   100  104  101 1
   101  105  104 1
   102  106  104 1
   103  107  106 1
   104  108   98 1
   105  109  108 1
   106  110  109 1
   107  111  109 1
   108  112  109 1
   109  113  108 1
   110  114  113 1
   111  115  113 1
   112  116   93 1
   113  117  116 1
   114  118  116 1
   115  119  106 1
   116  120  119 1
   117  121  119 1
   118  122  119 1
   119  123  122 1
   120  124  122 1
   121  125  122 1
   122  126  104 1
   123  127  126 1
   124  128  125 1
   125  129  128 1
   126  130  128 1
   127  131  128 1
   128  132  126 1
   129  133  132 1
   130  134  132 1
   131  135  132 1
   132  136  135 1
   133  137  135 1
   134  138  125 1
   135  139  138 1
   136  140  138 1
   137  141  140 1
   138  142  140 1
   139  143  142 1
   140  144  142 1
   141  145  142 1
   142  146  140 1
   143  147  146 1
   144  148  146 1
   145  149  146 1
   146  150  149 1
   147  151  149 1
   148  152  149 1
   149  153  152 1
   150  154  152 1
   151  155  152 1
   152  156  155 1
   153  157  155 1
   154  158  157 1
   155  159  157 1
   156  160  157 1
   157  161  155 1
   158  162  161 1
   159  163  161 1
   160  164  161 1
   161   16   18 1
   162   24   26 1
   163   31   34 1
   164   43   44 1
   165   53   56 1
   166   98  100 1
   167  106  108 1
   168  113  116 1
   169  125  126 1
   170  135  138 1
@<TRIPOS>SUBSTRUCTURE
     1 RES1 1
     2 RES2 83

@<TRIPOS>CRYSIN
  11.3788    9.6670   25.0425  90.0000  93.5310  90.0000   4 1

