# MOL2 file generated by ConQuest
# Please check atom types

@<TRIPOS>MOLECULE
UNUFOZ
    28    28     1
SMALL
NO_CHARGES
****
Generated from CSD

@<TRIPOS>ATOM
      1 O1         1.6566    3.6982    1.5517 O.3       1 RES1    0.0000
      2 C1         0.7647    3.1623    0.6834 C.ar      1 RES1    0.0000
      3 C2         0.5047    3.9181   -0.4699 C.ar      1 RES1    0.0000
      4 H1         0.9621    4.7381   -0.6130 H         1 RES1    0.0000
      5 C3        -0.4161    3.4713   -1.3966 C.ar      1 RES1    0.0000
      6 H2        -0.6016    3.9816   -2.1768 H         1 RES1    0.0000
      7 C4        -1.0673    2.2638   -1.1710 C.ar      1 RES1    0.0000
      8 N1        -2.0477    1.7917   -2.1383 N.pl3     1 RES1    0.0000
      9 O2        -2.2666    2.4588   -3.1423 O.2       1 RES1    0.0000
     10 O3        -2.6304    0.7266   -1.9059 O.2       1 RES1    0.0000
     11 C5        -0.8145    1.4991   -0.0452 C.ar      1 RES1    0.0000
     12 H3        -1.2701    0.6768    0.0864 H         1 RES1    0.0000
     13 C6         0.1096    1.9440    0.8889 C.ar      1 RES1    0.0000
     14 H4         0.2961    1.4248    1.6621 H         1 RES1    0.0000
     15 C7         1.9912    2.9319    2.7342 C.3       1 RES1    0.0000
     16 H5         2.4101    2.0725    2.4778 H         1 RES1    0.0000
     17 H6         1.1748    2.7402    3.2597 H         1 RES1    0.0000
     18 C8         2.9567    3.7606    3.5515 C.3       1 RES1    0.0000
     19 H7         3.7240    4.0141    2.9805 H         1 RES1    0.0000
     20 H8         3.3046    3.2061    4.2949 H         1 RES1    0.0000
     21 C9         2.3330    5.0254    4.1293 C.3       1 RES1    0.0000
     22 H9         2.0111    5.5926    3.3849 H         1 RES1    0.0000
     23 H10        1.5484    4.7746    4.6784 H         1 RES1    0.0000
     24 C10        3.2909    5.8316    4.9821 C.3       1 RES1    0.0000
     25 H11        4.1107    6.0386    4.4678 H         1 RES1    0.0000
     26 H12        2.8679    6.6846    5.2527 H         1 RES1    0.0000
     27 O4         3.6201    5.0640    6.1345 O.3       1 RES1    0.0000
     28 H13        4.1613    5.4699    6.5671 H         1 RES1    0.0000
@<TRIPOS>BOND
     1    1    2 1
     2    2    3 ar
     3    3    4 1
     4    5    3 ar
     5    6    5 1
     6    7    5 ar
     7    8    7 1
     8    9    8 2
     9   10    8 2
    10   11    7 ar
    11   12   11 1
    12   13    2 ar
    13   14   13 1
    14   15    1 1
    15   16   15 1
    16   17   15 1
    17   18   15 1
    18   19   18 1
    19   20   18 1
    20   21   18 1
    21   22   21 1
    22   23   21 1
    23   24   21 1
    24   25   24 1
    25   26   24 1
    26   27   24 1
    27   28   27 1
    28   11   13 ar
@<TRIPOS>SUBSTRUCTURE
     1 RES1 1

@<TRIPOS>CRYSIN
   4.7971   10.6035   11.2523 117.5210  92.4510  94.9710   2 1

