# MOL2 file generated by ConQuest
# Please check atom types

@<TRIPOS>MOLECULE
UNUJUJ
    26    26     1
SMALL
NO_CHARGES
****
Generated from CSD

@<TRIPOS>ATOM
      1 C1        -0.3206    6.8206    2.5880 C.ar      1 RES1    0.0000
      2 H1        -0.9986    6.1851    2.6185 H         1 RES1    0.0000
      3 N1        -0.6517    6.9760    0.1596 N.pl3     1 RES1    0.0000
      4 O1        -0.2042    7.3641   -0.8987 O.2       1 RES1    0.0000
      5 N2         2.7203    9.7510    2.4033 N.pl3     1 RES1    0.0000
      6 C2         0.0451    7.3985    1.3932 C.ar      1 RES1    0.0000
      7 O2        -1.6235    6.2416    0.2743 O.2       1 RES1    0.0000
      8 N3         0.8062    6.4415    5.9867 N.am      1 RES1    0.0000
      9 H2         1.6013    6.7347    5.8407 H         1 RES1    0.0000
     10 C3         1.0257    8.3625    1.2977 C.ar      1 RES1    0.0000
     11 H3         1.2501    8.7506    0.4819 H         1 RES1    0.0000
     12 O3         2.9519   10.2756    1.3323 O.2       1 RES1    0.0000
     13 C4         1.6593    8.7255    2.4694 C.ar      1 RES1    0.0000
     14 O4         3.3415    9.9984    3.4164 O.2       1 RES1    0.0000
     15 O5        -1.2892    6.2520    5.1605 O.2       1 RES1    0.0000
     16 C5         1.3524    8.1628    3.6852 C.ar      1 RES1    0.0000
     17 H4         1.8110    8.4182    4.4527 H         1 RES1    0.0000
     18 C6         0.3439    7.2052    3.7514 C.ar      1 RES1    0.0000
     19 C7        -0.1099    6.5863    5.0375 C.2       1 RES1    0.0000
     20 C8         0.5200    5.8060    7.2633 C.3       1 RES1    0.0000
     21 H5        -0.4064    5.9690    7.5006 H         1 RES1    0.0000
     22 H6         1.0781    6.2034    7.9500 H         1 RES1    0.0000
     23 C9         0.7646    4.3325    7.2245 C.3       1 RES1    0.0000
     24 H7         0.5585    3.9521    8.0812 H         1 RES1    0.0000
     25 H8         1.6866    4.1668    7.0135 H         1 RES1    0.0000
     26 H9         0.2060    3.9337    6.5536 H         1 RES1    0.0000
@<TRIPOS>BOND
     1    1    2 1
     2    3    4 2
     3    5   12 2
     4    6    1 ar
     5    7    3 2
     6    8    9 1
     7   10    6 ar
     8   11   10 1
     9   13    5 1
    10   14    5 2
    11   15   19 2
    12   16   13 ar
    13   17   16 1
    14   18    1 ar
    15   19    8 1
    16   20    8 1
    17   21   20 1
    18   22   20 1
    19   23   20 1
    20   24   23 1
    21   25   23 1
    22   26   23 1
    23    3    6 1
    24   10   13 ar
    25   16   18 ar
    26   18   19 1
@<TRIPOS>SUBSTRUCTURE
     1 RES1 1

@<TRIPOS>CRYSIN
   4.8540   10.4880   10.8510 101.4900  97.8400  95.2500   2 1

