# MOL2 file generated by ConQuest
# Please check atom types

@<TRIPOS>MOLECULE
UNUXOS
    24    25     1
SMALL
NO_CHARGES
****
Generated from CSD

@<TRIPOS>ATOM
      1 N1        -0.8427   14.4564   -0.0795 N.2       1 RES1    0.0000
      2 N2        -0.0439   15.3333    0.6408 N.2       1 RES1    0.0000
      3 C1         0.8803   14.6180    1.1950 C.2       1 RES1    0.0000
      4 H1         1.5692   14.9612    1.7522 H         1 RES1    0.0000
      5 N3         0.7277   13.3051    0.8689 N.pl3     1 RES1    0.0000
      6 C2        -0.3514   13.2639    0.0846 C.2       1 RES1    0.0000
      7 H2        -0.7106   12.4738   -0.3003 H         1 RES1    0.0000
      8 N4         1.4290   12.1450    1.2094 N.2       1 RES1    0.0000
      9 C3         2.4368   12.2818    1.9731 C.2       1 RES1    0.0000
     10 H3         2.6735   13.1455    2.2878 H         1 RES1    0.0000
     11 C4         3.2303   11.1303    2.3704 C.ar      1 RES1    0.0000
     12 C5         4.3377   11.3324    3.2166 C.ar      1 RES1    0.0000
     13 C6         5.1236   10.2448    3.6098 C.ar      1 RES1    0.0000
     14 H4         5.8705   10.3817    4.1804 H         1 RES1    0.0000
     15 C7         4.8153    8.9751    3.1701 C.ar      1 RES1    0.0000
     16 H5         5.3553    8.2347    3.4209 H         1 RES1    0.0000
     17 C8         3.7068    8.7913    2.3570 C.ar      1 RES1    0.0000
     18 C9         2.9154    9.8421    1.9535 C.ar      1 RES1    0.0000
     19 H6         2.1614    9.6880    1.3962 H         1 RES1    0.0000
     20 O1         4.5969   12.5876    3.5932 O.3       1 RES1    0.0000
     21 H7         5.2871   12.6001    4.0721 H         1 RES1    0.0000
     22 N5         3.3629    7.4513    1.9101 N.pl3     1 RES1    0.0000
     23 O2         2.2686    7.2805    1.3704 O.2       1 RES1    0.0000
     24 O3         4.1760    6.5438    2.1010 O.2       1 RES1    0.0000
@<TRIPOS>BOND
     1    1    2 1
     2    2    3 2
     3    3    4 1
     4    5    3 1
     5    6    1 2
     6    7    6 1
     7    8    5 1
     8    9    8 2
     9   10    9 1
    10   11    9 1
    11   12   11 ar
    12   13   12 ar
    13   14   13 1
    14   15   13 ar
    15   16   15 1
    16   17   15 ar
    17   18   11 ar
    18   19   18 1
    19   20   12 1
    20   21   20 1
    21   22   17 1
    22   23   22 2
    23   24   22 2
    24    5    6 1
    25   17   18 ar
@<TRIPOS>SUBSTRUCTURE
     1 RES1 1

@<TRIPOS>CRYSIN
   5.3288   18.3034   10.3561  90.0000  94.8190  90.0000 231 1

