# MOL2 file generated by ConQuest
# Please check atom types

@<TRIPOS>MOLECULE
UNUZAF
    41    44     1
SMALL
NO_CHARGES
****
Generated from CSD

@<TRIPOS>ATOM
      1 C1         4.0316    1.6696    1.1968 C.ar      1 RES1    0.0000
      2 C2         4.5230    2.8341    1.7585 C.ar      1 RES1    0.0000
      3 H1         4.8189    2.8394    2.6402 H         1 RES1    0.0000
      4 C3         4.5723    3.9801    1.0088 C.ar      1 RES1    0.0000
      5 H2         4.9140    4.7610    1.3811 H         1 RES1    0.0000
      6 C4         4.1201    3.9844   -0.2905 C.ar      1 RES1    0.0000
      7 H3         4.1678    4.7623   -0.7987 H         1 RES1    0.0000
      8 C5         3.5975    2.8354   -0.8342 C.ar      1 RES1    0.0000
      9 H4         3.2670    2.8511   -1.7028 H         1 RES1    0.0000
     10 C6         3.5541    1.6462   -0.1054 C.ar      1 RES1    0.0000
     11 C7         2.9398    0.4070   -0.6898 C.3       1 RES1    0.0000
     12 H5         2.0723    0.6166   -1.0949 H         1 RES1    0.0000
     13 C8         2.7913   -0.7333    0.3288 C.3       1 RES1    0.0000
     14 C9         3.9627   -0.6641    1.3114 C.3       1 RES1    0.0000
     15 H6         3.8900   -1.3923    1.9480 H         1 RES1    0.0000
     16 H7         4.7956   -0.7731    0.8253 H         1 RES1    0.0000
     17 C10        2.9175   -2.0155   -0.5710 C.3       1 RES1    0.0000
     18 H8         3.7264   -2.5070   -0.3195 H         1 RES1    0.0000
     19 C11        1.7426   -2.9491   -0.5417 C.ar      1 RES1    0.0000
     20 C12        0.5923   -2.6050   -1.2347 C.ar      1 RES1    0.0000
     21 H9         0.5873   -1.8395   -1.7627 H         1 RES1    0.0000
     22 C13       -0.5419   -3.3786   -1.1524 C.ar      1 RES1    0.0000
     23 H10       -1.3075   -3.1380   -1.6218 H         1 RES1    0.0000
     24 C14       -0.5357   -4.5034   -0.3769 C.ar      1 RES1    0.0000
     25 H11       -1.3021   -5.0244   -0.3084 H         1 RES1    0.0000
     26 C15        0.5982   -4.8626    0.2976 C.ar      1 RES1    0.0000
     27 H12        0.5904   -5.6345    0.8153 H         1 RES1    0.0000
     28 C16        1.7614   -4.1078    0.2313 C.ar      1 RES1    0.0000
     29 C17        2.9726   -4.5747    0.9881 C.3       1 RES1    0.0000
     30 H13        3.6627   -4.8210    0.3672 H         1 RES1    0.0000
     31 H14        2.7400   -5.3347    1.5264 H         1 RES1    0.0000
     32 H15        3.2892   -3.8667    1.5530 H         1 RES1    0.0000
     33 C18        3.8525    0.3636   -2.9822 C.3       1 RES1    0.0000
     34 H16        4.2856   -0.2229   -3.6064 H         1 RES1    0.0000
     35 H17        4.3389    1.1890   -2.9297 H         1 RES1    0.0000
     36 H18        2.9561    0.5384   -3.2758 H         1 RES1    0.0000
     37 C19        1.5338   -0.6522    1.0754 C.1       1 RES1    0.0000
     38 N1         3.8187   -0.2622   -1.6747 N.3       1 RES1    0.0000
     39 N2         0.5909   -0.5894    1.7017 N.1       1 RES1    0.0000
     40 O1         3.9863    0.5648    2.0073 O.3       1 RES1    0.0000
     41 O2         3.0718   -1.5018   -1.8858 O.3       1 RES1    0.0000
@<TRIPOS>BOND
     1    1    2 ar
     2    2    3 1
     3    4    2 ar
     4    5    4 1
     5    6    4 ar
     6    7    6 1
     7    8    6 ar
     8    9    8 1
     9   10    1 ar
    10   11   10 1
    11   12   11 1
    12   13   11 1
    13   14   13 1
    14   15   14 1
    15   16   14 1
    16   17   13 1
    17   18   17 1
    18   19   17 1
    19   20   19 ar
    20   21   20 1
    21   22   20 ar
    22   23   22 1
    23   24   22 ar
    24   25   24 1
    25   26   24 ar
    26   27   26 1
    27   28   19 ar
    28   29   28 1
    29   30   29 1
    30   31   29 1
    31   32   29 1
    32   33   34 1
    33   35   33 1
    34   36   33 1
    35   37   13 1
    36   38   11 1
    37   39   37 3
    38   40    1 1
    39   41   17 1
    40    8   10 ar
    41   14   40 1
    42   26   28 ar
    43   33   38 1
    44   38   41 1
@<TRIPOS>SUBSTRUCTURE
     1 RES1 1

@<TRIPOS>CRYSIN
  11.0120   13.0368   11.1977  90.0000  97.8360  90.0000 231 1

