# MOL2 file generated by ConQuest
# Please check atom types

@<TRIPOS>MOLECULE
UPAGOI
    54    58     1
SMALL
NO_CHARGES
****
Generated from CSD

@<TRIPOS>ATOM
      1 O1        -4.1784    6.2187    7.2736 O.3       1 RES1    0.0000
      2 O2        -1.5921    6.4148    6.8256 O.2       1 RES1    0.0000
      3 O3         0.2282    8.2945    9.8534 O.3       1 RES1    0.0000
      4 N1        -0.9694    5.8099    8.9030 N.am      1 RES1    0.0000
      5 N2        -2.4566    3.4219    8.8736 N.3       1 RES1    0.0000
      6 N3         1.3883    8.4762   10.6434 N.2       1 RES1    0.0000
      7 C1        -4.9356    3.7452    8.8030 C.ar      1 RES1    0.0000
      8 C2        -5.3073    4.1010   10.0937 C.ar      1 RES1    0.0000
      9 C3        -6.5078    3.6996   10.6351 C.ar      1 RES1    0.0000
     10 C4        -7.3831    2.9481    9.9096 C.ar      1 RES1    0.0000
     11 C5        -7.0657    2.6144    8.6267 C.ar      1 RES1    0.0000
     12 C6        -5.8400    3.0126    8.0693 C.ar      1 RES1    0.0000
     13 C7        -3.5855    4.1090    8.2176 C.3       1 RES1    0.0000
     14 C8        -3.3339    5.6165    8.2320 C.3       1 RES1    0.0000
     15 C9        -1.8820    5.9553    7.9255 C.2       1 RES1    0.0000
     16 C10       -1.2677    5.1336   10.1289 C.ar      1 RES1    0.0000
     17 C11       -1.9969    3.9432   10.1014 C.ar      1 RES1    0.0000
     18 C12       -0.7604    5.6222   11.3220 C.ar      1 RES1    0.0000
     19 C13       -0.9519    4.9245   12.4956 C.ar      1 RES1    0.0000
     20 C14       -1.6662    3.7411   12.4753 C.ar      1 RES1    0.0000
     21 C15       -2.1922    3.2688   11.3063 C.ar      1 RES1    0.0000
     22 C16        0.4159    6.2208    8.6166 C.3       1 RES1    0.0000
     23 C17        0.6217    7.7222    8.5848 C.3       1 RES1    0.0000
     24 C18        2.4210    8.3566    9.8966 C.2       1 RES1    0.0000
     25 C19        2.0968    8.0804    8.4612 C.3       1 RES1    0.0000
     26 C20        3.7741    8.5112   10.4491 C.ar      1 RES1    0.0000
     27 C21        4.8467    8.7273    9.5840 C.ar      1 RES1    0.0000
     28 C22        6.1218    8.8858   10.0822 C.ar      1 RES1    0.0000
     29 C23        6.3563    8.8098   11.4241 C.ar      1 RES1    0.0000
     30 C24        5.3033    8.5934   12.2972 C.ar      1 RES1    0.0000
     31 C25        4.0183    8.4444   11.8141 C.ar      1 RES1    0.0000
     32 H1        -4.7316    4.6220   10.6046 H         1 RES1    0.0000
     33 H2        -6.7250    3.9448   11.5062 H         1 RES1    0.0000
     34 H3        -8.1856    2.6667   10.2842 H         1 RES1    0.0000
     35 H4        -7.6652    2.1199    8.1170 H         1 RES1    0.0000
     36 H5        -5.6367    2.7770    7.1929 H         1 RES1    0.0000
     37 H6        -3.5909    3.8249    7.2789 H         1 RES1    0.0000
     38 H7        -3.5609    5.9664    9.1192 H         1 RES1    0.0000
     39 H8        -2.6488    2.5155    8.9630 H         1 RES1    0.0000
     40 H9        -3.7227    6.5600    6.6832 H         1 RES1    0.0000
     41 H10       -0.2892    6.4233   11.3314 H         1 RES1    0.0000
     42 H11       -0.6037    5.2473   13.2948 H         1 RES1    0.0000
     43 H12       -1.7896    3.2630   13.2630 H         1 RES1    0.0000
     44 H13       -2.6912    2.4840   11.3142 H         1 RES1    0.0000
     45 H14        0.6794    5.8516    7.7595 H         1 RES1    0.0000
     46 H15        0.9992    5.8403    9.2913 H         1 RES1    0.0000
     47 H16        0.1079    8.1239    7.8535 H         1 RES1    0.0000
     48 H17        2.6178    7.3405    8.1103 H         1 RES1    0.0000
     49 H18        2.2312    8.8631    7.9051 H         1 RES1    0.0000
     50 H19        4.7002    8.7646    8.6664 H         1 RES1    0.0000
     51 H20        6.8283    9.0462    9.4991 H         1 RES1    0.0000
     52 H21        7.2216    8.9026   11.7525 H         1 RES1    0.0000
     53 H22        5.4616    8.5484   13.2127 H         1 RES1    0.0000
     54 H23        3.3145    8.2980   12.4051 H         1 RES1    0.0000
@<TRIPOS>BOND
     1    1   14 1
     2    2   15 2
     3    3    6 1
     4    4   15 1
     5    5   13 1
     6    6   24 2
     7    7    8 ar
     8    8    9 ar
     9    9   10 ar
    10   10   11 ar
    11   11   12 ar
    12   12    7 ar
    13   13    7 1
    14   14   13 1
    15   15   14 1
    16   16    4 1
    17   17    5 1
    18   18   16 ar
    19   19   18 ar
    20   20   19 ar
    21   21   17 ar
    22   22    4 1
    23   23    3 1
    24   24   25 1
    25   25   23 1
    26   26   24 1
    27   27   26 ar
    28   28   27 ar
    29   29   28 ar
    30   30   29 ar
    31   31   26 ar
    32   32    8 1
    33   33    9 1
    34   34   10 1
    35   35   11 1
    36   36   12 1
    37   37   13 1
    38   38   14 1
    39   39    5 1
    40   40    1 1
    41   41   18 1
    42   42   19 1
    43   43   20 1
    44   44   21 1
    45   45   22 1
    46   46   22 1
    47   47   23 1
    48   48   25 1
    49   49   25 1
    50   50   27 1
    51   51   28 1
    52   52   29 1
    53   53   30 1
    54   54   31 1
    55   16   17 ar
    56   20   21 ar
    57   22   23 1
    58   30   31 ar
@<TRIPOS>SUBSTRUCTURE
     1 RES1 1

@<TRIPOS>CRYSIN
   8.9810    9.0440   13.6850  95.3730 102.4330 100.0300   2 1

