# MOL2 file generated by ConQuest
# Please check atom types

@<TRIPOS>MOLECULE
UPAHAV
    42    44     1
SMALL
NO_CHARGES
****
Generated from CSD

@<TRIPOS>ATOM
      1 O1         5.1042    0.3103    5.2826 O.2       1 RES1    0.0000
      2 O2         5.7638   -0.1004    3.2773 O.2       1 RES1    0.0000
      3 O3         5.2763    2.8630   -0.3092 O.2       1 RES1    0.0000
      4 O4         4.1480    4.6834   -0.0684 O.2       1 RES1    0.0000
      5 O5         2.9679    6.2440    4.2364 O.2       1 RES1    0.0000
      6 O6         2.3396    4.6918    5.6300 O.2       1 RES1    0.0000
      7 N1         4.3078    2.7144    5.9015 N.3       1 RES1    0.0000
      8 N2         5.2479    0.6336    4.1048 N.pl3     1 RES1    0.0000
      9 N3         4.8421    6.1183   10.3265 N.2       1 RES1    0.0000
     10 N4         4.6506    3.6583    0.3676 N.pl3     1 RES1    0.0000
     11 N5         2.9912    5.0986    4.6747 N.pl3     1 RES1    0.0000
     12 N6         4.2835    5.7153   11.3690 N.2       1 RES1    0.0000
     13 C1         4.3883    3.6475    6.9717 C.ar      1 RES1    0.0000
     14 C2         4.2907    2.9389    4.5659 C.ar      1 RES1    0.0000
     15 C3         5.0189    4.8565    6.8719 C.ar      1 RES1    0.0000
     16 C4         4.7791    1.9513    3.6611 C.ar      1 RES1    0.0000
     17 C5         5.1402    5.6548    7.9939 C.ar      1 RES1    0.0000
     18 C6         4.8920    2.1873    2.3088 C.ar      1 RES1    0.0000
     19 C7         4.6413    5.2426    9.2153 C.ar      1 RES1    0.0000
     20 C8         4.4924    3.4031    1.7973 C.ar      1 RES1    0.0000
     21 C9         4.0183    4.0000    9.3082 C.ar      1 RES1    0.0000
     22 C10        3.9288    4.3577    2.5997 C.ar      1 RES1    0.0000
     23 C11        3.8807    3.2055    8.2019 C.ar      1 RES1    0.0000
     24 C12        3.8063    4.1164    3.9412 C.ar      1 RES1    0.0000
     25 C13        4.5916    8.0605   14.8076 C.ar      1 RES1    0.0000
     26 C14        5.0025    8.6113   13.5990 C.ar      1 RES1    0.0000
     27 C15        4.9323    7.8712   12.4471 C.ar      1 RES1    0.0000
     28 C16        4.4468    6.5734   12.4929 C.ar      1 RES1    0.0000
     29 C17        4.0348    6.0340   13.6936 C.ar      1 RES1    0.0000
     30 C18        4.1234    6.7810   14.8623 C.ar      1 RES1    0.0000
     31 H1         4.2645    1.8885    6.1360 H         1 RES1    0.0000
     32 H2         5.3638    5.1392    6.0561 H         1 RES1    0.0000
     33 H3         5.5627    6.4807    7.9266 H         1 RES1    0.0000
     34 H4         5.2349    1.5315    1.7458 H         1 RES1    0.0000
     35 H5         3.6926    3.7073   10.1297 H         1 RES1    0.0000
     36 H6         3.6331    5.1622    2.2382 H         1 RES1    0.0000
     37 H7         3.4550    2.3811    8.2655 H         1 RES1    0.0000
     38 H8         4.6376    8.5684   15.5846 H         1 RES1    0.0000
     39 H9         5.3250    9.4832   13.5718 H         1 RES1    0.0000
     40 H10        5.2093    8.2374   11.6389 H         1 RES1    0.0000
     41 H11        3.6968    5.1675   13.7205 H         1 RES1    0.0000
     42 H12        3.8649    6.4117   15.6757 H         1 RES1    0.0000
@<TRIPOS>BOND
     1    1    8 2
     2    2    8 2
     3    3   10 2
     4    4   10 2
     5    5   11 2
     6    6   11 2
     7    7   13 1
     8    8   16 1
     9    9   12 2
    10   10   20 1
    11   11   24 1
    12   12   28 1
    13   13   15 ar
    14   14    7 1
    15   15   17 ar
    16   16   14 ar
    17   17   19 ar
    18   18   16 ar
    19   19    9 1
    20   20   18 ar
    21   21   19 ar
    22   22   20 ar
    23   23   13 ar
    24   24   14 ar
    25   25   26 ar
    26   26   27 ar
    27   27   28 ar
    28   28   29 ar
    29   29   30 ar
    30   30   25 ar
    31   31    7 1
    32   32   15 1
    33   33   17 1
    34   34   18 1
    35   35   21 1
    36   36   22 1
    37   37   23 1
    38   38   25 1
    39   39   26 1
    40   40   27 1
    41   41   29 1
    42   42   30 1
    43   21   23 ar
    44   22   24 ar
@<TRIPOS>SUBSTRUCTURE
     1 RES1 1

@<TRIPOS>CRYSIN
   7.4255    7.6613   16.1510  90.0000  98.1600  90.0000   4 1

