# MOL2 file generated by ConQuest
# Please check atom types

@<TRIPOS>MOLECULE
UPIMOX
    44    47     1
SMALL
NO_CHARGES
****
Generated from CSD

@<TRIPOS>ATOM
      1 C1        27.4914    3.6425    5.2249 C.ar      1 RES1    0.0000
      2 C2        27.9447    4.4886    6.2324 C.ar      1 RES1    0.0000
      3 H1        27.4169    5.2167    6.5388 H         1 RES1    0.0000
      4 C3        29.1858    4.2330    6.7681 C.ar      1 RES1    0.0000
      5 H2        29.5269    4.8095    7.4416 H         1 RES1    0.0000
      6 C4        29.9507    3.1535    6.3485 C.ar      1 RES1    0.0000
      7 H3        30.7983    2.9984    6.7519 H         1 RES1    0.0000
      8 C5        29.5067    2.3001    5.3572 C.ar      1 RES1    0.0000
      9 H4        30.0338    1.5601    5.0784 H         1 RES1    0.0000
     10 C6        28.2585    2.5545    4.7721 C.ar      1 RES1    0.0000
     11 C7        27.4879    1.9374    3.7265 C.2       1 RES1    0.0000
     12 C8        26.3447    2.6487    3.5962 C.2       1 RES1    0.0000
     13 C9        25.4587    2.2070    2.4622 C.3       1 RES1    0.0000
     14 H5        25.5570    2.8359    1.6915 H         1 RES1    0.0000
     15 C10       26.1557    0.8709    2.1368 C.3       1 RES1    0.0000
     16 H6        25.6667    0.1596    2.6420 H         1 RES1    0.0000
     17 C11       27.6390    0.8754    2.6772 C.3       1 RES1    0.0000
     18 H7        27.8428   -0.0023    3.1119 H         1 RES1    0.0000
     19 C12       23.9692    1.9933    2.7694 C.3       1 RES1    0.0000
     20 H8        23.5469    1.5330    2.0017 H         1 RES1    0.0000
     21 H9        23.8865    1.4011    3.5581 H         1 RES1    0.0000
     22 C13       23.2285    3.2607    3.0387 C.2       1 RES1    0.0000
     23 C14       21.1395    4.3329    2.8541 C.3       1 RES1    0.0000
     24 H10       20.2043    4.1191    2.6515 H         1 RES1    0.0000
     25 H11       21.4839    4.9635    2.1872 H         1 RES1    0.0000
     26 H12       21.1949    4.7367    3.7456 H         1 RES1    0.0000
     27 C15       28.7183    1.2025    1.6544 C.ar      1 RES1    0.0000
     28 C16       28.7123    2.3937    0.9542 C.ar      1 RES1    0.0000
     29 H13       28.0213    3.0277    1.1103 H         1 RES1    0.0000
     30 C17       29.7126    2.6758    0.0181 C.ar      1 RES1    0.0000
     31 H14       29.7034    3.4987   -0.4576 H         1 RES1    0.0000
     32 C18       30.7120    1.7598   -0.2141 C.ar      1 RES1    0.0000
     33 H15       31.3873    1.9453   -0.8543 H         1 RES1    0.0000
     34 C19       30.7302    0.5821    0.4804 C.ar      1 RES1    0.0000
     35 H16       31.4258   -0.0479    0.3244 H         1 RES1    0.0000
     36 C20       29.7363    0.3023    1.4128 C.ar      1 RES1    0.0000
     37 H17       29.7574   -0.5189    1.8904 H         1 RES1    0.0000
     38 N1        26.3178    3.6961    4.4829 N.pl3     1 RES1    0.0000
     39 H18       25.6758    4.2917    4.5666 H         1 RES1    0.0000
     40 N2        26.1005    0.4868    0.6783 N.pl3     1 RES1    0.0000
     41 O1        25.6454    1.2589   -0.1313 O.2       1 RES1    0.0000
     42 O2        26.5297   -0.6210    0.3958 O.2       1 RES1    0.0000
     43 O3        23.7342    4.2968    3.4107 O.2       1 RES1    0.0000
     44 O4        21.9252    3.1264    2.8237 O.3       1 RES1    0.0000
@<TRIPOS>BOND
     1    1    2 ar
     2    2    3 1
     3    4    2 ar
     4    5    4 1
     5    6    4 ar
     6    7    6 1
     7    8    6 ar
     8    9    8 1
     9   10    1 ar
    10   11   10 1
    11   12   11 2
    12   13   12 1
    13   14   13 1
    14   15   13 1
    15   16   15 1
    16   17   11 1
    17   18   17 1
    18   19   13 1
    19   20   19 1
    20   21   19 1
    21   22   19 1
    22   23   24 1
    23   25   23 1
    24   26   23 1
    25   27   17 1
    26   28   27 ar
    27   29   28 1
    28   30   28 ar
    29   31   30 1
    30   32   30 ar
    31   33   32 1
    32   34   32 ar
    33   35   34 1
    34   36   27 ar
    35   37   36 1
    36   38    1 1
    37   39   38 1
    38   40   15 1
    39   41   40 2
    40   42   40 2
    41   43   22 2
    42   44   22 1
    43    8   10 ar
    44   12   38 1
    45   15   17 1
    46   23   44 1
    47   34   36 ar
@<TRIPOS>SUBSTRUCTURE
     1 RES1 1

@<TRIPOS>CRYSIN
  32.7110    5.6403    9.9643  90.0000 107.2960  90.0000   5 1

