# MOL2 file generated by ConQuest
# Please check atom types

@<TRIPOS>MOLECULE
UPISES
   102   108     2
SMALL
NO_CHARGES
****
Generated from CSD

@<TRIPOS>ATOM
      1 C1         0.5868    3.0096    3.2692 C.2       1 RES1    0.0000
      2 H1         0.5511    2.2207    2.7787 H         1 RES1    0.0000
      3 C2        -0.5266    3.5252    3.7085 C.2       1 RES1    0.0000
      4 H2        -1.3306    3.0968    3.5217 H         1 RES1    0.0000
      5 C3        -0.5406    4.8003    4.5127 C.3       1 RES1    0.0000
      6 H3        -0.3669    4.5477    5.4432 H         1 RES1    0.0000
      7 C4         0.6548    5.7138    4.0628 C.3       1 RES1    0.0000
      8 C5         1.9555    4.8962    4.0113 C.2       1 RES1    0.0000
      9 C6         0.3827    6.3066    2.6556 C.2       1 RES1    0.0000
     10 C7         0.0496    7.7546    2.8120 C.3       1 RES1    0.0000
     11 H4        -0.8972    7.8748    2.9819 H         1 RES1    0.0000
     12 H5         0.2919    8.2528    2.0163 H         1 RES1    0.0000
     13 C8         0.8822    8.2066    4.0134 C.3       1 RES1    0.0000
     14 C9         0.8288    6.9690    4.9331 C.3       1 RES1    0.0000
     15 H6         1.6473    6.9043    5.4490 H         1 RES1    0.0000
     16 H7         0.0844    7.0480    5.5516 H         1 RES1    0.0000
     17 C10        2.3145    8.4966    3.5502 C.3       1 RES1    0.0000
     18 H8         2.6750    7.7193    3.1193 H         1 RES1    0.0000
     19 H9         2.8565    8.7214    4.3093 H         1 RES1    0.0000
     20 H10        2.3083    9.2313    2.9316 H         1 RES1    0.0000
     21 C11        0.2982    9.4335    4.7006 C.3       1 RES1    0.0000
     22 H11        0.3213   10.1802    4.0964 H         1 RES1    0.0000
     23 H12        0.8161    9.6388    5.4819 H         1 RES1    0.0000
     24 H13       -0.6095    9.2549    4.9556 H         1 RES1    0.0000
     25 C12       -1.8787    5.5010    4.4937 C.ar      1 RES1    0.0000
     26 C13       -2.6530    5.5829    3.3445 C.ar      1 RES1    0.0000
     27 H14       -2.3474    5.1935    2.5562 H         1 RES1    0.0000
     28 C14       -3.8770    6.2377    3.3553 C.ar      1 RES1    0.0000
     29 H15       -4.3899    6.2743    2.5813 H         1 RES1    0.0000
     30 C15       -4.3316    6.8298    4.5067 C.ar      1 RES1    0.0000
     31 H16       -5.1438    7.2823    4.5105 H         1 RES1    0.0000
     32 C16       -3.5868    6.7517    5.6423 C.ar      1 RES1    0.0000
     33 H17       -3.8994    7.1464    6.4243 H         1 RES1    0.0000
     34 C17       -2.3744    6.0939    5.6481 C.ar      1 RES1    0.0000
     35 H18       -1.8822    6.0479    6.4359 H         1 RES1    0.0000
     36 C18        3.0319    2.8235    3.3335 C.ar      1 RES1    0.0000
     37 C19        3.0737    1.5183    3.8248 C.ar      1 RES1    0.0000
     38 H19        2.3439    1.1753    4.2880 H         1 RES1    0.0000
     39 C20        4.1911    0.7353    3.6272 C.ar      1 RES1    0.0000
     40 H20        4.2213   -0.1398    3.9378 H         1 RES1    0.0000
     41 C21        5.2580    1.2834    2.9596 C.ar      1 RES1    0.0000
     42 C22        5.2487    2.5751    2.4830 C.ar      1 RES1    0.0000
     43 H21        5.9913    2.9235    2.0453 H         1 RES1    0.0000
     44 C23        4.1224    3.3405    2.6661 C.ar      1 RES1    0.0000
     45 H22        4.0956    4.2111    2.3394 H         1 RES1    0.0000
     46 C24        3.0161    6.4489    8.8320 C.2       2 RES2    0.0000
     47 H23        3.0541    7.2468    9.3074 H         2 RES2    0.0000
     48 C25        4.1355    5.9142    8.3941 C.2       2 RES2    0.0000
     49 H24        4.9408    6.3432    8.5721 H         2 RES2    0.0000
     50 C26        4.1491    4.6300    7.6143 C.3       2 RES2    0.0000
     51 H25        3.9590    4.8607    6.6816 H         2 RES2    0.0000
     52 C27        2.9690    3.7232    8.1089 C.3       2 RES2    0.0000
     53 C28        1.6688    4.5426    8.1399 C.2       2 RES2    0.0000
     54 C29        3.2809    3.1612    9.5251 C.2       2 RES2    0.0000
     55 C30        3.5766    1.6966    9.3924 C.3       2 RES2    0.0000
     56 H26        3.3330    1.2226   10.2034 H         2 RES2    0.0000
     57 H27        4.5185    1.5513    9.2146 H         2 RES2    0.0000
     58 C31        2.7231    1.2271    8.2113 C.3       2 RES2    0.0000
     59 C32        2.7935    2.4499    7.2654 C.3       2 RES2    0.0000
     60 H28        3.5408    2.3526    6.6545 H         2 RES2    0.0000
     61 H29        1.9792    2.5101    6.7416 H         2 RES2    0.0000
     62 C33        3.2657   -0.0234    7.5493 C.3       2 RES2    0.0000
     63 H30        4.1853    0.1142    7.3086 H         2 RES2    0.0000
     64 H31        2.7541   -0.2146    6.7590 H         2 RES2    0.0000
     65 H32        3.2014   -0.7619    8.1600 H         2 RES2    0.0000
     66 C34        1.2903    0.9934    8.6995 C.3       2 RES2    0.0000
     67 H33        0.7327    0.7599    7.9549 H         2 RES2    0.0000
     68 H34        0.9579    1.7955    9.1101 H         2 RES2    0.0000
     69 H35        1.2838    0.2776    9.3403 H         2 RES2    0.0000
     70 C35        5.4842    3.9258    7.6273 C.ar      2 RES2    0.0000
     71 C36        6.2595    3.8516    8.7778 C.ar      2 RES2    0.0000
     72 H36        5.9632    4.2564    9.5609 H         2 RES2    0.0000
     73 C37        7.4805    3.1722    8.7656 C.ar      2 RES2    0.0000
     74 H37        8.0007    3.1322    9.5358 H         2 RES2    0.0000
     75 C38        7.9097    2.5605    7.6066 C.ar      2 RES2    0.0000
     76 H38        8.7137    2.0947    7.5988 H         2 RES2    0.0000
     77 C39        7.1576    2.6371    6.4726 C.ar      2 RES2    0.0000
     78 H39        7.4579    2.2286    5.6928 H         2 RES2    0.0000
     79 C40        5.9626    3.3124    6.4684 C.ar      2 RES2    0.0000
     80 H40        5.4652    3.3606    5.6832 H         2 RES2    0.0000
     81 C41        0.5901    6.6631    8.6842 C.ar      2 RES2    0.0000
     82 C42       -0.6112    6.1601    9.1697 C.ar      2 RES2    0.0000
     83 H41       -0.6643    5.2742    9.4487 H         2 RES2    0.0000
     84 C43       -1.7228    6.9692    9.2401 C.ar      2 RES2    0.0000
     85 H42       -2.5284    6.6326    9.5609 H         2 RES2    0.0000
     86 C44       -1.6291    8.2826    8.8295 C.ar      2 RES2    0.0000
     87 C45       -0.4464    8.8019    8.3568 C.ar      2 RES2    0.0000
     88 H43       -0.3947    9.6920    8.0942 H         2 RES2    0.0000
     89 C46        0.6623    7.9873    8.2753 C.ar      2 RES2    0.0000
     90 H44        1.4620    8.3257    7.9452 H         2 RES2    0.0000
     91 N1         1.8504    3.6025    3.5105 N.am      1 RES1    0.0000
     92 N2         6.4527    0.4660    2.7406 N.pl3     1 RES1    0.0000
     93 N3         1.7560    5.8461    8.6016 N.am      2 RES2    0.0000
     94 N4        -2.8165    9.1354    8.9028 N.pl3     2 RES2    0.0000
     95 O1         3.0134    5.3366    4.3830 O.2       1 RES1    0.0000
     96 O2         0.4632    5.7032    1.6194 O.2       1 RES1    0.0000
     97 O3         7.4886    1.0161    2.3781 O.2       1 RES1    0.0000
     98 O4         6.3643   -0.7440    2.9461 O.2       1 RES1    0.0000
     99 O5         0.6144    4.0760    7.7662 O.2       2 RES2    0.0000
    100 O6         3.2930    3.7931   10.5412 O.2       2 RES2    0.0000
    101 O7        -2.6646   10.3408    8.7413 O.2       2 RES2    0.0000
    102 O8        -3.9082    8.6155    9.0940 O.2       2 RES2    0.0000
@<TRIPOS>BOND
     1    1    2 1
     2    3    1 2
     3    4    3 1
     4    5    3 1
     5    6    5 1
     6    7    5 1
     7    8    7 1
     8    9    7 1
     9   10    9 1
    10   11   10 1
    11   12   10 1
    12   13   10 1
    13   14    7 1
    14   15   14 1
    15   16   14 1
    16   17   13 1
    17   18   17 1
    18   19   17 1
    19   20   17 1
    20   21   13 1
    21   22   21 1
    22   23   21 1
    23   24   21 1
    24   25    5 1
    25   26   25 ar
    26   27   26 1
    27   28   26 ar
    28   29   28 1
    29   30   28 ar
    30   31   30 1
    31   32   30 ar
    32   33   32 1
    33   34   25 ar
    34   35   34 1
    35   36   37 ar
    36   37   38 1
    37   39   37 ar
    38   40   39 1
    39   41   39 ar
    40   42   41 ar
    41   43   42 1
    42   44   36 ar
    43   45   44 1
    44   46   47 1
    45   48   46 2
    46   49   48 1
    47   50   48 1
    48   51   50 1
    49   52   50 1
    50   53   52 1
    51   54   52 1
    52   55   54 1
    53   56   55 1
    54   57   55 1
    55   58   55 1
    56   59   52 1
    57   60   59 1
    58   61   59 1
    59   62   58 1
    60   63   62 1
    61   64   62 1
    62   65   62 1
    63   66   58 1
    64   67   66 1
    65   68   66 1
    66   69   66 1
    67   70   50 1
    68   71   70 ar
    69   72   71 1
    70   73   71 ar
    71   74   73 1
    72   75   73 ar
    73   76   75 1
    74   77   75 ar
    75   78   77 1
    76   79   70 ar
    77   80   79 1
    78   81   82 ar
    79   82   83 1
    80   84   82 ar
    81   85   84 1
    82   86   84 ar
    83   87   86 ar
    84   88   87 1
    85   89   81 ar
    86   90   89 1
    87   91    1 1
    88   92   41 1
    89   93   46 1
    90   94   86 1
    91   95    8 2
    92   96    9 2
    93   97   92 2
    94   98   92 2
    95   99   53 2
    96  100   54 2
    97  101   94 2
    98  102   94 2
    99    8   91 1
   100   13   14 1
   101   32   34 ar
   102   36   91 1
   103   42   44 ar
   104   53   93 1
   105   58   59 1
   106   77   79 ar
   107   81   93 1
   108   87   89 ar
@<TRIPOS>SUBSTRUCTURE
     1 RES1 1
     2 RES2 46

@<TRIPOS>CRYSIN
  10.2408   19.6871   19.3546  90.0000  91.2210  90.0000  14 1

