# MOL2 file generated by ConQuest
# Please check atom types

@<TRIPOS>MOLECULE
UPIYEY
    37    39     1
SMALL
NO_CHARGES
****
Generated from CSD

@<TRIPOS>ATOM
      1 C1        25.8153    9.0088    1.5991 C.3       1 RES1    0.0000
      2 H1        25.5086    9.9056    1.7536 H         1 RES1    0.0000
      3 H2        25.9793    8.8841    0.6616 H         1 RES1    0.0000
      4 H3        26.6273    8.8594    2.0885 H         1 RES1    0.0000
      5 C2        25.0618    6.7501    1.9170 C.ar      1 RES1    0.0000
      6 C3        24.1094    5.9197    2.4581 C.ar      1 RES1    0.0000
      7 H4        23.3749    6.2875    2.8965 H         1 RES1    0.0000
      8 C4        24.2279    4.5551    2.3578 C.ar      1 RES1    0.0000
      9 H5        23.5682    4.0158    2.7323 H         1 RES1    0.0000
     10 C5        25.3105    3.9534    1.7107 C.ar      1 RES1    0.0000
     11 C6        26.2957    4.8306    1.2254 C.ar      1 RES1    0.0000
     12 H6        27.0672    4.4745    0.8436 H         1 RES1    0.0000
     13 C7        26.1593    6.1900    1.2950 C.ar      1 RES1    0.0000
     14 H7        26.8083    6.7397    0.9213 H         1 RES1    0.0000
     15 C8        25.4310    2.5134    1.6104 C.2       1 RES1    0.0000
     16 C9        24.4323    1.5530    2.2333 C.3       1 RES1    0.0000
     17 H8        24.3989    1.6791    3.2047 H         1 RES1    0.0000
     18 C10       26.0704    0.3561    1.1842 C.2       1 RES1    0.0000
     19 C11       26.3439    1.7519    0.9965 C.2       1 RES1    0.0000
     20 C12       23.0657    1.6258    1.6565 C.ar      1 RES1    0.0000
     21 C13       21.8038    1.7402    2.3352 C.ar      1 RES1    0.0000
     22 C14       20.6299    1.7402    1.7342 C.ar      1 RES1    0.0000
     23 H9        19.8557    1.8064    2.2470 H         1 RES1    0.0000
     24 C15       20.5189    1.6427    0.3373 C.ar      1 RES1    0.0000
     25 H10       19.6919    1.6661   -0.0882 H         1 RES1    0.0000
     26 C16       21.7143    1.5062   -0.3866 C.ar      1 RES1    0.0000
     27 H11       21.6872    1.4075   -1.3112 H         1 RES1    0.0000
     28 C17       22.9158    1.5192    0.2613 C.ar      1 RES1    0.0000
     29 H12       23.6878    1.4530   -0.2548 H         1 RES1    0.0000
     30 N1        21.7887    1.8701    3.8292 N.pl3     1 RES1    0.0000
     31 O1        24.8148    8.0783    2.0367 O.3       1 RES1    0.0000
     32 O2        27.4527    2.1846    0.3324 O.3       1 RES1    0.0000
     33 H13       27.8737    1.5387    0.0542 H         1 RES1    0.0000
     34 O3        26.6791   -0.6277    0.8121 O.2       1 RES1    0.0000
     35 O4        24.9324    0.2274    1.9113 O.3       1 RES1    0.0000
     36 O5        20.7075    1.6440    4.3598 O.2       1 RES1    0.0000
     37 O6        22.7596    2.2132    4.4220 O.2       1 RES1    0.0000
@<TRIPOS>BOND
     1    1    2 1
     2    3    1 1
     3    4    1 1
     4    5    6 ar
     5    6    7 1
     6    8    6 ar
     7    9    8 1
     8   10    8 ar
     9   11   10 ar
    10   12   11 1
    11   13    5 ar
    12   14   13 1
    13   15   10 1
    14   16   15 1
    15   17   16 1
    16   18   19 1
    17   19   15 2
    18   20   16 1
    19   21   20 ar
    20   22   21 ar
    21   23   22 1
    22   24   22 ar
    23   25   24 1
    24   26   24 ar
    25   27   26 1
    26   28   20 ar
    27   29   28 1
    28   30   21 1
    29   31    1 1
    30   32   19 1
    31   33   32 1
    32   34   18 2
    33   35   16 1
    34   36   30 2
    35   37   30 2
    36    5   31 1
    37   11   13 ar
    38   18   35 1
    39   26   28 ar
@<TRIPOS>SUBSTRUCTURE
     1 RES1 1

@<TRIPOS>CRYSIN
  27.9810   12.9960    8.0900  90.0000  91.0600  90.0000  15 1

