# MOL2 file generated by ConQuest
# Please check atom types

@<TRIPOS>MOLECULE
UPOCEJ
    44    46     1
SMALL
NO_CHARGES
****
Generated from CSD

@<TRIPOS>ATOM
      1 O1         3.7197    2.5687    9.0324 O.3       1 RES1    0.0000
      2 O2         0.1680    2.2576    9.5082 O.3       1 RES1    0.0000
      3 H1         0.2890    1.5763   10.1266 H         1 RES1    0.0000
      4 O3         1.7214    0.1375    9.9163 O.3       1 RES1    0.0000
      5 H2         1.9627   -0.7088    9.7142 H         1 RES1    0.0000
      6 O4         3.4569    1.6863    6.2764 O.3       1 RES1    0.0000
      7 H3         3.5153    2.5285    6.5296 H         1 RES1    0.0000
      8 O5         2.3203    4.9024   11.5232 O.2       1 RES1    0.0000
      9 O6         2.7034    8.5153    8.5171 O.2       1 RES1    0.0000
     10 O7         2.6489    4.2751    7.0109 O.2       1 RES1    0.0000
     11 O8         3.0973   10.6735   17.6205 O.2       1 RES1    0.0000
     12 O9         2.5454   12.2879   16.2866 O.2       1 RES1    0.0000
     13 N1         2.4634    4.5163    9.2823 N.am      1 RES1    0.0000
     14 N2         2.6664    6.3687    7.8167 N.am      1 RES1    0.0000
     15 H4         2.8365    6.7179    7.0267 H         1 RES1    0.0000
     16 N3         2.5118    7.7155   11.1010 N.2       1 RES1    0.0000
     17 N4         2.4789    7.3769   12.3480 N.pl3     1 RES1    0.0000
     18 H5         2.4668    6.5168   12.5322 H         1 RES1    0.0000
     19 N5         2.7639   11.0945   16.5304 N.pl3     1 RES1    0.0000
     20 C1         2.4836    3.0574    9.5100 C.3       1 RES1    0.0000
     21 H6         2.4332    2.8881   10.4954 H         1 RES1    0.0000
     22 C2         1.3887    2.2354    8.8165 C.3       1 RES1    0.0000
     23 H7         1.2489    2.5898    7.8928 H         1 RES1    0.0000
     24 C3         2.0615    0.8548    8.7318 C.3       1 RES1    0.0000
     25 H8         1.7610    0.3608    7.9157 H         1 RES1    0.0000
     26 C4         3.5563    1.1775    8.6580 C.3       1 RES1    0.0000
     27 H9         4.0423    0.6062    9.3201 H         1 RES1    0.0000
     28 C5         4.1788    0.9796    7.2962 C.3       1 RES1    0.0000
     29 H10        5.1151    1.3002    7.3154 H         1 RES1    0.0000
     30 H11        4.1902    0.0138    7.0794 H         1 RES1    0.0000
     31 C6         2.4244    5.3510   10.4015 C.2       1 RES1    0.0000
     32 C7         2.5024    6.8014   10.1577 C.2       1 RES1    0.0000
     33 C8         2.6214    7.3283    8.7971 C.2       1 RES1    0.0000
     34 C9         2.6012    5.0040    7.9775 C.2       1 RES1    0.0000
     35 C10        2.5266    8.3534   13.3703 C.ar      1 RES1    0.0000
     36 C11        2.6778    7.8879   14.6604 C.ar      1 RES1    0.0000
     37 H12        2.7343    6.9548   14.8325 H         1 RES1    0.0000
     38 C12        2.7451    8.8009   15.7010 C.ar      1 RES1    0.0000
     39 H13        2.8587    8.5047   16.5966 H         1 RES1    0.0000
     40 C13        2.6449   10.1498   15.4128 C.ar      1 RES1    0.0000
     41 C14        2.4843   10.6343   14.1369 C.ar      1 RES1    0.0000
     42 H14        2.4076   11.5674   13.9733 H         1 RES1    0.0000
     43 C15        2.4359    9.7076   13.0789 C.ar      1 RES1    0.0000
     44 H15        2.3431   10.0038   12.1817 H         1 RES1    0.0000
@<TRIPOS>BOND
     1    1   20 1
     2    2    3 1
     3    4    5 1
     4    6    7 1
     5    8   31 2
     6    9   33 2
     7   10   34 2
     8   11   19 2
     9   12   19 2
    10   13   20 1
    11   14   15 1
    12   16   17 1
    13   17   18 1
    14   19   40 1
    15   20   21 1
    16   22    2 1
    17   23   22 1
    18   24    4 1
    19   25   24 1
    20   26    1 1
    21   27   26 1
    22   28    6 1
    23   29   28 1
    24   30   28 1
    25   31   13 1
    26   32   16 2
    27   33   14 1
    28   34   13 1
    29   35   17 1
    30   36   35 ar
    31   37   36 1
    32   38   36 ar
    33   39   38 1
    34   40   38 ar
    35   41   40 ar
    36   42   41 1
    37   43   35 ar
    38   44   43 1
    39   14   34 1
    40   20   22 1
    41   22   24 1
    42   24   26 1
    43   26   28 1
    44   31   32 1
    45   32   33 1
    46   41   43 ar
@<TRIPOS>SUBSTRUCTURE
     1 RES1 1

@<TRIPOS>CRYSIN
   6.7215   10.5793   22.9108  90.0000  90.0000  90.0000  19 1

