# MOL2 file generated by ConQuest
# Please check atom types

@<TRIPOS>MOLECULE
UPODUA
   118   120     3
SMALL
NO_CHARGES
****
Generated from CSD

@<TRIPOS>ATOM
      1 C1        -2.2834   15.1551    2.2452 C.ar      1 RES1    0.0000
      2 C2        -0.8888   15.0278    2.0477 C.ar      1 RES1    0.0000
      3 C3         0.0183   15.7091    2.9216 C.ar      1 RES1    0.0000
      4 C4        -0.4861   16.4633    3.9860 C.ar      1 RES1    0.0000
      5 H1         0.1173   16.9319    4.5502 H         1 RES1    0.0000
      6 C5        -1.8641   16.5408    4.2384 C.ar      1 RES1    0.0000
      7 C6        -2.7708   15.8658    3.3575 C.ar      1 RES1    0.0000
      8 C7        -0.3177   14.2224    1.0174 C.ar      1 RES1    0.0000
      9 H2        -0.8914   13.7491    0.4259 H         1 RES1    0.0000
     10 C8         1.0305   14.1154    0.8618 C.ar      1 RES1    0.0000
     11 H3         1.3820   13.5645    0.1729 H         1 RES1    0.0000
     12 C9         1.9145   14.8152    1.7189 C.ar      1 RES1    0.0000
     13 H4         2.8537   14.7361    1.6002 H         1 RES1    0.0000
     14 C10        1.4264   15.5942    2.7015 C.ar      1 RES1    0.0000
     15 H5         2.0271   16.0738    3.2597 H         1 RES1    0.0000
     16 C11       -4.1587   15.9574    3.6569 C.ar      1 RES1    0.0000
     17 H6        -4.7847   15.5322    3.0842 H         1 RES1    0.0000
     18 C12       -4.6140   16.6402    4.7425 C.ar      1 RES1    0.0000
     19 H7        -5.5470   16.6712    4.9167 H         1 RES1    0.0000
     20 C13       -3.7133   17.3043    5.6177 C.ar      1 RES1    0.0000
     21 H8        -4.0411   17.7714    6.3775 H         1 RES1    0.0000
     22 C14       -2.3750   17.2655    5.3552 C.ar      1 RES1    0.0000
     23 H9        -1.7736   17.7295    5.9258 H         1 RES1    0.0000
     24 C15       -3.2650   14.5514    1.2745 C.3       1 RES1    0.0000
     25 H10       -3.9552   15.2311    1.0685 H         1 RES1    0.0000
     26 H11       -2.7863   14.3512    0.4310 H         1 RES1    0.0000
     27 C16       -3.9611   13.2960    1.7315 C.2       1 RES1    0.0000
     28 O1        -5.0934   13.0306    1.4758 O.2       1 RES1    0.0000
     29 O2        -3.1400   12.4937    2.3894 O.3       1 RES1    0.0000
     30 C17       -3.6686   11.2383    2.9121 C.3       1 RES1    0.0000
     31 H12       -4.6544   11.3081    3.0661 H         1 RES1    0.0000
     32 C18       -2.9506   10.9931    4.1979 C.3       1 RES1    0.0000
     33 H13       -3.1519   11.7349    4.8238 H         1 RES1    0.0000
     34 H14       -1.9760   10.9993    4.0263 H         1 RES1    0.0000
     35 C19       -3.3256    9.6740    4.8607 C.3       1 RES1    0.0000
     36 N1        -3.3332    8.5816    3.8564 N.3       1 RES1    0.0000
     37 C20       -3.7614    8.7461    2.4498 C.3       1 RES1    0.0000
     38 C21       -3.3638   10.1396    1.9372 C.3       1 RES1    0.0000
     39 H15       -2.3928   10.1442    1.7421 H         1 RES1    0.0000
     40 H16       -3.8431   10.3196    1.0892 H         1 RES1    0.0000
     41 C22       -4.7069    9.7687    5.5284 C.3       1 RES1    0.0000
     42 H17       -5.3662   10.0760    4.8702 H         1 RES1    0.0000
     43 H18       -4.6659   10.4050    6.2717 H         1 RES1    0.0000
     44 H19       -4.9672    8.8873    5.8639 H         1 RES1    0.0000
     45 C23       -2.2728    9.3373    5.8946 C.3       1 RES1    0.0000
     46 H20       -1.4165    9.1682    5.4458 H         1 RES1    0.0000
     47 H21       -2.5463    8.5381    6.3904 H         1 RES1    0.0000
     48 H22       -2.1724   10.0884    6.5169 H         1 RES1    0.0000
     49 C24       -5.2966    8.5567    2.3822 C.3       1 RES1    0.0000
     50 H23       -5.7369    9.2876    2.8648 H         1 RES1    0.0000
     51 H24       -5.5375    7.7017    2.7977 H         1 RES1    0.0000
     52 H25       -5.5850    8.5598    1.4479 H         1 RES1    0.0000
     53 C25       -3.0628    7.6815    1.6312 C.3       1 RES1    0.0000
     54 H26       -3.2791    7.8041    0.6814 H         1 RES1    0.0000
     55 H27       -3.3604    6.7954    1.9228 H         1 RES1    0.0000
     56 H28       -2.0932    7.7575    1.7550 H         1 RES1    0.0000
     57 O3        -3.3831    7.3780    4.3352 O.2       1 RES1    0.0000
     58 C26        2.6243   11.2895    2.4746 C.ar      2 RES2    0.0000
     59 C27        3.9986   11.1483    2.1871 C.ar      2 RES2    0.0000
     60 C28        4.9595   11.8745    2.9694 C.ar      2 RES2    0.0000
     61 C29        4.5328   12.6939    4.0095 C.ar      2 RES2    0.0000
     62 H29        5.1740   13.1889    4.5063 H         2 RES2    0.0000
     63 C30        3.1743   12.7994    4.3357 C.ar      2 RES2    0.0000
     64 C31        2.1982   12.0809    3.5586 C.ar      2 RES2    0.0000
     65 C32        4.5225   10.3181    1.1382 C.ar      2 RES2    0.0000
     66 H30        3.9213    9.8028    0.6117 H         2 RES2    0.0000
     67 C33        5.8609   10.2513    0.8773 C.ar      2 RES2    0.0000
     68 H31        6.1719    9.7066    0.1626 H         2 RES2    0.0000
     69 C34        6.7892   10.9729    1.6505 C.ar      2 RES2    0.0000
     70 H32        7.7180   10.9077    1.4634 H         2 RES2    0.0000
     71 C35        6.3568   11.7628    2.6607 C.ar      2 RES2    0.0000
     72 H33        6.9881   12.2516    3.1745 H         2 RES2    0.0000
     73 C36        0.8265   12.2423    3.9145 C.ar      2 RES2    0.0000
     74 H34        0.1587   11.7783    3.4223 H         2 RES2    0.0000
     75 C37        0.4546   13.0555    4.9515 C.ar      2 RES2    0.0000
     76 H35       -0.4645   13.1455    5.1670 H         2 RES2    0.0000
     77 C38        1.4119   13.7584    5.7033 C.ar      2 RES2    0.0000
     78 H36        1.1382   14.3171    6.4188 H         2 RES2    0.0000
     79 C39        2.7267   13.6358    5.4068 C.ar      2 RES2    0.0000
     80 H37        3.3665   14.1169    5.9207 H         2 RES2    0.0000
     81 C40        1.5842   10.6346    1.5754 C.3       2 RES2    0.0000
     82 H38        1.9975   10.4127    0.7020 H         2 RES2    0.0000
     83 H39        0.8445   11.2709    1.4118 H         2 RES2    0.0000
     84 C41        1.0094    9.3264    2.2273 C.2       2 RES2    0.0000
     85 O4         0.0670    9.2783    2.9913 O.2       2 RES2    0.0000
     86 O5         1.8012    8.3389    1.9623 O.3       2 RES2    0.0000
     87 C42        1.4697    7.0670    2.6003 C.3       2 RES2    0.0000
     88 H40        0.4946    7.0220    2.8158 H         2 RES2    0.0000
     89 C43        2.2956    6.9304    3.8376 C.3       2 RES2    0.0000
     90 H41        2.0642    7.6675    4.4573 H         2 RES2    0.0000
     91 H42        3.2504    7.0282    3.5952 H         2 RES2    0.0000
     92 C44        2.1058    5.6052    4.5644 C.3       2 RES2    0.0000
     93 N2         2.1349    4.4941    3.5669 N.3       2 RES2    0.0000
     94 C45        1.5964    4.5794    2.1861 C.3       2 RES2    0.0000
     95 C46        1.8509    5.9838    1.6201 C.3       2 RES2    0.0000
     96 H43        2.8094    6.0738    1.3911 H         2 RES2    0.0000
     97 H44        1.3275    6.0987    0.7872 H         2 RES2    0.0000
     98 C47        0.7714    5.5415    5.3270 C.3       2 RES2    0.0000
     99 H45        0.0431    5.8348    4.7412 H         2 RES2    0.0000
    100 H46        0.8148    6.1297    6.1117 H         2 RES2    0.0000
    101 H47        0.6045    4.6213    5.6187 H         2 RES2    0.0000
    102 C48        3.2784    5.3895    5.5180 C.3       2 RES2    0.0000
    103 H48        3.1385    4.5624    6.0265 H         2 RES2    0.0000
    104 H49        3.3419    6.1468    6.1349 H         2 RES2    0.0000
    105 H50        4.1099    5.3181    5.0018 H         2 RES2    0.0000
    106 C49        0.1095    4.2303    2.1995 C.3       2 RES2    0.0000
    107 H51       -0.2260    4.1868    1.2801 H         2 RES2    0.0000
    108 H52       -0.3839    4.9177    2.6945 H         2 RES2    0.0000
    109 H53       -0.0191    3.3597    2.6326 H         2 RES2    0.0000
    110 C50        2.3533    3.5552    1.3214 C.3       2 RES2    0.0000
    111 H54        2.1113    3.6778    0.3794 H         2 RES2    0.0000
    112 H55        2.1146    2.6474    1.6053 H         2 RES2    0.0000
    113 H56        3.3182    3.6871    1.4298 H         2 RES2    0.0000
    114 O6         2.2527    3.3049    4.0521 O.2       2 RES2    0.0000
    115 H57        0.8383   11.2740    1.4556 Du        3 SUP3    0.0000
    116 H58        1.9969   10.4965    0.6865 Du        3 SUP3    0.0000
    117 C51        1.0784    9.5127    1.9615 Du        3 SUP3    0.0000
    118 O7        -0.0564    9.1045    1.8067 Du        3 SUP3    0.0000
@<TRIPOS>BOND
     1    1    2 ar
     2    2    3 ar
     3    3    4 ar
     4    4    5 1
     5    6    4 ar
     6    7    1 ar
     7    8    2 ar
     8    9    8 1
     9   10    8 ar
    10   11   10 1
    11   12   10 ar
    12   13   12 1
    13   14    3 ar
    14   15   14 1
    15   16    7 ar
    16   17   16 1
    17   18   16 ar
    18   19   18 1
    19   20   18 ar
    20   21   20 1
    21   22    6 ar
    22   23   22 1
    23   24    1 1
    24   25   24 1
    25   26   24 1
    26   27   24 1
    27   28   27 2
    28   29   27 1
    29   30   29 1
    30   31   30 1
    31   32   30 1
    32   33   32 1
    33   34   32 1
    34   35   32 1
    35   36   35 1
    36   37   36 1
    37   38   30 1
    38   39   38 1
    39   40   38 1
    40   41   35 1
    41   42   41 1
    42   43   41 1
    43   44   41 1
    44   45   35 1
    45   46   45 1
    46   47   45 1
    47   48   45 1
    48   49   37 1
    49   50   49 1
    50   51   49 1
    51   52   49 1
    52   53   37 1
    53   54   53 1
    54   55   53 1
    55   56   53 1
    56   57   36 1
    57   58   59 ar
    58   59   60 ar
    59   60   61 ar
    60   61   62 1
    61   63   61 ar
    62   64   58 ar
    63   65   59 ar
    64   66   65 1
    65   67   65 ar
    66   68   67 1
    67   69   67 ar
    68   70   69 1
    69   71   60 ar
    70   72   71 1
    71   73   64 ar
    72   74   73 1
    73   75   73 ar
    74   76   75 1
    75   77   75 ar
    76   78   77 1
    77   79   63 ar
    78   80   79 1
    79   81   58 1
    80   82   81 1
    81   83   81 1
    82   84   81 1
    83   85   84 2
    84   86   84 1
    85   87   86 1
    86   88   87 1
    87   89   87 1
    88   90   89 1
    89   91   89 1
    90   92   89 1
    91   93   92 1
    92   94   93 1
    93   95   87 1
    94   96   95 1
    95   97   95 1
    96   98   92 1
    97   99   98 1
    98  100   98 1
    99  101   98 1
   100  102   92 1
   101  103  102 1
   102  104  102 1
   103  105  102 1
   104  106   94 1
   105  107  106 1
   106  108  106 1
   107  109  106 1
   108  110   94 1
   109  111  110 1
   110  112  110 1
   111  113  110 1
   112  114   93 1
   113    6    7 ar
   114   12   14 ar
   115   20   22 ar
   116   37   38 1
   117   63   64 ar
   118   69   71 ar
   119   77   79 ar
   120   94   95 1
@<TRIPOS>SUBSTRUCTURE
     1 RES1 1
     2 RES2 58
     3 SUP3 115

@<TRIPOS>CRYSIN
  20.7493   15.5182   25.9268  90.0000  95.4560  90.0000  15 1

