# MOL2 file generated by ConQuest
# Please check atom types

@<TRIPOS>MOLECULE
UPUYIO
    47    48     1
SMALL
NO_CHARGES
****
Generated from CSD

@<TRIPOS>ATOM
      1 O1         3.5647    3.6703   34.0410 O.3       1 RES1    0.0000
      2 O2         2.0881    0.3709   34.6822 O.3       1 RES1    0.0000
      3 H1         2.6721   -0.1759   34.4278 H         1 RES1    0.0000
      4 O3         1.7253    3.2696   31.4969 O.3       1 RES1    0.0000
      5 O4         5.8140   -0.1814   31.9140 O.3       1 RES1    0.0000
      6 N1         3.2861    4.6261   35.0523 N.2       1 RES1    0.0000
      7 N2         3.6678    0.3262   32.4923 N.2       1 RES1    0.0000
      8 N3         3.8499    2.7179   30.9120 N.2       1 RES1    0.0000
      9 C1         2.9605    4.7882   37.4442 C.3       1 RES1    0.0000
     10 H2         2.9018    5.7468   37.2504 H         1 RES1    0.0000
     11 H3         3.7076    4.6233   38.0580 H         1 RES1    0.0000
     12 H4         2.1253    4.4861   37.8579 H         1 RES1    0.0000
     13 C2         3.1843    4.0399   36.1766 C.2       1 RES1    0.0000
     14 C3         3.3801    2.5620   36.1054 C.3       1 RES1    0.0000
     15 H5         2.6146    2.0765   36.5022 H         1 RES1    0.0000
     16 H6         4.2146    2.2862   36.5614 H         1 RES1    0.0000
     17 C4         3.4623    2.3337   34.6015 C.3       1 RES1    0.0000
     18 H7         4.2968    1.8234   34.3907 H         1 RES1    0.0000
     19 C5         2.2558    1.6041   33.9873 C.3       1 RES1    0.0000
     20 C6         0.9559    2.3668   34.1837 C.3       1 RES1    0.0000
     21 H8         0.7334    2.3937   35.1390 H         1 RES1    0.0000
     22 H9         0.2362    1.9172   33.6943 H         1 RES1    0.0000
     23 H10        1.0597    3.2806   33.8462 H         1 RES1    0.0000
     24 C7         2.5566    1.2745   32.4837 C.3       1 RES1    0.0000
     25 H11        1.7592    0.7938   32.1200 H         1 RES1    0.0000
     26 C8         4.7203    0.6048   31.8473 C.2       1 RES1    0.0000
     27 C9         5.7213   -1.3276   32.7856 C.3       1 RES1    0.0000
     28 H12        5.1399   -2.0027   32.3756 H         1 RES1    0.0000
     29 H13        5.3461   -1.0531   33.6499 H         1 RES1    0.0000
     30 H14        6.6146   -1.7062   32.9238 H         1 RES1    0.0000
     31 C10        4.9657    1.7855   30.9428 C.3       1 RES1    0.0000
     32 H15        5.7624    2.2772   31.2939 H         1 RES1    0.0000
     33 C11        5.3050    1.3055   29.5040 C.3       1 RES1    0.0000
     34 H16        6.1050    0.7083   29.5603 H         1 RES1    0.0000
     35 C12        4.1592    0.4986   28.9161 C.3       1 RES1    0.0000
     36 H17        4.4104    0.1765   28.0267 H         1 RES1    0.0000
     37 H18        3.3624    1.0648   28.8454 H         1 RES1    0.0000
     38 H19        3.9667   -0.2669   29.4973 H         1 RES1    0.0000
     39 C13        5.6691    2.4944   28.6202 C.3       1 RES1    0.0000
     40 H20        4.8926    3.0861   28.5342 H         1 RES1    0.0000
     41 H21        5.9360    2.1724   27.7341 H         1 RES1    0.0000
     42 H22        6.4117    2.9882   29.0269 H         1 RES1    0.0000
     43 C14        2.8117    2.4668   31.5836 C.2       1 RES1    0.0000
     44 C15        1.9165    4.4806   30.7409 C.3       1 RES1    0.0000
     45 H23        2.3008    4.2627   29.8678 H         1 RES1    0.0000
     46 H24        2.5253    5.0758   31.2272 H         1 RES1    0.0000
     47 H25        1.0532    4.9275   30.6160 H         1 RES1    0.0000
@<TRIPOS>BOND
     1    1    6 1
     2    2    3 1
     3    4   43 1
     4    5   26 1
     5    6   13 2
     6    7   24 1
     7    8   31 1
     8    9   10 1
     9   11    9 1
    10   12    9 1
    11   13    9 1
    12   14   13 1
    13   15   14 1
    14   16   14 1
    15   17    1 1
    16   18   17 1
    17   19    2 1
    18   20   19 1
    19   21   20 1
    20   22   20 1
    21   23   20 1
    22   24   19 1
    23   25   24 1
    24   26    7 2
    25   27    5 1
    26   28   27 1
    27   29   27 1
    28   30   27 1
    29   31   26 1
    30   32   31 1
    31   33   31 1
    32   34   33 1
    33   35   33 1
    34   36   35 1
    35   37   35 1
    36   38   35 1
    37   39   33 1
    38   40   39 1
    39   41   39 1
    40   42   39 1
    41   43    8 2
    42   44    4 1
    43   45   44 1
    44   46   44 1
    45   47   44 1
    46   14   17 1
    47   17   19 1
    48   24   43 1
@<TRIPOS>SUBSTRUCTURE
     1 RES1 1

@<TRIPOS>CRYSIN
   6.5252    6.8964   37.0430  90.0000  90.0000  90.0000  19 1

