# MOL2 file generated by ConQuest
# Please check atom types

@<TRIPOS>MOLECULE
UQACAR
    28    28     1
SMALL
NO_CHARGES
****
Generated from CSD

@<TRIPOS>ATOM
      1 N1         3.1705    4.2124    0.5649 N.pl3     1 RES1    0.0000
      2 O1         3.4445    6.5974    1.7617 O.2       1 RES1    0.0000
      3 N2         3.6126    3.6976    1.7305 N.2       1 RES1    0.0000
      4 O2         4.3951    6.4778    3.7983 O.3       1 RES1    0.0000
      5 O3         0.8918    1.1269   -4.4151 O.2       1 RES1    0.0000
      6 N3         1.4817    0.6733   -3.4343 N.pl3     1 RES1    0.0000
      7 O4         1.7043   -0.5300   -3.2831 O.2       1 RES1    0.0000
      8 H1         4.6911    8.3811    3.1761 H         1 RES1    0.0000
      9 H2         3.2686    8.1763    3.9487 H         1 RES1    0.0000
     10 H3         4.6887    8.1120    4.7534 H         1 RES1    0.0000
     11 H4         4.4773    2.8189    3.8092 H         1 RES1    0.0000
     12 H5         3.7703    3.9146    4.6676 H         1 RES1    0.0000
     13 H6         5.2947    4.0980    4.3135 H         1 RES1    0.0000
     14 H7         2.4004    0.1798   -1.0301 H         1 RES1    0.0000
     15 H8         3.0551    1.6264    0.6438 H         1 RES1    0.0000
     16 H9         1.5277    3.2741   -3.4551 H         1 RES1    0.0000
     17 H10        3.0792    5.1430    0.4507 H         1 RES1    0.0000
     18 H11        2.2941    4.7788   -1.8027 H         1 RES1    0.0000
     19 C1         1.9200    1.5973   -2.3968 C.ar      1 RES1    0.0000
     20 C2         1.8516    2.9660   -2.6276 C.ar      1 RES1    0.0000
     21 C3         2.2830    3.8340   -1.6322 C.ar      1 RES1    0.0000
     22 C4         2.7551    3.3274   -0.4192 C.ar      1 RES1    0.0000
     23 C5         2.7856    1.9435   -0.1994 C.ar      1 RES1    0.0000
     24 C6         2.3716    1.0808   -1.1961 C.ar      1 RES1    0.0000
     25 C7         3.9699    4.4566    2.7207 C.2       1 RES1    0.0000
     26 C8         4.4119    3.7774    3.9736 C.3       1 RES1    0.0000
     27 C9         3.8998    5.9410    2.6831 C.2       1 RES1    0.0000
     28 C10        4.2527    7.9200    3.9358 C.3       1 RES1    0.0000
@<TRIPOS>BOND
     1    1    3 1
     2    2   27 2
     3    3   25 2
     4    4   27 1
     5    5    6 2
     6    6    7 2
     7    8   28 1
     8    9   28 1
     9   10   28 1
    10   11   26 1
    11   12   26 1
    12   13   26 1
    13   14   24 1
    14   15   23 1
    15   16   20 1
    16   17    1 1
    17   18   21 1
    18   19    6 1
    19   20   19 ar
    20   21   20 ar
    21   22    1 1
    22   23   22 ar
    23   24   19 ar
    24   25   26 1
    25   27   25 1
    26   28    4 1
    27   21   22 ar
    28   23   24 ar
@<TRIPOS>SUBSTRUCTURE
     1 RES1 1

@<TRIPOS>CRYSIN
   7.1530    7.3561   11.0506  76.1680  85.5710  72.0280   2 1

