# MOL2 file generated by ConQuest
# Please check atom types

@<TRIPOS>MOLECULE
UQIDUV
    64    72     1
SMALL
NO_CHARGES
****
Generated from CSD

@<TRIPOS>ATOM
      1 O1        -7.9039  -17.9429  -12.4881 O.3       1 RES1    0.0000
      2 O2        -4.7498  -15.5408  -10.4091 O.2       1 RES1    0.0000
      3 N1        -6.2868  -17.0967   -9.7482 N.am      1 RES1    0.0000
      4 N2        -7.6826  -16.7487  -13.2040 N.2       1 RES1    0.0000
      5 C1        -9.3581  -19.1492  -10.3199 C.ar      1 RES1    0.0000
      6 H1        -9.0621  -19.7541  -10.9610 H         1 RES1    0.0000
      7 C2       -10.6748  -19.1814   -9.9085 C.ar      1 RES1    0.0000
      8 H2       -11.2694  -19.7877  -10.2871 H         1 RES1    0.0000
      9 C3       -11.1045  -18.2999   -8.9232 C.ar      1 RES1    0.0000
     10 H3       -11.9873  -18.3241   -8.6301 H         1 RES1    0.0000
     11 C4       -10.2211  -17.3883   -8.3800 C.ar      1 RES1    0.0000
     12 H4       -10.5179  -16.8046   -7.7193 H         1 RES1    0.0000
     13 C5        -8.8933  -17.3249   -8.8015 C.ar      1 RES1    0.0000
     14 C6        -7.9559  -16.3052   -8.1937 C.3       1 RES1    0.0000
     15 H5        -8.1486  -16.2206   -7.2468 H         1 RES1    0.0000
     16 H6        -8.1124  -15.4419   -8.6088 H         1 RES1    0.0000
     17 C7        -6.4928  -16.6865   -8.3724 C.3       1 RES1    0.0000
     18 H7        -5.9251  -15.9279   -8.1647 H         1 RES1    0.0000
     19 H8        -6.2641  -17.4138   -7.7717 H         1 RES1    0.0000
     20 C8        -5.4874  -16.4882  -10.6422 C.2       1 RES1    0.0000
     21 C9        -5.7147  -17.1565  -12.0066 C.3       1 RES1    0.0000
     22 C10       -4.4256  -17.7523  -12.6805 C.3       1 RES1    0.0000
     23 H9        -3.7540  -17.0665  -12.8791 H         1 RES1    0.0000
     24 C11       -4.9511  -18.4334  -13.9335 C.ar      1 RES1    0.0000
     25 C12       -4.6890  -18.0389  -15.2307 C.ar      1 RES1    0.0000
     26 H10       -4.0805  -17.3564  -15.4016 H         1 RES1    0.0000
     27 C13       -5.3452  -18.6748  -16.2767 C.ar      1 RES1    0.0000
     28 H11       -5.1673  -18.4250  -17.1537 H         1 RES1    0.0000
     29 C14       -6.2609  -19.6770  -16.0209 C.ar      1 RES1    0.0000
     30 H12       -6.6991  -20.0902  -16.7295 H         1 RES1    0.0000
     31 C15       -6.5352  -20.0752  -14.7181 C.ar      1 RES1    0.0000
     32 H13       -7.1540  -20.7484  -14.5490 H         1 RES1    0.0000
     33 C16       -5.8683  -19.4494  -13.6726 C.ar      1 RES1    0.0000
     34 C17       -6.1543  -19.6482  -12.2004 C.3       1 RES1    0.0000
     35 H14       -6.7726  -20.3913  -12.0364 H         1 RES1    0.0000
     36 C18       -4.8458  -19.8097  -11.4515 C.ar      1 RES1    0.0000
     37 C19       -4.5540  -20.7920  -10.5207 C.ar      1 RES1    0.0000
     38 H15       -5.1810  -21.4487  -10.3212 H         1 RES1    0.0000
     39 C20       -3.3163  -20.7904   -9.8862 C.ar      1 RES1    0.0000
     40 H16       -3.1146  -21.4487   -9.2614 H         1 RES1    0.0000
     41 C21       -2.3837  -19.8090  -10.1840 C.ar      1 RES1    0.0000
     42 H17       -1.5529  -19.8213   -9.7665 H         1 RES1    0.0000
     43 C22       -2.6805  -18.8055  -11.1026 C.ar      1 RES1    0.0000
     44 H18       -2.0565  -18.1421  -11.2944 H         1 RES1    0.0000
     45 C23       -3.9140  -18.8079  -11.7254 C.ar      1 RES1    0.0000
     46 C24       -6.7257  -18.2870  -11.7254 C.3       1 RES1    0.0000
     47 C25       -7.0188  -18.2663  -10.2051 C.3       1 RES1    0.0000
     48 H19       -6.6093  -19.0608   -9.8034 H         1 RES1    0.0000
     49 C26       -8.4686  -18.2204   -9.7860 C.ar      1 RES1    0.0000
     50 C27       -6.5135  -16.2910  -12.9626 C.2       1 RES1    0.0000
     51 C28       -6.0150  -15.1166  -13.6989 C.ar      1 RES1    0.0000
     52 C29       -6.7441  -14.6292  -14.7916 C.ar      1 RES1    0.0000
     53 H20       -7.5603  -15.0162  -15.0129 H         1 RES1    0.0000
     54 C30       -6.2586  -13.5788  -15.5414 C.ar      1 RES1    0.0000
     55 H21       -6.7601  -13.2627  -16.2585 H         1 RES1    0.0000
     56 C31       -5.0346  -12.9811  -15.2491 C.ar      1 RES1    0.0000
     57 C32       -4.3314  -13.4532  -14.1489 C.ar      1 RES1    0.0000
     58 H22       -3.5209  -13.0569  -13.9233 H         1 RES1    0.0000
     59 C33       -4.8101  -14.5018  -13.3777 C.ar      1 RES1    0.0000
     60 H23       -4.3223  -14.7949  -12.6422 H         1 RES1    0.0000
     61 C34       -4.4730  -11.8789  -16.1045 C.3       1 RES1    0.0000
     62 H24       -4.0643  -11.2152  -15.5435 H         1 RES1    0.0000
     63 H25       -5.1810  -11.4757  -16.6132 H         1 RES1    0.0000
     64 H26       -3.8150  -12.2418  -16.7026 H         1 RES1    0.0000
@<TRIPOS>BOND
     1    1    4 1
     2    2   20 2
     3    3   17 1
     4    4   50 2
     5    5    6 1
     6    7    5 ar
     7    8    7 1
     8    9    7 ar
     9   10    9 1
    10   11    9 ar
    11   12   11 1
    12   13   11 ar
    13   14   13 1
    14   15   14 1
    15   16   14 1
    16   17   14 1
    17   18   17 1
    18   19   17 1
    19   20    3 1
    20   21   20 1
    21   22   21 1
    22   23   22 1
    23   24   22 1
    24   25   24 ar
    25   26   25 1
    26   27   25 ar
    27   28   27 1
    28   29   27 ar
    29   30   29 1
    30   31   29 ar
    31   32   31 1
    32   33   24 ar
    33   34   33 1
    34   35   34 1
    35   36   34 1
    36   37   36 ar
    37   38   37 1
    38   39   37 ar
    39   40   39 1
    40   41   39 ar
    41   42   41 1
    42   43   41 ar
    43   44   43 1
    44   45   22 1
    45   46    1 1
    46   47    3 1
    47   48   47 1
    48   49    5 ar
    49   50   21 1
    50   51   50 1
    51   52   51 ar
    52   53   52 1
    53   54   52 ar
    54   55   54 1
    55   56   54 ar
    56   57   56 ar
    57   58   57 1
    58   59   51 ar
    59   60   59 1
    60   61   56 1
    61   62   61 1
    62   63   61 1
    63   64   61 1
    64   13   49 ar
    65   21   46 1
    66   31   33 ar
    67   34   46 1
    68   36   45 ar
    69   43   45 ar
    70   46   47 1
    71   47   49 1
    72   57   59 ar
@<TRIPOS>SUBSTRUCTURE
     1 RES1 1

@<TRIPOS>CRYSIN
  12.4634   14.0050   14.1872  90.0000  90.0000  90.0000  19 1

