# MOL2 file generated by ConQuest
# Please check atom types

@<TRIPOS>MOLECULE
UQIJOU
    39    41     1
SMALL
NO_CHARGES
****
Generated from CSD

@<TRIPOS>ATOM
      1 O1         2.4222    7.9157    6.8981 O.3       1 RES1    0.0000
      2 O2        -0.8466    9.0405    5.7108 O.3       1 RES1    0.0000
      3 O3        -0.4825   11.2090    5.7521 O.2       1 RES1    0.0000
      4 O4        -0.9358    4.7577    6.5791 O.3       1 RES1    0.0000
      5 O5        -1.3736    2.1913    5.8951 O.3       1 RES1    0.0000
      6 O6         0.6550    0.5814    5.1806 O.3       1 RES1    0.0000
      7 N1         2.7041    6.5841    6.4796 N.2       1 RES1    0.0000
      8 C1         0.9800    8.0811    6.9371 C.3       1 RES1    0.0000
      9 H1         0.7328    8.6372    7.7051 H         1 RES1    0.0000
     10 C2         0.5543    8.7630    5.6580 C.3       1 RES1    0.0000
     11 H2         1.0484    9.5891    5.5463 H         1 RES1    0.0000
     12 H3         0.7472    8.1881    4.8999 H         1 RES1    0.0000
     13 C3        -1.2497   10.3097    5.7781 C.2       1 RES1    0.0000
     14 C4        -2.7189   10.4286    5.8806 C.3       1 RES1    0.0000
     15 H4        -3.1144    9.5541    5.8424 H         1 RES1    0.0000
     16 H5        -3.0485   10.9605    5.1531 H         1 RES1    0.0000
     17 H6        -2.9490   10.8475    6.7137 H         1 RES1    0.0000
     18 C5         0.4642    6.6693    7.1429 C.3       1 RES1    0.0000
     19 H7         0.3840    6.4940    8.1037 H         1 RES1    0.0000
     20 C6        -0.7896    6.1797    6.4429 C.3       1 RES1    0.0000
     21 H8        -1.5648    6.6204    6.8231 H         1 RES1    0.0000
     22 H9        -0.7438    6.4106    5.5019 H         1 RES1    0.0000
     23 C7         0.1530    3.9964    6.2279 C.ar      1 RES1    0.0000
     24 C8        -0.0854    2.6683    5.9020 C.ar      1 RES1    0.0000
     25 C9        -1.6870    1.3187    6.9799 C.3       1 RES1    0.0000
     26 H10       -2.5964    1.0218    6.8988 H         1 RES1    0.0000
     27 H11       -1.5761    1.7882    7.8099 H         1 RES1    0.0000
     28 H12       -1.0997    0.5593    6.9593 H         1 RES1    0.0000
     29 C10        0.9865    1.8554    5.5363 C.ar      1 RES1    0.0000
     30 C11        1.6951   -0.2460    4.6512 C.3       1 RES1    0.0000
     31 H13        1.3371   -1.1106    4.4332 H         1 RES1    0.0000
     32 H14        2.3907   -0.3442    5.3053 H         1 RES1    0.0000
     33 H15        2.0552    0.1613    3.8595 H         1 RES1    0.0000
     34 C12        2.2885    2.3626    5.5287 C.ar      1 RES1    0.0000
     35 H16        3.0016    1.8178    5.2831 H         1 RES1    0.0000
     36 C13        2.5079    3.6606    5.8829 C.ar      1 RES1    0.0000
     37 H17        3.3794    3.9851    5.9043 H         1 RES1    0.0000
     38 C14        1.4572    4.5133    6.2141 C.ar      1 RES1    0.0000
     39 C15        1.6321    5.8970    6.5989 C.2       1 RES1    0.0000
@<TRIPOS>BOND
     1    1    7 1
     2    2   10 1
     3    3   13 2
     4    4   20 1
     5    5   24 1
     6    6   29 1
     7    7   39 2
     8    8    1 1
     9    9    8 1
    10   10    8 1
    11   11   10 1
    12   12   10 1
    13   13    2 1
    14   14   13 1
    15   15   14 1
    16   16   14 1
    17   17   14 1
    18   18    8 1
    19   19   18 1
    20   20   18 1
    21   21   20 1
    22   22   20 1
    23   23    4 1
    24   24   23 ar
    25   25    5 1
    26   26   25 1
    27   27   25 1
    28   28   25 1
    29   29   24 ar
    30   30    6 1
    31   31   30 1
    32   32   30 1
    33   33   30 1
    34   34   29 ar
    35   35   34 1
    36   36   34 ar
    37   37   36 1
    38   38   23 ar
    39   39   18 1
    40   36   38 ar
    41   38   39 1
@<TRIPOS>SUBSTRUCTURE
     1 RES1 1

@<TRIPOS>CRYSIN
   7.1337   26.8903    7.6505  90.0000  90.6140  90.0000 231 1

