# MOL2 file generated by ConQuest
# Please check atom types

@<TRIPOS>MOLECULE
UQIKAH
    30    33     1
SMALL
NO_CHARGES
****
Generated from CSD

@<TRIPOS>ATOM
      1 C1         9.4451    3.8244    8.4432 C.2       1 RES1    0.0000
      2 H1         9.6699    3.0003    8.0774 H         1 RES1    0.0000
      3 C2         9.2652    4.0516    9.7507 C.2       1 RES1    0.0000
      4 C3         9.2829    3.2165   10.9956 C.3       1 RES1    0.0000
      5 H2         8.9568    2.3237   10.8000 H         1 RES1    0.0000
      6 H3        10.1895    3.1433   11.3325 H         1 RES1    0.0000
      7 C4         8.8664    5.1637   12.2733 C.3       1 RES1    0.0000
      8 H4         9.7949    5.1878   12.5869 H         1 RES1    0.0000
      9 C5         8.6366    6.1146   11.0998 C.3       1 RES1    0.0000
     10 H5         9.1841    6.9216   11.1960 H         1 RES1    0.0000
     11 C6         8.9433    5.4161    9.8077 C.2       1 RES1    0.0000
     12 C7         6.7862    6.3550   12.4940 C.3       1 RES1    0.0000
     13 H6         5.9743    5.8093   12.5495 H         1 RES1    0.0000
     14 C8         7.9100    5.7248   13.3009 C.3       1 RES1    0.0000
     15 H7         7.5965    5.0550   13.9440 H         1 RES1    0.0000
     16 C9         7.5728    7.8853   14.0535 C.3       1 RES1    0.0000
     17 C10        8.2344    9.1845   13.7376 C.3       1 RES1    0.0000
     18 H8         8.9078    9.3692   14.3968 H         1 RES1    0.0000
     19 H9         7.5804    9.8870   13.7436 H         1 RES1    0.0000
     20 H10        8.6416    9.1339   12.8695 H         1 RES1    0.0000
     21 C11        6.9434    7.8403   15.4207 C.3       1 RES1    0.0000
     22 H11        7.6109    8.0204   16.0859 H         1 RES1    0.0000
     23 H12        6.5674    6.9700   15.5716 H         1 RES1    0.0000
     24 H13        6.2497    8.5023   15.4762 H         1 RES1    0.0000
     25 N1         8.9281    5.9930    8.6347 N.2       1 RES1    0.0000
     26 O1         9.2550    4.9482    7.7324 O.3       1 RES1    0.0000
     27 O2         8.4436    3.8419   11.9767 O.3       1 RES1    0.0000
     28 O3         7.2412    6.4395   11.1505 O.3       1 RES1    0.0000
     29 O4         6.5718    7.6132   13.0566 O.3       1 RES1    0.0000
     30 O5         8.5348    6.8412   13.9143 O.3       1 RES1    0.0000
@<TRIPOS>BOND
     1    1    2 1
     2    3    1 2
     3    4    3 1
     4    5    4 1
     5    6    4 1
     6    7    8 1
     7    9    7 1
     8   10    9 1
     9   11    3 1
    10   12   13 1
    11   14    7 1
    12   15   14 1
    13   16   17 1
    14   17   18 1
    15   19   17 1
    16   20   17 1
    17   21   16 1
    18   22   21 1
    19   23   21 1
    20   24   21 1
    21   25   11 2
    22   26    1 1
    23   27    4 1
    24   28    9 1
    25   29   12 1
    26   30   14 1
    27    7   27 1
    28    9   11 1
    29   12   14 1
    30   12   28 1
    31   16   29 1
    32   16   30 1
    33   25   26 1
@<TRIPOS>SUBSTRUCTURE
     1 RES1 1

@<TRIPOS>CRYSIN
   8.4490   11.2583   12.0738  90.0000  90.0000  90.0000  19 1

