# MOL2 file generated by ConQuest
# Please check atom types

@<TRIPOS>MOLECULE
UQIYOK
    31    33     1
SMALL
NO_CHARGES
****
Generated from CSD

@<TRIPOS>ATOM
      1 O1         2.6704    5.3790    9.3197 O.2       1 RES1    0.0000
      2 O2         4.0625    5.0744   11.6694 O.3       1 RES1    0.0000
      3 O3         0.8335    0.4232   14.4934 O.2       1 RES1    0.0000
      4 O4         1.0329    0.8814   16.5830 O.2       1 RES1    0.0000
      5 N1         1.2447    1.1279   15.3995 N.pl3     1 RES1    0.0000
      6 C1         3.3920    4.6152   14.4459 C.ar      1 RES1    0.0000
      7 H1         3.8868    5.4250   14.2299 H         1 RES1    0.0000
      8 C2         3.2872    4.2049   15.7673 C.ar      1 RES1    0.0000
      9 H2         3.7204    4.7406   16.4871 H         1 RES1    0.0000
     10 C3         2.5847    3.0594   16.0948 C.ar      1 RES1    0.0000
     11 H3         2.5011    2.7803   16.9909 H         1 RES1    0.0000
     12 C4         2.0083    2.3364   15.0641 C.ar      1 RES1    0.0000
     13 C5         2.1036    2.7109   13.7342 C.ar      1 RES1    0.0000
     14 H4         1.7104    2.1889   13.0556 H         1 RES1    0.0000
     15 C6         2.7957    3.8760   13.4235 C.ar      1 RES1    0.0000
     16 C7         2.8993    4.3075   12.0009 C.3       1 RES1    0.0000
     17 H5         2.6342    3.6373   11.3083 H         1 RES1    0.0000
     18 C8         2.7861    5.7341   11.6373 C.3       1 RES1    0.0000
     19 H6         2.6426    6.3690   12.3486 H         1 RES1    0.0000
     20 C9         2.3184    6.0791   10.2480 C.2       1 RES1    0.0000
     21 C10        1.4744    7.2891   10.0278 C.ar      1 RES1    0.0000
     22 C11        0.9405    8.0509   11.0645 C.ar      1 RES1    0.0000
     23 H7         1.0941    7.7879   11.9910 H         1 RES1    0.0000
     24 C12        0.1889    9.1846   10.7809 C.ar      1 RES1    0.0000
     25 H8        -0.2081    9.7275   11.5338 H         1 RES1    0.0000
     26 C13       -0.0171    9.5711    9.4664 C.ar      1 RES1    0.0000
     27 H9        -0.5368   10.3868    9.2665 H         1 RES1    0.0000
     28 C14        0.5048    8.8123    8.4357 C.ar      1 RES1    0.0000
     29 H10        0.3479    9.0888    7.4847 H         1 RES1    0.0000
     30 C15        1.2422    7.6726    8.7078 C.ar      1 RES1    0.0000
     31 H11        1.6076    7.1256    7.9581 H         1 RES1    0.0000
@<TRIPOS>BOND
     1    1   20 2
     2    2   16 1
     3    3    5 2
     4    4    5 2
     5    5   12 1
     6    6    7 1
     7    8    6 ar
     8    9    8 1
     9   10    8 ar
    10   11   10 1
    11   12   10 ar
    12   13   12 ar
    13   14   13 1
    14   15    6 ar
    15   16   15 1
    16   17   16 1
    17   18    2 1
    18   19   18 1
    19   20   18 1
    20   21   20 1
    21   22   21 ar
    22   23   22 1
    23   24   22 ar
    24   25   24 1
    25   26   24 ar
    26   27   26 1
    27   28   26 ar
    28   29   28 1
    29   30   21 ar
    30   31   30 1
    31   13   15 ar
    32   16   18 1
    33   28   30 ar
@<TRIPOS>SUBSTRUCTURE
     1 RES1 1

@<TRIPOS>CRYSIN
   4.1615   14.7498   20.3168  90.0000  90.0000  90.0000  19 1

