# MOL2 file generated by ConQuest
# Please check atom types

@<TRIPOS>MOLECULE
UQOHIS
    90    94     2
SMALL
NO_CHARGES
****
Generated from CSD

@<TRIPOS>ATOM
      1 C1        -3.0689    6.9521   14.8550 C.3       1 RES1    0.0000
      2 H1        -3.4608    6.2814   15.4359 H         1 RES1    0.0000
      3 H2        -2.1668    7.1256   15.1679 H         1 RES1    0.0000
      4 C2        -3.0078    6.4125   13.4526 C.3       1 RES1    0.0000
      5 H3        -3.9005    6.1658   13.1638 H         1 RES1    0.0000
      6 H4        -2.4570    5.6145   13.4398 H         1 RES1    0.0000
      7 C3        -2.4296    7.4398   12.4787 C.3       1 RES1    0.0000
      8 C4        -3.2422    8.7330   12.6760 C.3       1 RES1    0.0000
      9 H5        -2.8433    9.4404   12.1449 H         1 RES1    0.0000
     10 H6        -4.1458    8.5923   12.3519 H         1 RES1    0.0000
     11 C5        -3.2960    9.1725   14.1330 C.3       1 RES1    0.0000
     12 H7        -2.3833    9.3633   14.4330 H         1 RES1    0.0000
     13 C6        -4.1287   10.4137   14.3255 C.ar      1 RES1    0.0000
     14 C7        -5.3020   10.4561   15.0540 C.ar      1 RES1    0.0000
     15 H8        -5.5978    9.6948   15.4985 H         1 RES1    0.0000
     16 C8        -6.0459   11.6376   15.1246 C.ar      1 RES1    0.0000
     17 H9        -6.8514   11.6492   15.5915 H         1 RES1    0.0000
     18 C9        -5.5959   12.7767   14.5117 C.ar      1 RES1    0.0000
     19 H10       -6.0728   13.5728   14.5710 H         1 RES1    0.0000
     20 C10       -4.4140   12.7093   13.8057 C.ar      1 RES1    0.0000
     21 C11       -3.6925   11.5548   13.6933 C.ar      1 RES1    0.0000
     22 H11       -2.9096   11.5413   13.1911 H         1 RES1    0.0000
     23 C12       -2.5266    6.9676   11.0265 C.3       1 RES1    0.0000
     24 H12       -2.2039    7.6576   10.4425 H         1 RES1    0.0000
     25 H13       -3.4428    6.7710   10.8147 H         1 RES1    0.0000
     26 H14       -1.9952    6.1773   10.9110 H         1 RES1    0.0000
     27 C13       -0.0110    6.8750   12.9119 C.2       1 RES1    0.0000
     28 C14        1.3430    7.4899   13.0932 C.ar      1 RES1    0.0000
     29 C15        1.5630    8.7504   13.5955 C.ar      1 RES1    0.0000
     30 H15        0.8435    9.2612   13.8923 H         1 RES1    0.0000
     31 C16        2.8355    9.2669   13.6644 C.ar      1 RES1    0.0000
     32 H16        2.9734   10.1131   14.0255 H         1 RES1    0.0000
     33 C17        3.9039    8.5345   13.2023 C.ar      1 RES1    0.0000
     34 H17        4.7600    8.8988   13.2168 H         1 RES1    0.0000
     35 C18        3.7056    7.2644   12.7210 C.ar      1 RES1    0.0000
     36 H18        4.4271    6.7594   12.4257 H         1 RES1    0.0000
     37 C19        2.4388    6.7459   12.6776 C.ar      1 RES1    0.0000
     38 H19        2.3106    5.8805   12.3648 H         1 RES1    0.0000
     39 C20        2.0174   12.8847    8.7064 C.3       2 RES2    0.0000
     40 H20        2.4195   13.5169    8.0886 H         2 RES2    0.0000
     41 H21        2.4188   13.0215    9.5792 H         2 RES2    0.0000
     42 C21        0.5256   13.1449    8.7930 C.3       2 RES2    0.0000
     43 H22        0.1355   13.0658    7.9089 H         2 RES2    0.0000
     44 H23        0.3772   14.0507    9.1059 H         2 RES2    0.0000
     45 C22       -0.1702   12.1677    9.7365 C.3       2 RES2    0.0000
     46 C23        0.2771   10.7491    9.3337 C.3       2 RES2    0.0000
     47 H24       -0.0276   10.1227   10.0093 H         2 RES2    0.0000
     48 H25       -0.1544   10.5120    8.4978 H         2 RES2    0.0000
     49 C24        1.7526   10.6007    9.1717 C.3       2 RES2    0.0000
     50 H26        2.1816   10.7144   10.0462 H         2 RES2    0.0000
     51 C25        2.0955    9.2284    8.6293 C.ar      2 RES2    0.0000
     52 C26        1.9708    8.1221    9.4188 C.ar      2 RES2    0.0000
     53 H27        1.7209    8.2377   10.3077 H         2 RES2    0.0000
     54 C27        2.1978    6.8346    8.9631 C.ar      2 RES2    0.0000
     55 H28        2.0724    6.1079    9.5295 H         2 RES2    0.0000
     56 C28        2.6031    6.6437    7.6859 C.ar      2 RES2    0.0000
     57 H29        2.7794    5.7938    7.3537 H         2 RES2    0.0000
     58 C29        2.7440    7.7616    6.9028 C.ar      2 RES2    0.0000
     59 C30        2.4875    9.0395    7.3361 C.ar      2 RES2    0.0000
     60 H30        2.5789    9.7642    6.7584 H         2 RES2    0.0000
     61 C31       -1.6876   12.2872    9.6659 C.3       2 RES2    0.0000
     62 H31       -2.0865   11.6511   10.2660 H         2 RES2    0.0000
     63 H32       -1.9812   12.1079    8.7689 H         2 RES2    0.0000
     64 H33       -1.9517   13.1738    9.9194 H         2 RES2    0.0000
     65 C32        0.0229   11.7976   12.2300 C.2       2 RES2    0.0000
     66 C33        0.6329   12.3219   13.4783 C.ar      2 RES2    0.0000
     67 C34        1.8112   13.0466   13.4912 C.ar      2 RES2    0.0000
     68 H34        2.2377   13.2489   12.6905 H         2 RES2    0.0000
     69 C35        2.3591   13.4745   14.6850 C.ar      2 RES2    0.0000
     70 H35        3.1513   13.9621   14.6801 H         2 RES2    0.0000
     71 C36        1.7376   13.1834   15.8868 C.ar      2 RES2    0.0000
     72 H36        2.1117   13.4571   16.6939 H         2 RES2    0.0000
     73 C37        0.5504   12.4780   15.8659 C.ar      2 RES2    0.0000
     74 H37        0.1069   12.2930   16.6634 H         2 RES2    0.0000
     75 C38        0.0308   12.0559   14.6946 C.ar      2 RES2    0.0000
     76 H38       -0.7614   11.5683   14.7058 H         2 RES2    0.0000
     77 N1        -1.0205    7.7636   12.7964 N.am      1 RES1    0.0000
     78 H39       -0.8265    8.5943   12.9167 H         1 RES1    0.0000
     79 N2        -3.9667   13.9351   13.1702 N.pl3     1 RES1    0.0000
     80 N3         0.2891   12.4799   11.1020 N.am      2 RES2    0.0000
     81 H40        0.7847   13.1796   11.1870 H         2 RES2    0.0000
     82 N4         3.2011    7.5785    5.5085 N.pl3     2 RES2    0.0000
     83 O1        -3.8339    8.1568   14.9513 O.3       1 RES1    0.0000
     84 O2        -0.1725    5.6550   12.8927 O.2       1 RES1    0.0000
     85 O3        -4.6100   14.9605   13.2874 O.2       1 RES1    0.0000
     86 O4        -2.9174   13.9023   12.5846 O.2       1 RES1    0.0000
     87 O5         2.2856   11.5605    8.2667 O.3       2 RES2    0.0000
     88 O6        -0.6755   10.7761   12.2364 O.2       2 RES2    0.0000
     89 O7         3.4737    6.4761    5.1266 O.2       2 RES2    0.0000
     90 O8         3.2387    8.5133    4.7816 O.2       2 RES2    0.0000
@<TRIPOS>BOND
     1    1    2 1
     2    3    1 1
     3    4    1 1
     4    5    4 1
     5    6    4 1
     6    7    4 1
     7    8    7 1
     8    9    8 1
     9   10    8 1
    10   11    8 1
    11   12   11 1
    12   13   11 1
    13   14   13 ar
    14   15   14 1
    15   16   14 ar
    16   17   16 1
    17   18   16 ar
    18   19   18 1
    19   20   18 ar
    20   21   13 ar
    21   22   21 1
    22   23    7 1
    23   24   23 1
    24   25   23 1
    25   26   23 1
    26   27   28 1
    27   28   29 ar
    28   29   30 1
    29   31   29 ar
    30   32   31 1
    31   33   31 ar
    32   34   33 1
    33   35   33 ar
    34   36   35 1
    35   37   28 ar
    36   38   37 1
    37   39   40 1
    38   41   39 1
    39   42   39 1
    40   43   42 1
    41   44   42 1
    42   45   42 1
    43   46   45 1
    44   47   46 1
    45   48   46 1
    46   49   46 1
    47   50   49 1
    48   51   49 1
    49   52   51 ar
    50   53   52 1
    51   54   52 ar
    52   55   54 1
    53   56   54 ar
    54   57   56 1
    55   58   56 ar
    56   59   51 ar
    57   60   59 1
    58   61   45 1
    59   62   61 1
    60   63   61 1
    61   64   61 1
    62   65   66 1
    63   66   67 ar
    64   67   68 1
    65   69   67 ar
    66   70   69 1
    67   71   69 ar
    68   72   71 1
    69   73   71 ar
    70   74   73 1
    71   75   66 ar
    72   76   75 1
    73   77    7 1
    74   78   77 1
    75   79   20 1
    76   80   45 1
    77   81   80 1
    78   82   58 1
    79   83    1 1
    80   84   27 2
    81   85   79 2
    82   86   79 2
    83   87   39 1
    84   88   65 2
    85   89   82 2
    86   90   82 2
    87   11   83 1
    88   20   21 ar
    89   27   77 1
    90   35   37 ar
    91   49   87 1
    92   58   59 ar
    93   65   80 1
    94   73   75 ar
@<TRIPOS>SUBSTRUCTURE
     1 RES1 1
     2 RES2 39

@<TRIPOS>CRYSIN
  11.6207   19.2740   16.3163  90.0000 100.4510  90.0000 231 1

