# MOL2 file generated by ConQuest
# Please check atom types

@<TRIPOS>MOLECULE
URATOX
    44    46     2
SMALL
USER_CHARGES
****
Generated from CSD

@<TRIPOS>ATOM
      1 O1        -0.9085    2.9739   21.9184 O.3       1 RES1    0.0000
      2 O2         0.4084    4.5093   22.8970 O.3       1 RES1    0.0000
      3 O3        -3.3961    4.3443   25.1561 O.2       1 RES1   -1.0000
      4 N1        -2.2877    3.9342   24.6299 N.pl3     1 RES1    1.0000
      5 C1        -0.8995    2.5937   23.2836 C.3       1 RES1    0.0000
      6 H1        -0.4955    1.7114   23.4203 H         1 RES1    0.0000
      7 C2        -1.1226    4.4641   24.7341 C.2       1 RES1    0.0000
      8 H2        -0.9418    5.2294   25.2289 H         1 RES1    0.0000
      9 C3        -0.0991    3.7097   23.9694 C.3       1 RES1    0.0000
     10 H3         0.6134    3.3595   24.5429 H         1 RES1    0.0000
     11 C4         0.2463    3.7800   21.6939 C.3       1 RES1    0.0000
     12 C5        -0.0399    4.7463   20.5872 C.3       1 RES1    0.0000
     13 H4        -0.8128    5.2691   20.8114 H         1 RES1    0.0000
     14 H5        -0.2048    4.2626   19.7746 H         1 RES1    0.0000
     15 H6         0.7145    5.3269   20.4658 H         1 RES1    0.0000
     16 C6         1.4669    2.9287   21.4452 C.3       1 RES1    0.0000
     17 H7         1.3481    2.4281   20.6347 H         1 RES1    0.0000
     18 H8         1.5907    2.3236   22.1808 H         1 RES1    0.0000
     19 H9         2.2397    3.4930   21.3623 H         1 RES1    0.0000
     20 C7        -2.2905    2.6792   23.8644 C.3       1 RES1    0.0000
     21 H10       -2.9584    2.7043   23.1605 H         1 RES1    0.0000
     22 H11       -2.4708    1.9216   24.4415 H         1 RES1    0.0000
     23 O4        -2.1597    1.9951   16.1149 O.3       2 RES2    0.0000
     24 O5        -1.0010    3.5888   17.1974 O.3       2 RES2    0.0000
     25 O6         1.3938    2.0333   13.7702 O.2       2 RES2   -1.0000
     26 N2         0.4229    2.5768   14.4051 N.pl3     2 RES2    1.0000
     27 C8        -1.7996    2.9129   15.0866 C.3       2 RES2    0.0000
     28 H12       -2.5785    3.3693   14.7049 H         2 RES2    0.0000
     29 C9        -0.9677    2.2266   14.0405 C.3       2 RES2    0.0000
     30 H13       -1.1019    1.2664   14.0657 H         2 RES2    0.0000
     31 H14       -1.1866    2.5529   13.1536 H         2 RES2    0.0000
     32 C10        0.4834    3.4777   15.3143 C.2       2 RES2    0.0000
     33 H15        1.2809    3.8394   15.6274 H         2 RES2    0.0000
     34 C11       -0.8512    3.8819   15.8132 C.3       2 RES2    0.0000
     35 H16       -1.0538    4.8192   15.6092 H         2 RES2    0.0000
     36 C12       -2.0964    2.7054   17.3466 C.3       2 RES2    0.0000
     37 C13       -3.3750    3.4668   17.5869 C.3       2 RES2    0.0000
     38 H17       -4.0972    2.8475   17.7114 H         2 RES2    0.0000
     39 H18       -3.5614    4.0273   16.8305 H         2 RES2    0.0000
     40 H19       -3.2804    4.0115   18.3714 H         2 RES2    0.0000
     41 C14       -1.7749    1.7114   18.4379 C.3       2 RES2    0.0000
     42 H20       -0.9511    1.2636   18.2311 H         2 RES2    0.0000
     43 H21       -2.4825    1.0665   18.5013 H         2 RES2    0.0000
     44 H22       -1.6854    2.1732   19.2757 H         2 RES2    0.0000
@<TRIPOS>BOND
     1    1    5 1
     2    2    9 1
     3    3    4 1
     4    4    7 2
     5    5    6 1
     6    7    8 1
     7    9    5 1
     8   10    9 1
     9   11    1 1
    10   12   11 1
    11   13   12 1
    12   14   12 1
    13   15   12 1
    14   16   11 1
    15   17   16 1
    16   18   16 1
    17   19   16 1
    18   20    4 1
    19   21   20 1
    20   22   20 1
    21   23   27 1
    22   24   34 1
    23   25   26 1
    24   26   29 1
    25   27   28 1
    26   29   27 1
    27   30   29 1
    28   31   29 1
    29   32   26 2
    30   33   32 1
    31   34   27 1
    32   35   34 1
    33   36   23 1
    34   37   36 1
    35   38   37 1
    36   39   37 1
    37   40   37 1
    38   41   36 1
    39   42   41 1
    40   43   41 1
    41   44   41 1
    42    2   11 1
    43    5   20 1
    44    7    9 1
    45   24   36 1
    46   32   34 1
@<TRIPOS>SUBSTRUCTURE
     1 RES1 1
     2 RES2 23

@<TRIPOS>CRYSIN
  11.3350    5.4467   26.5080  90.0000 101.4000  90.0000   5 1

