# MOL2 file generated by ConQuest
# Please check atom types

@<TRIPOS>MOLECULE
UREAOH
     9     8     1
SMALL
NO_CHARGES
****
Generated from CSD

@<TRIPOS>ATOM
      1 C1        -0.3117   -2.3179    3.5616 C.2       1 RES1    0.0000
      2 H1        -1.2020   -3.2470    5.9949 H         1 RES1    0.0000
      3 H2         0.7469   -3.8973    4.5357 H         1 RES1    0.0000
      4 H3        -1.3058   -1.0171    4.6260 H         1 RES1    0.0000
      5 H4        -1.4921   -0.8851    3.0088 H         1 RES1    0.0000
      6 N1         0.0034   -3.0426    4.6387 N.am      1 RES1    0.0000
      7 N2        -1.0895   -1.2572    3.7211 N.am      1 RES1    0.0000
      8 O1        -0.4953   -2.6367    5.8911 O.3       1 RES1    0.0000
      9 O2         0.1593   -2.6851    2.4461 O.2       1 RES1    0.0000
@<TRIPOS>BOND
     1    1    6 1
     2    2    8 1
     3    3    6 1
     4    4    7 1
     5    5    7 1
     6    6    8 1
     7    7    1 1
     8    9    1 2
@<TRIPOS>SUBSTRUCTURE
     1 RES1 1

@<TRIPOS>CRYSIN
   8.4600    4.8900    8.8600  90.0000 121.9000  90.0000  14 1

