# MOL2 file generated by ConQuest
# Please check atom types

@<TRIPOS>MOLECULE
UREDOL
    39    40     1
SMALL
NO_CHARGES
****
Generated from CSD

@<TRIPOS>ATOM
      1 N1         6.5044    1.6588    7.5932 N.pl3     1 RES1    0.0000
      2 H1         7.2779    1.7225    7.2224 H         1 RES1    0.0000
      3 N2         5.3950    2.1476    6.9436 N.2       1 RES1    0.0000
      4 N3         8.8459    0.5942    8.9595 N.pl3     1 RES1    0.0000
      5 N4         5.9640   -0.7102   12.6237 N.pl3     1 RES1    0.0000
      6 O1         9.0702    1.2019    7.9087 O.2       1 RES1    0.0000
      7 O2         9.7367    0.0296    9.5918 O.2       1 RES1    0.0000
      8 O3         6.9589   -1.2294   13.1403 O.2       1 RES1    0.0000
      9 O4         4.8626   -0.6997   13.1553 O.2       1 RES1    0.0000
     10 O5         6.2104    3.9926    3.4794 O.3       1 RES1    0.0000
     11 O6         4.2877    5.0198    1.8385 O.3       1 RES1    0.0000
     12 C1         6.3901    1.0827    8.8038 C.ar      1 RES1    0.0000
     13 C2         7.5042    0.5541    9.5091 C.ar      1 RES1    0.0000
     14 C3         7.3482   -0.0225   10.7475 C.ar      1 RES1    0.0000
     15 H2         8.0897   -0.3563   11.1993 H         1 RES1    0.0000
     16 C4         6.1216   -0.1060   11.3151 C.ar      1 RES1    0.0000
     17 C5         4.9941    0.3890   10.6387 C.ar      1 RES1    0.0000
     18 H3         4.1528    0.3298   11.0313 H         1 RES1    0.0000
     19 C6         5.1334    0.9506    9.4237 C.ar      1 RES1    0.0000
     20 H4         4.3768    1.2593    8.9788 H         1 RES1    0.0000
     21 C7         5.6253    2.6546    5.7939 C.2       1 RES1    0.0000
     22 H5         6.4961    2.6657    5.4661 H         1 RES1    0.0000
     23 C8         4.5532    3.2161    4.9867 C.ar      1 RES1    0.0000
     24 C9         4.8774    3.8342    3.7758 C.ar      1 RES1    0.0000
     25 C10        3.8659    4.3871    2.9700 C.ar      1 RES1    0.0000
     26 C11        2.5566    4.2776    3.3901 C.ar      1 RES1    0.0000
     27 H6         1.8769    4.6220    2.8570 H         1 RES1    0.0000
     28 C12        2.2346    3.6662    4.5872 C.ar      1 RES1    0.0000
     29 H7         1.3450    3.6151    4.8558 H         1 RES1    0.0000
     30 C13        3.2181    3.1338    5.3820 C.ar      1 RES1    0.0000
     31 H8         2.9943    2.7181    6.1824 H         1 RES1    0.0000
     32 C14        6.6871    3.5539    2.2151 C.3       1 RES1    0.0000
     33 H9         6.0472    2.9559    1.8225 H         1 RES1    0.0000
     34 H10        7.5240    3.0971    2.3294 H         1 RES1    0.0000
     35 H11        6.8121    4.3123    1.6393 H         1 RES1    0.0000
     36 C15        3.2978    5.4761    0.9298 C.3       1 RES1    0.0000
     37 H12        2.7532    4.7358    0.6502 H         1 RES1    0.0000
     38 H13        3.7235    5.8671    0.1625 H         1 RES1    0.0000
     39 H14        2.7470    6.1341    1.3596 H         1 RES1    0.0000
@<TRIPOS>BOND
     1    1    2 1
     2    3    1 1
     3    4    6 2
     4    5    8 2
     5    7    4 2
     6    9    5 2
     7   10   24 1
     8   11   25 1
     9   12    1 1
    10   13    4 1
    11   14   13 ar
    12   15   14 1
    13   16    5 1
    14   17   16 ar
    15   18   17 1
    16   19   12 ar
    17   20   19 1
    18   21    3 2
    19   22   21 1
    20   23   21 1
    21   24   23 ar
    22   25   24 ar
    23   26   25 ar
    24   27   26 1
    25   28   26 ar
    26   29   28 1
    27   30   23 ar
    28   31   30 1
    29   32   10 1
    30   33   32 1
    31   34   32 1
    32   35   32 1
    33   36   11 1
    34   37   36 1
    35   38   36 1
    36   39   36 1
    37   12   13 ar
    38   14   16 ar
    39   17   19 ar
    40   28   30 ar
@<TRIPOS>SUBSTRUCTURE
     1 RES1 1

@<TRIPOS>CRYSIN
   7.8409    7.9200   13.8961  85.0380  82.7730  65.8940   2 1

