# MOL2 file generated by ConQuest
# Please check atom types

@<TRIPOS>MOLECULE
UREJIL01
    32    33     1
SMALL
NO_CHARGES
****
Generated from CSD

@<TRIPOS>ATOM
      1 N1        10.5610    3.2502    8.5015 N.am      1 RES1    0.0000
      2 H1        10.7869    4.1011    8.6020 H         1 RES1    0.0000
      3 N2        16.9640    3.8153    7.9373 N.pl3     1 RES1    0.0000
      4 N3         6.4931    6.6041   12.2663 N.pl3     1 RES1    0.0000
      5 O1        11.1034    1.3512    7.3249 O.2       1 RES1    0.0000
      6 O2         8.7749    1.8222    8.7177 O.2       1 RES1    0.0000
      7 O3        17.3341    4.5907    8.7960 O.2       1 RES1    0.0000
      8 O4        17.7180    3.3570    7.1348 O.2       1 RES1    0.0000
      9 O5         7.1224    7.2428   13.1002 O.2       1 RES1    0.0000
     10 O6         5.2862    6.6916   12.1140 O.2       1 RES1    0.0000
     11 C1        11.4442    2.4059    7.8159 C.2       1 RES1    0.0000
     12 C2         9.3082    2.8958    8.9476 C.2       1 RES1    0.0000
     13 C3        12.8624    2.8768    7.7921 C.ar      1 RES1    0.0000
     14 C4        13.7267    2.3397    6.8376 C.ar      1 RES1    0.0000
     15 H2        13.3885    1.7563    6.1702 H         1 RES1    0.0000
     16 C5        15.0753    2.6534    6.8587 C.ar      1 RES1    0.0000
     17 H3        15.6715    2.2915    6.2144 H         1 RES1    0.0000
     18 C6        15.5282    3.5108    7.8486 C.ar      1 RES1    0.0000
     19 C7        14.7028    4.0647    8.8002 C.ar      1 RES1    0.0000
     20 H4        15.0476    4.6532    9.4617 H         1 RES1    0.0000
     21 C8        13.3564    3.7426    8.7685 C.ar      1 RES1    0.0000
     22 H5        12.7660    4.1129    9.4150 H         1 RES1    0.0000
     23 C9         8.6157    3.9101    9.8063 C.ar      1 RES1    0.0000
     24 C10        9.3025    4.6723   10.7561 C.ar      1 RES1    0.0000
     25 H6        10.2451    4.5856   10.8421 H         1 RES1    0.0000
     26 C11        8.6098    5.5559   11.5729 C.ar      1 RES1    0.0000
     27 H7         9.0646    6.0696   12.2299 H         1 RES1    0.0000
     28 C12        7.2428    5.6697   11.4058 C.ar      1 RES1    0.0000
     29 C13        6.5356    4.9326   10.4688 C.ar      1 RES1    0.0000
     30 H8         5.5972    5.0405   10.3730 H         1 RES1    0.0000
     31 C14        7.2302    4.0375    9.6776 C.ar      1 RES1    0.0000
     32 H9         6.7642    3.5058    9.0441 H         1 RES1    0.0000
@<TRIPOS>BOND
     1    1    2 1
     2    3    7 2
     3    4    9 2
     4    5   11 2
     5    6   12 2
     6    8    3 2
     7   10    4 2
     8   11    1 1
     9   12    1 1
    10   13   11 1
    11   14   13 ar
    12   15   14 1
    13   16   14 ar
    14   17   16 1
    15   18    3 1
    16   19   18 ar
    17   20   19 1
    18   21   13 ar
    19   22   21 1
    20   23   12 1
    21   24   23 ar
    22   25   24 1
    23   26   24 ar
    24   27   26 1
    25   28    4 1
    26   29   28 ar
    27   30   29 1
    28   31   23 ar
    29   32   31 1
    30   16   18 ar
    31   19   21 ar
    32   26   28 ar
    33   29   31 ar
@<TRIPOS>SUBSTRUCTURE
     1 RES1 1

@<TRIPOS>CRYSIN
  13.4450    8.4558   24.5630  90.0000  90.0000  90.0000  61 1

