# MOL2 file generated by ConQuest
# Please check atom types

@<TRIPOS>MOLECULE
UREJIL
    36    33     2
SMALL
NO_CHARGES
****
Generated from CSD

@<TRIPOS>ATOM
      1 O1        13.1388    7.3928   11.6148 O.2       1 RES1    0.0000
      2 O2        14.9688    6.5922   12.4152 O.2       1 RES1    0.0000
      3 O3        11.4050    1.9018   15.8886 O.2       1 RES1    0.0000
      4 O4         9.0902    1.4539   17.2823 O.2       1 RES1    0.0000
      5 O5         2.5294    3.6913   17.6389 O.2       1 RES1    0.0000
      6 O6         2.8110    4.2934   15.5726 O.2       1 RES1    0.0000
      7 N1        13.7506    6.6296   12.3539 N.pl3     1 RES1    0.0000
      8 N2         9.6332    3.3353   16.0992 N.am      1 RES1    0.0000
      9 H1         9.3670    4.1580   15.9371 H         1 RES1    0.0000
     10 N3         3.2476    3.8676   16.6489 N.pl3     1 RES1    0.0000
     11 C1        11.5851    3.9783   14.8037 C.ar      1 RES1    0.0000
     12 C2        12.9636    4.1052   14.9411 C.ar      1 RES1    0.0000
     13 H2        13.4151    3.5925   15.5726 H         1 RES1    0.0000
     14 C3        13.6630    4.9867   14.1459 C.ar      1 RES1    0.0000
     15 H3        14.5821    5.0898   14.2451 H         1 RES1    0.0000
     16 C4        12.9771    5.7081   13.2078 C.ar      1 RES1    0.0000
     17 C5        11.6201    5.6101   13.0322 C.ar      1 RES1    0.0000
     18 H4        11.1835    6.1101   12.3807 H         1 RES1    0.0000
     19 C6        10.9288    4.7474   13.8486 C.ar      1 RES1    0.0000
     20 H5        10.0057    4.6775   13.7599 H         1 RES1    0.0000
     21 C7        10.8884    2.9750   15.6536 C.2       1 RES1    0.0000
     22 C8         8.7579    2.5031   16.7833 C.2       1 RES1    0.0000
     23 C9         7.3362    2.9665   16.8075 C.ar      1 RES1    0.0000
     24 C10        6.4710    2.4282   17.7466 C.ar      1 RES1    0.0000
     25 H6         6.8025    1.8567   18.4000 H         1 RES1    0.0000
     26 C11        5.1410    2.7254   17.7246 C.ar      1 RES1    0.0000
     27 H7         4.5615    2.3703   18.3581 H         1 RES1    0.0000
     28 C12        4.6788    3.5669   16.7373 C.ar      1 RES1    0.0000
     29 C13        5.4981    4.1316   15.8098 C.ar      1 RES1    0.0000
     30 H8         5.1585    4.7116   15.1662 H         1 RES1    0.0000
     31 C14        6.8443    3.8258   15.8418 C.ar      1 RES1    0.0000
     32 H9         7.4211    4.1980   15.2130 H         1 RES1    0.0000
     33 O7        13.1253    7.1117   11.4104 Du        2 SUP2    0.0000
     34 O8        14.9203    6.8477   12.6295 Du        2 SUP2    0.0000
     35 O9         2.4566    3.1147   17.2276 Du        2 SUP2    0.0000
     36 O10        2.9188    4.8785   15.9864 Du        2 SUP2    0.0000
@<TRIPOS>BOND
     1    1    7 2
     2    2    7 2
     3    3   21 2
     4    4   22 2
     5    5   10 2
     6    6   10 2
     7    7   16 1
     8    8    9 1
     9   10   28 1
    10   11   12 ar
    11   12   13 1
    12   14   12 ar
    13   15   14 1
    14   16   14 ar
    15   17   16 ar
    16   18   17 1
    17   19   11 ar
    18   20   19 1
    19   21    8 1
    20   22    8 1
    21   23   22 1
    22   24   23 ar
    23   25   24 1
    24   26   24 ar
    25   27   26 1
    26   28   26 ar
    27   29   28 ar
    28   30   29 1
    29   31   23 ar
    30   32   31 1
    31   11   21 1
    32   17   19 ar
    33   29   31 ar
@<TRIPOS>SUBSTRUCTURE
     1 RES1 1
     2 SUP2 33

@<TRIPOS>CRYSIN
  13.4757    8.5170   24.6285  90.0000  90.0000  90.0000  61 1

