# MOL2 file generated by ConQuest
# Please check atom types

@<TRIPOS>MOLECULE
UREJAD
    24    25     1
SMALL
NO_CHARGES
****
Generated from CSD

@<TRIPOS>ATOM
      1 N1         5.8085    5.5921    1.5552 N.ar      1 RES1    0.0000
      2 C1         5.7963    3.3261    2.3466 C.ar      1 RES1    0.0000
      3 H1         5.5119    2.7293    3.0013 H         1 RES1    0.0000
      4 O1         8.1845    4.5410   -1.4332 O.2       1 RES1    0.0000
      5 N2         7.8261   -1.2275    1.4122 N.ar      1 RES1    0.0000
      6 O2         8.0179    2.5048   -1.1216 O.2       1 RES1    0.0000
      7 C2         5.4772    4.6675    2.4085 C.ar      1 RES1    0.0000
      8 H2         4.9700    4.9383    3.1398 H         1 RES1    0.0000
      9 N3         7.7615    3.6289   -0.8016 N.pl3     1 RES1    0.0000
     10 O3         5.0533    1.8011   -0.7824 O.2       1 RES1    0.0000
     11 C3         6.5665    5.1859    0.5614 C.ar      1 RES1    0.0000
     12 H3         6.8622    5.8237   -0.0479 H         1 RES1    0.0000
     13 N4         5.6934    0.7856   -0.7677 N.pl3     1 RES1    0.0000
     14 O4         5.6026    0.0018   -1.6970 O.2       1 RES1    0.0000
     15 C4         6.9464    3.8908    0.3653 C.ar      1 RES1    0.0000
     16 C5         6.5703    2.8949    1.2512 C.ar      1 RES1    0.0000
     17 C6         6.9932    1.4626    1.2359 C.ar      1 RES1    0.0000
     18 C7         6.5777    0.4650    0.3219 C.ar      1 RES1    0.0000
     19 C8         6.9839   -0.8284    0.4516 C.ar      1 RES1    0.0000
     20 H4         6.6638   -1.4590   -0.1520 H         1 RES1    0.0000
     21 C9         8.1957   -0.2922    2.2693 C.ar      1 RES1    0.0000
     22 H5         8.7535   -0.5523    2.9668 H         1 RES1    0.0000
     23 C10        7.8308    1.0226    2.2201 C.ar      1 RES1    0.0000
     24 H6         8.1527    1.6176    2.8582 H         1 RES1    0.0000
@<TRIPOS>BOND
     1    1    7 ar
     2    2    3 1
     3    4    9 2
     4    5   19 ar
     5    6    9 2
     6    7    2 ar
     7    8    7 1
     8    9   15 1
     9   10   13 2
    10   11    1 ar
    11   12   11 1
    12   13   14 2
    13   15   11 ar
    14   16    2 ar
    15   17   16 1
    16   18   13 1
    17   19   18 ar
    18   20   19 1
    19   21    5 ar
    20   22   21 1
    21   23   17 ar
    22   24   23 1
    23   15   16 ar
    24   17   18 ar
    25   21   23 ar
@<TRIPOS>SUBSTRUCTURE
     1 RES1 1

@<TRIPOS>CRYSIN
   9.3580   17.8150    6.3870  90.0000  90.0000  90.0000  33 1

