# MOL2 file generated by ConQuest
# Please check atom types

@<TRIPOS>MOLECULE
UREMUA
    33    34     1
SMALL
NO_CHARGES
****
Generated from CSD

@<TRIPOS>ATOM
      1 O1         2.3969   12.5843    6.9330 O.3       1 RES1    0.0000
      2 O2         0.8614   11.1275    7.9873 O.3       1 RES1    0.0000
      3 O3         3.5990   11.9534    5.1862 O.2       1 RES1    0.0000
      4 O4         0.6150    9.0338    7.3361 O.2       1 RES1    0.0000
      5 O5         4.8188   10.8302    2.5910 O.2       1 RES1    0.0000
      6 O6         6.1550    9.5778    1.4560 O.2       1 RES1    0.0000
      7 N1         2.8713    9.6343    3.9132 N.pl3     1 RES1    0.0000
      8 H1         3.4001   10.3376    3.8675 H         1 RES1    0.0000
      9 N2         5.0818    9.7756    2.0190 N.pl3     1 RES1    0.0000
     10 C1         1.0968   12.4847    7.5546 C.3       1 RES1    0.0000
     11 C2         2.7049   11.6830    5.9623 C.2       1 RES1    0.0000
     12 C3         1.9614   10.4429    5.9785 C.2       1 RES1    0.0000
     13 C4         1.0935   10.1221    7.1017 C.2       1 RES1    0.0000
     14 C5         1.1720   13.3164    8.8063 C.3       1 RES1    0.0000
     15 H2         1.8983   12.9863    9.3746 H         1 RES1    0.0000
     16 H3         0.3231   13.2540    9.2923 H         1 RES1    0.0000
     17 H4         1.3432   14.2516    8.5680 H         1 RES1    0.0000
     18 C6         0.0152   12.9168    6.5980 C.3       1 RES1    0.0000
     19 H5        -0.0007   12.3120    5.8281 H         1 RES1    0.0000
     20 H6         0.1954   13.8310    6.2923 H         1 RES1    0.0000
     21 H7        -0.8525   12.8907    7.0525 H         1 RES1    0.0000
     22 C7         2.0891    9.5043    4.9802 C.2       1 RES1    0.0000
     23 H8         1.5818    8.7056    5.0596 H         1 RES1    0.0000
     24 C8         2.9938    8.6910    2.8744 C.ar      1 RES1    0.0000
     25 C9         4.0727    8.7213    1.9719 C.ar      1 RES1    0.0000
     26 C10        4.2245    7.7543    0.9897 C.ar      1 RES1    0.0000
     27 H9         4.9665    7.7897    0.3974 H         1 RES1    0.0000
     28 C11        3.2997    6.7455    0.8743 C.ar      1 RES1    0.0000
     29 H10        3.4002    6.0795    0.2041 H         1 RES1    0.0000
     30 C12        2.2200    6.7042    1.7420 C.ar      1 RES1    0.0000
     31 H11        1.5804    6.0065    1.6635 H         1 RES1    0.0000
     32 C13        2.0632    7.6665    2.7206 C.ar      1 RES1    0.0000
     33 H12        1.3085    7.6298    3.2971 H         1 RES1    0.0000
@<TRIPOS>BOND
     1    1   10 1
     2    2   10 1
     3    3   11 2
     4    4   13 2
     5    5    9 2
     6    6    9 2
     7    7    8 1
     8    9   25 1
     9   10   14 1
    10   11    1 1
    11   12   11 1
    12   13    2 1
    13   14   15 1
    14   16   14 1
    15   17   14 1
    16   18   10 1
    17   19   18 1
    18   20   18 1
    19   21   18 1
    20   22    7 1
    21   23   22 1
    22   24    7 1
    23   25   24 ar
    24   26   25 ar
    25   27   26 1
    26   28   26 ar
    27   29   28 1
    28   30   28 ar
    29   31   30 1
    30   32   24 ar
    31   33   32 1
    32   12   13 1
    33   12   22 2
    34   30   32 ar
@<TRIPOS>SUBSTRUCTURE
     1 RES1 1

@<TRIPOS>CRYSIN
   6.3860   17.3800   11.9338  90.0000  90.6220  90.0000  14 1

