# MOL2 file generated by ConQuest
# Please check atom types

@<TRIPOS>MOLECULE
URERIU
    25    26     1
SMALL
NO_CHARGES
****
Generated from CSD

@<TRIPOS>ATOM
      1 O1        -0.2420    1.7634   10.1901 O.2       1 RES1    0.0000
      2 O2        -1.6976    1.7634   11.8583 O.3       1 RES1    0.0000
      3 N1        -1.6437    1.7634   13.2992 N.2       1 RES1    0.0000
      4 C1        -1.1156    1.7634   16.0304 C.ar      1 RES1    0.0000
      5 H1        -2.0005    1.7634   15.7450 H         1 RES1    0.0000
      6 C2        -0.8377    1.7634   17.3787 C.ar      1 RES1    0.0000
      7 H2        -1.5367    1.7634   17.9915 H         1 RES1    0.0000
      8 C3         0.4439    1.7634   17.8235 C.ar      1 RES1    0.0000
      9 H3         0.6276    1.7634   18.7346 H         1 RES1    0.0000
     10 C4         1.4481    1.7634   16.9210 C.ar      1 RES1    0.0000
     11 H4         2.3304    1.7634   17.2161 H         1 RES1    0.0000
     12 C5         1.1829    1.7634   15.5641 C.ar      1 RES1    0.0000
     13 H5         1.8892    1.7634   14.9588 H         1 RES1    0.0000
     14 C6        -0.1019    1.7634   15.0988 C.ar      1 RES1    0.0000
     15 C7        -0.4119    1.7634   13.6589 C.2       1 RES1    0.0000
     16 C8         0.5435    1.7634   12.5131 C.3       1 RES1    0.0000
     17 C9        -0.4360    1.7634   11.3704 C.2       1 RES1    0.0000
     18 C10        1.4025    0.4945   12.4161 C.3       1 RES1    0.0000
     19 H6         2.0685    0.5057   13.1075 H         1 RES1    0.0000
     20 H7         1.8315    0.4634   11.5578 H         1 RES1    0.0000
     21 H8         0.8439   -0.2786   12.5228 H         1 RES1    0.0000
     22 C10C       1.4025    3.0323   12.4161 C.3       1 RES1    0.0000
     23 H6C        2.0685    3.0211   13.1075 H         1 RES1    0.0000
     24 H7C        1.8315    3.0634   11.5578 H         1 RES1    0.0000
     25 H8C        0.8439    3.8054   12.5228 H         1 RES1    0.0000
@<TRIPOS>BOND
     1    1   17 2
     2    2    3 1
     3    3   15 2
     4    4    5 1
     5    6    4 ar
     6    7    6 1
     7    8    6 ar
     8    9    8 1
     9   10    8 ar
    10   11   10 1
    11   12   10 ar
    12   13   12 1
    13   14    4 ar
    14   15   14 1
    15   16   15 1
    16   17    2 1
    17   18   16 1
    18   19   18 1
    19   20   18 1
    20   21   18 1
    21   22   16 1
    22   23   22 1
    23   24   22 1
    24   25   22 1
    25   12   14 ar
    26   16   17 1
@<TRIPOS>SUBSTRUCTURE
     1 RES1 1

@<TRIPOS>CRYSIN
   6.4170    7.0536   10.7910  90.0000  93.6180  90.0000  11 1

