# MOL2 file generated by ConQuest
# Please check atom types

@<TRIPOS>MOLECULE
URIZAY
    47    50     1
SMALL
NO_CHARGES
****
Generated from CSD

@<TRIPOS>ATOM
      1 O1         5.7801    5.2665    0.0635 O.3       1 RES1    0.0000
      2 N1         7.2653    3.5419   -0.7163 N.3       1 RES1    0.0000
      3 N2         6.4285    6.4261   -0.4699 N.2       1 RES1    0.0000
      4 C1         7.9009    3.6951   -1.9437 C.ar      1 RES1    0.0000
      5 C2         9.2384    3.4854   -2.2751 C.ar      1 RES1    0.0000
      6 C3         5.6172    4.3007   -2.2540 C.3       1 RES1    0.0000
      7 C4         5.9237    4.0683   -0.7499 C.3       1 RES1    0.0000
      8 C5         6.9692    4.0839   -2.9124 C.ar      1 RES1    0.0000
      9 C6         6.0900    6.6709   -1.6845 C.2       1 RES1    0.0000
     10 C7         6.6930    7.8837   -2.2849 C.ar      1 RES1    0.0000
     11 C8         5.1567    5.7561   -2.4274 C.3       1 RES1    0.0000
     12 C9         7.3524    4.2408   -4.2306 C.ar      1 RES1    0.0000
     13 C10        9.6097    3.6540   -3.6149 C.ar      1 RES1    0.0000
     14 C11        7.9263    3.2288    0.5374 C.3       1 RES1    0.0000
     15 C12        6.9772    7.9608   -3.6505 C.ar      1 RES1    0.0000
     16 C13        4.5388    3.3176   -2.7669 C.3       1 RES1    0.0000
     17 C14        8.6891    4.0125   -4.5896 C.ar      1 RES1    0.0000
     18 C15        7.0403    8.9641   -1.4611 C.ar      1 RES1    0.0000
     19 C16        4.8800    1.8864   -2.4821 C.2       1 RES1    0.0000
     20 C17        7.6524   10.0833   -1.9933 C.ar      1 RES1    0.0000
     21 C18        7.5998    9.0880   -4.1771 C.ar      1 RES1    0.0000
     22 C19        7.9325   10.1514   -3.3561 C.ar      1 RES1    0.0000
     23 C20        7.1363    2.2599    1.3672 C.2       1 RES1    0.0000
     24 C21        6.9492    2.3931    2.6647 C.2       1 RES1    0.0000
     25 C22        4.1303    1.0664   -1.7758 C.2       1 RES1    0.0000
     26 H1         4.2513    5.8760   -2.0314 H         1 RES1    0.0000
     27 H2         3.6766    3.5497   -2.3430 H         1 RES1    0.0000
     28 H3         5.2787    3.4430   -0.3057 H         1 RES1    0.0000
     29 H4         5.1151    6.0034   -3.3961 H         1 RES1    0.0000
     30 H5         8.1120    4.0723    1.0788 H         1 RES1    0.0000
     31 H6         8.9619    4.1294   -5.5350 H         1 RES1    0.0000
     32 H7         4.4547    3.4572   -3.7669 H         1 RES1    0.0000
     33 H8         9.8759    3.2583   -1.6221 H         1 RES1    0.0000
     34 H9        10.5389    3.4882   -3.8714 H         1 RES1    0.0000
     35 H10        5.7283    1.5627   -2.8607 H         1 RES1    0.0000
     36 H11        8.3389   10.9556   -3.7353 H         1 RES1    0.0000
     37 H12        6.7610    7.1970   -4.2323 H         1 RES1    0.0000
     38 H13        8.8115    2.8439    0.2909 H         1 RES1    0.0000
     39 H14        6.7607    1.4833    0.8776 H         1 RES1    0.0000
     40 H15        6.8265    8.9246   -0.5059 H         1 RES1    0.0000
     41 H16        6.6953    4.4887   -4.9039 H         1 RES1    0.0000
     42 H17        7.9092   10.8335   -1.3805 H         1 RES1    0.0000
     43 H18        7.8231    9.1203   -5.1366 H         1 RES1    0.0000
     44 H19        4.3909    0.1470   -1.6093 H         1 RES1    0.0000
     45 H20        3.2516    1.3847   -1.3717 H         1 RES1    0.0000
     46 H21        7.3513    3.1743    3.1673 H         1 RES1    0.0000
     47 H22        6.4787    1.7268    3.1969 H         1 RES1    0.0000
@<TRIPOS>BOND
     1    1    3 1
     2    2    4 1
     3    3    9 2
     4    4    5 ar
     5    5   13 ar
     6    6    7 1
     7    7    1 1
     8    8    4 ar
     9    9   10 1
    10   10   15 ar
    11   11    6 1
    12   12    8 ar
    13   13   17 ar
    14   14    2 1
    15   15   21 ar
    16   16    6 1
    17   17   12 ar
    18   18   10 ar
    19   19   16 1
    20   20   18 ar
    21   21   22 ar
    22   22   20 ar
    23   23   14 1
    24   24   23 2
    25   25   19 2
    26   26   11 1
    27   27   16 1
    28   28    7 1
    29   29   11 1
    30   30   14 1
    31   31   17 1
    32   32   16 1
    33   33    5 1
    34   34   13 1
    35   35   19 1
    36   36   22 1
    37   37   15 1
    38   38   14 1
    39   39   23 1
    40   40   18 1
    41   41   12 1
    42   42   20 1
    43   43   21 1
    44   44   25 1
    45   45   25 1
    46   46   24 1
    47   47   24 1
    48    2    7 1
    49    6    8 1
    50    9   11 1
@<TRIPOS>SUBSTRUCTURE
     1 RES1 1

@<TRIPOS>CRYSIN
   9.0590    9.9601   11.1789 114.9340 101.1270  92.3110   2 1

