# MOL2 file generated by ConQuest
# Please check atom types

@<TRIPOS>MOLECULE
UROCOU
    84    86     2
SMALL
NO_CHARGES
****
Generated from CSD

@<TRIPOS>ATOM
      1 O1         0.1247   -9.4867   16.4076 O.2       1 RES1    0.0000
      2 O2        -3.0206   -9.4050   11.4932 O.2       1 RES1    0.0000
      3 O3         0.1307   -9.8975   10.1886 O.3       1 RES1    0.0000
      4 N1        -0.2373   -9.4891   15.1833 N.3       1 RES1    0.0000
      5 N2        -1.7787   -9.4715   11.2671 N.3       1 RES1    0.0000
      6 C1        -0.7404   -9.4200   12.3217 C.3       1 RES1    0.0000
      7 C2        -1.1097   -8.2492   13.2447 C.3       1 RES1    0.0000
      8 H1        -0.9706   -7.4223   12.7568 H         1 RES1    0.0000
      9 H2        -2.0559   -8.3110   13.4487 H         1 RES1    0.0000
     10 C3        -0.3583   -8.1655   14.5321 C.3       1 RES1    0.0000
     11 C4        -0.0459  -10.7602   14.4400 C.3       1 RES1    0.0000
     12 C5        -0.8231  -10.7226   13.1194 C.3       1 RES1    0.0000
     13 H3        -0.4998  -11.4440   12.5572 H         1 RES1    0.0000
     14 H4        -1.7565  -10.9016   13.3113 H         1 RES1    0.0000
     15 C6         1.0671   -7.5880   14.3221 C.3       1 RES1    0.0000
     16 H5         1.0039   -6.6680   14.0555 H         1 RES1    0.0000
     17 H6         1.5172   -8.0885   13.6384 H         1 RES1    0.0000
     18 H7         1.5626   -7.6506   15.1416 H         1 RES1    0.0000
     19 C7        -1.0698   -7.2442   15.4982 C.3       1 RES1    0.0000
     20 H8        -1.1253   -6.3644   15.1187 H         1 RES1    0.0000
     21 H9        -0.5813   -7.2073   16.3242 H         1 RES1    0.0000
     22 H10       -1.9550   -7.5772   15.6650 H         1 RES1    0.0000
     23 C8         1.4403  -11.0214   14.2426 C.3       1 RES1    0.0000
     24 H11        1.5602  -11.8475   13.7660 H         1 RES1    0.0000
     25 H12        1.8716  -11.0820   15.0991 H         1 RES1    0.0000
     26 H13        1.8284  -10.3023   13.7382 H         1 RES1    0.0000
     27 C9        -0.6380  -11.8894   15.2895 C.3       1 RES1    0.0000
     28 H14       -0.5985  -12.7138   14.7981 H         1 RES1    0.0000
     29 H15       -1.5522  -11.6858   15.4998 H         1 RES1    0.0000
     30 H16       -0.1338  -11.9763   16.1017 H         1 RES1    0.0000
     31 C10        0.4571   -9.2261   11.4147 C.3       1 RES1    0.0000
     32 H17        0.6161   -8.2825   11.2552 H         1 RES1    0.0000
     33 H18        1.2527   -9.6127   11.8130 H         1 RES1    0.0000
     34 C11       -1.2324   -9.6580    9.9175 C.3       1 RES1    0.0000
     35 C12       -1.4373   -8.3949    9.0985 C.3       1 RES1    0.0000
     36 H19       -2.3746   -8.1910    9.0536 H         1 RES1    0.0000
     37 H20       -1.0957   -8.5289    8.2112 H         1 RES1    0.0000
     38 H21       -0.9713   -7.6643    9.5132 H         1 RES1    0.0000
     39 C13       -1.8286  -10.8731    9.2556 C.3       1 RES1    0.0000
     40 H22       -2.7858  -10.8117    9.2760 H         1 RES1    0.0000
     41 H23       -1.5479  -11.6625    9.7242 H         1 RES1    0.0000
     42 H24       -1.5305  -10.9187    8.3437 H         1 RES1    0.0000
     43 O4        -2.1669   -0.4254   12.5508 O.2       2 RES2    0.0000
     44 O5         0.0861   -5.5844   10.9282 O.2       2 RES2    0.0000
     45 O6         2.8772   -3.5932   10.7759 O.3       2 RES2    0.0000
     46 N3        -1.3225   -1.3336   12.2283 N.3       2 RES2    0.0000
     47 N4         0.9655   -4.6948   11.0637 N.3       2 RES2    0.0000
     48 C14        0.6840   -3.3149   11.5454 C.3       2 RES2    0.0000
     49 C15       -0.1212   -2.5910   10.4863 C.3       2 RES2    0.0000
     50 H25       -0.8423   -3.1769   10.2067 H         2 RES2    0.0000
     51 H26        0.4530   -2.4537    9.7160 H         2 RES2    0.0000
     52 C16       -0.7343   -1.2315   10.8683 C.3       2 RES2    0.0000
     53 C17       -0.6716   -2.0753   13.3458 C.3       2 RES2    0.0000
     54 C18       -0.1345   -3.4076   12.8138 C.3       2 RES2    0.0000
     55 H27        0.4136   -3.8150   13.5026 H         2 RES2    0.0000
     56 H28       -0.8859   -3.9987   12.6521 H         2 RES2    0.0000
     57 C19        0.2558   -0.0590   10.8054 C.3       2 RES2    0.0000
     58 H29        0.5782    0.0389    9.9057 H         2 RES2    0.0000
     59 H30        0.9951   -0.2322   11.3926 H         2 RES2    0.0000
     60 H31       -0.1864    0.7478   11.0769 H         2 RES2    0.0000
     61 C20       -1.8666   -0.9301    9.8827 C.3       2 RES2    0.0000
     62 H32       -1.5215   -0.9382    8.9865 H         2 RES2    0.0000
     63 H33       -2.2374   -0.0655   10.0759 H         2 RES2    0.0000
     64 H34       -2.5511   -1.5985    9.9679 H         2 RES2    0.0000
     65 C21        0.4310   -1.1981   13.9737 C.3       2 RES2    0.0000
     66 H35        0.8576   -1.6810   14.6852 H         2 RES2    0.0000
     67 H36        0.0395   -0.3934   14.3237 H         2 RES2    0.0000
     68 H37        1.0811   -0.9725   13.3047 H         2 RES2    0.0000
     69 C22       -1.7256   -2.3704   14.4023 C.3       2 RES2    0.0000
     70 H38       -1.3206   -2.8391   15.1367 H         2 RES2    0.0000
     71 H39       -2.4193   -2.9121   14.0195 H         2 RES2    0.0000
     72 H40       -2.1015   -1.5455   14.7179 H         2 RES2    0.0000
     73 C23        2.1309   -2.8676   11.7083 C.3       2 RES2    0.0000
     74 H41        2.2119   -1.9164   11.5398 H         2 RES2    0.0000
     75 H42        2.4430   -3.0511   12.6079 H         2 RES2    0.0000
     76 C24        2.3582   -4.8972   10.6418 C.3       2 RES2    0.0000
     77 C25        2.4435   -5.3454    9.2171 C.3       2 RES2    0.0000
     78 H43        2.0249   -6.2046    9.1255 H         2 RES2    0.0000
     79 H44        3.3652   -5.4092    8.9554 H         2 RES2    0.0000
     80 H45        1.9945   -4.7111    8.6544 H         2 RES2    0.0000
     81 C26        3.0722   -5.8479   11.5692 C.3       2 RES2    0.0000
     82 H46        2.6405   -6.7055   11.5431 H         2 RES2    0.0000
     83 H47        3.0455   -5.5018   12.4640 H         2 RES2    0.0000
     84 H48        3.9865   -5.9415   11.2895 H         2 RES2    0.0000
@<TRIPOS>BOND
     1    1    4 1
     2    2    5 1
     3    3   31 1
     4    4   10 1
     5    5    6 1
     6    6    7 1
     7    7    8 1
     8    9    7 1
     9   10    7 1
    10   11    4 1
    11   12    6 1
    12   13   12 1
    13   14   12 1
    14   15   10 1
    15   16   15 1
    16   17   15 1
    17   18   15 1
    18   19   10 1
    19   20   19 1
    20   21   19 1
    21   22   19 1
    22   23   11 1
    23   24   23 1
    24   25   23 1
    25   26   23 1
    26   27   11 1
    27   28   27 1
    28   29   27 1
    29   30   27 1
    30   31    6 1
    31   32   31 1
    32   33   31 1
    33   34    3 1
    34   35   34 1
    35   36   35 1
    36   37   35 1
    37   38   35 1
    38   39   34 1
    39   40   39 1
    40   41   39 1
    41   42   39 1
    42   43   46 1
    43   44   47 1
    44   45   73 1
    45   46   52 1
    46   47   48 1
    47   48   49 1
    48   49   50 1
    49   51   49 1
    50   52   49 1
    51   53   46 1
    52   54   48 1
    53   55   54 1
    54   56   54 1
    55   57   52 1
    56   58   57 1
    57   59   57 1
    58   60   57 1
    59   61   52 1
    60   62   61 1
    61   63   61 1
    62   64   61 1
    63   65   53 1
    64   66   65 1
    65   67   65 1
    66   68   65 1
    67   69   53 1
    68   70   69 1
    69   71   69 1
    70   72   69 1
    71   73   48 1
    72   74   73 1
    73   75   73 1
    74   76   45 1
    75   77   76 1
    76   78   77 1
    77   79   77 1
    78   80   77 1
    79   81   76 1
    80   82   81 1
    81   83   81 1
    82   84   81 1
    83    5   34 1
    84   11   12 1
    85   47   76 1
    86   53   54 1
@<TRIPOS>SUBSTRUCTURE
     1 RES1 1
     2 RES2 43

@<TRIPOS>CRYSIN
   6.6543   13.8276   17.7131 109.2943  97.6136 100.3710   2 1

