# MOL2 file generated by ConQuest
# Please check atom types

@<TRIPOS>MOLECULE
UROJOC
    85    87     1
SMALL
NO_CHARGES
****
Generated from CSD

@<TRIPOS>ATOM
      1 N1        -1.1647   15.1385    4.4792 N.am      1 RES1    0.0000
      2 H1        -0.8140   14.4454    4.9056 H         1 RES1    0.0000
      3 C1        -1.9755   16.0943    5.2007 C.3       1 RES1    0.0000
      4 H2        -2.6253   16.4870    4.5816 H         1 RES1    0.0000
      5 O1        -0.0537   17.0934    6.3057 O.2       1 RES1    0.0000
      6 C2        -1.0991   17.2075    5.7656 C.2       1 RES1    0.0000
      7 O2        -1.7514   18.4111    5.5664 O.3       1 RES1    0.0000
      8 N2        -1.1401   19.5061    6.2461 N.am      1 RES1    0.0000
      9 C3        -0.2013   20.2067    5.5472 C.2       1 RES1    0.0000
     10 O3         0.2923   21.1836    6.0704 O.2       1 RES1    0.0000
     11 N3         0.1626   19.7551    4.3334 N.am      1 RES1    0.0000
     12 H3        -0.3079   19.1166    3.9542 H         1 RES1    0.0000
     13 C4         1.1267   20.5176    3.5640 C.3       1 RES1    0.0000
     14 H4         1.6249   21.0818    4.1915 H         1 RES1    0.0000
     15 C5         0.4216   21.4386    2.5813 C.2       1 RES1    0.0000
     16 O4        -0.7191   21.3108    2.2233 O.2       1 RES1    0.0000
     17 C6        -2.7342   15.4527    6.3725 C.3       1 RES1    0.0000
     18 H5        -2.0923   14.9901    6.9341 H         1 RES1    0.0000
     19 H6        -3.1274   16.1609    6.9044 H         1 RES1    0.0000
     20 C7        -3.8427   14.4640    5.9915 C.3       1 RES1    0.0000
     21 H7        -3.4432   13.7412    5.4646 H         1 RES1    0.0000
     22 C8        -4.4452   13.8600    7.2594 C.3       1 RES1    0.0000
     23 H8        -3.7496   13.4567    7.7828 H         1 RES1    0.0000
     24 H9        -5.0926   13.1930    7.0208 H         1 RES1    0.0000
     25 H10       -4.8723   14.5512    7.7714 H         1 RES1    0.0000
     26 C9        -4.9473   15.1082    5.1628 C.3       1 RES1    0.0000
     27 H11       -5.6145   14.4506    4.9513 H         1 RES1    0.0000
     28 H12       -4.5754   15.4584    4.3489 H         1 RES1    0.0000
     29 H13       -5.3484   15.8226    5.6632 H         1 RES1    0.0000
     30 C10       -1.7181   19.8300    7.4203 C.3       1 RES1    0.0000
     31 H14       -1.4062   20.6933    7.7030 H         1 RES1    0.0000
     32 H15       -1.4875   19.1738    8.0817 H         1 RES1    0.0000
     33 H16       -2.6718   19.8538    7.3128 H         1 RES1    0.0000
     34 C11        2.1499   19.6309    2.8268 C.3       1 RES1    0.0000
     35 H17        2.8408   20.2267    2.4688 H         1 RES1    0.0000
     36 C12        1.5436   18.8879    1.6437 C.3       1 RES1    0.0000
     37 H18        2.2186   18.3534    1.2207 H         1 RES1    0.0000
     38 H19        1.1954   19.5225    1.0131 H         1 RES1    0.0000
     39 H20        0.8322   18.3204    1.9531 H         1 RES1    0.0000
     40 C13        2.8376   18.6801    3.7865 C.3       1 RES1    0.0000
     41 H21        3.4709   18.1417    3.3062 H         1 RES1    0.0000
     42 H22        2.1823   18.1123    4.1983 H         1 RES1    0.0000
     43 H23        3.2956   19.1842    4.4630 H         1 RES1    0.0000
     44 O5         1.2801   22.3787    2.1710 O.3       1 RES1    0.0000
     45 C14        0.8796   23.3879    1.1518 C.3       1 RES1    0.0000
     46 C15       -0.2906   24.2016    1.6700 C.3       1 RES1    0.0000
     47 H24       -1.0691   23.6420    1.7272 H         1 RES1    0.0000
     48 H25       -0.4635   24.9308    1.0701 H         1 RES1    0.0000
     49 H26       -0.0805   24.5457    2.5418 H         1 RES1    0.0000
     50 C16        2.1342   24.2346    1.0347 C.3       1 RES1    0.0000
     51 H27        2.8566   23.6923    0.7073 H         1 RES1    0.0000
     52 H28        2.3647   24.5874    1.8984 H         1 RES1    0.0000
     53 H29        1.9762   24.9586    0.4244 H         1 RES1    0.0000
     54 C17        0.5780   22.6939   -0.1625 C.3       1 RES1    0.0000
     55 H30        1.3470   22.1919   -0.4426 H         1 RES1    0.0000
     56 H31        0.3632   23.3506   -0.8283 H         1 RES1    0.0000
     57 H32       -0.1666   22.1000   -0.0479 H         1 RES1    0.0000
     58 C18       -0.5487   15.5786    3.3605 C.2       1 RES1    0.0000
     59 O6        -0.6886   16.7010    2.9117 O.2       1 RES1    0.0000
     60 O7         0.2201   14.6206    2.8037 O.3       1 RES1    0.0000
     61 C19        0.8669   14.9741    1.5468 C.3       1 RES1    0.0000
     62 H33        1.7362   14.5477    1.4991 H         1 RES1    0.0000
     63 H34        0.9996   15.9336    1.5105 H         1 RES1    0.0000
     64 C20        0.0158   14.5313    0.3610 C.3       1 RES1    0.0000
     65 H35       -0.9190   14.7715    0.5271 H         1 RES1    0.0000
     66 C21        0.4595   15.1389   -0.9583 C.ar      1 RES1    0.0000
     67 C22        0.6348   16.4734   -1.2853 C.ar      1 RES1    0.0000
     68 H36        0.4374   17.1444   -0.6708 H         1 RES1    0.0000
     69 C23        1.1141   16.7877   -2.5598 C.ar      1 RES1    0.0000
     70 H37        1.2396   17.6786   -2.7928 H         1 RES1    0.0000
     71 C24        1.4054   15.7992   -3.4768 C.ar      1 RES1    0.0000
     72 H38        1.7354   16.0291   -4.3147 H         1 RES1    0.0000
     73 C25        1.2112   14.4718   -3.1588 C.ar      1 RES1    0.0000
     74 H39        1.4015   13.8053   -3.7785 H         1 RES1    0.0000
     75 C26        0.7264   14.1446   -1.8970 C.ar      1 RES1    0.0000
     76 C27        0.4927   12.8397   -1.2700 C.ar      1 RES1    0.0000
     77 C28        0.6427   11.5483   -1.7637 C.ar      1 RES1    0.0000
     78 H40        0.8764   11.4065   -2.6536 H         1 RES1    0.0000
     79 C29        0.4390   10.4760   -0.9124 C.ar      1 RES1    0.0000
     80 H41        0.5393    9.6077   -1.2321 H         1 RES1    0.0000
     81 C30        0.0861   10.6861    0.4187 C.ar      1 RES1    0.0000
     82 H42       -0.0355    9.9564    0.9834 H         1 RES1    0.0000
     83 C31       -0.0876   11.9724    0.9111 C.ar      1 RES1    0.0000
     84 H43       -0.3269   12.1107    1.7980 H         1 RES1    0.0000
     85 C32        0.1019   13.0465    0.0589 C.ar      1 RES1    0.0000
@<TRIPOS>BOND
     1    1    2 1
     2    3    1 1
     3    4    3 1
     4    5    6 2
     5    6    3 1
     6    7    6 1
     7    8    7 1
     8    9    8 1
     9   10    9 2
    10   11    9 1
    11   12   11 1
    12   13   11 1
    13   14   13 1
    14   15   13 1
    15   16   15 2
    16   17    3 1
    17   18   17 1
    18   19   17 1
    19   20   17 1
    20   21   20 1
    21   22   20 1
    22   23   22 1
    23   24   22 1
    24   25   22 1
    25   26   20 1
    26   27   26 1
    27   28   26 1
    28   29   26 1
    29   30    8 1
    30   31   30 1
    31   32   30 1
    32   33   30 1
    33   34   13 1
    34   35   34 1
    35   36   34 1
    36   37   36 1
    37   38   36 1
    38   39   36 1
    39   40   34 1
    40   41   40 1
    41   42   40 1
    42   43   40 1
    43   44   15 1
    44   45   44 1
    45   46   45 1
    46   47   46 1
    47   48   46 1
    48   49   46 1
    49   50   45 1
    50   51   50 1
    51   52   50 1
    52   53   50 1
    53   54   45 1
    54   55   54 1
    55   56   54 1
    56   57   54 1
    57   58    1 1
    58   59   58 2
    59   60   58 1
    60   61   60 1
    61   62   61 1
    62   63   61 1
    63   64   61 1
    64   65   64 1
    65   66   64 1
    66   67   66 ar
    67   68   67 1
    68   69   67 ar
    69   70   69 1
    70   71   69 ar
    71   72   71 1
    72   73   71 ar
    73   74   73 1
    74   75   66 ar
    75   76   75 1
    76   77   76 ar
    77   78   77 1
    78   79   77 ar
    79   80   79 1
    80   81   79 ar
    81   82   81 1
    82   83   81 ar
    83   84   83 1
    84   85   64 1
    85   73   75 ar
    86   76   85 ar
    87   83   85 ar
@<TRIPOS>SUBSTRUCTURE
     1 RES1 1

@<TRIPOS>CRYSIN
   7.8955   17.3456   22.8169  90.0000  90.0000  90.0000  19 1

