# MOL2 file generated by ConQuest
# Please check atom types

@<TRIPOS>MOLECULE
USIFAF
   122   124     3
SMALL
NO_CHARGES
****
Generated from CSD

@<TRIPOS>ATOM
      1 O1         6.1705    8.8023    6.7751 O.3       1 RES1    0.0000
      2 O2         4.2052    9.8821    6.7793 O.2       1 RES1    0.0000
      3 O3         3.8835    8.5588    9.8764 O.2       1 RES1    0.0000
      4 O4         3.2672    7.9562   11.8075 O.2       1 RES1    0.0000
      5 N1         3.3163    7.7763   10.5956 N.pl3     1 RES1    0.0000
      6 C1         8.2489    9.6696    6.0146 C.3       1 RES1    0.0000
      7 H1         8.7018    9.4974    6.8661 H         1 RES1    0.0000
      8 H2         8.6846   10.4199    5.5593 H         1 RES1    0.0000
      9 H3         8.3007    8.8708    5.4496 H         1 RES1    0.0000
     10 C2         6.8187   10.0053    6.2706 C.3       1 RES1    0.0000
     11 H4         6.7515   10.7345    6.9371 H         1 RES1    0.0000
     12 H5         6.3820   10.3039    5.4335 H         1 RES1    0.0000
     13 C3         4.8462    8.8680    6.9393 C.2       1 RES1    0.0000
     14 C4         4.2380    7.5591    7.3301 C.2       1 RES1    0.0000
     15 C5         4.9634    6.4531    7.3862 C.2       1 RES1    0.0000
     16 H6         5.8898    6.4804    7.1758 H         1 RES1    0.0000
     17 H7         4.5581    5.6312    7.6372 H         1 RES1    0.0000
     18 C6         2.7467    7.6115    7.5856 C.3       1 RES1    0.0000
     19 H8         2.5546    8.5095    7.9825 H         1 RES1    0.0000
     20 C7         2.3049    6.5690    8.6237 C.ar      1 RES1    0.0000
     21 C8         2.5465    6.6595   10.0034 C.ar      1 RES1    0.0000
     22 C9         2.0991    5.7132   10.9122 C.ar      1 RES1    0.0000
     23 H9         2.2758    5.8205   11.8398 H         1 RES1    0.0000
     24 C10        1.3923    4.6112   10.4598 C.ar      1 RES1    0.0000
     25 H10        1.0700    3.9608   11.0719 H         1 RES1    0.0000
     26 C11        1.1635    4.4727    9.1087 C.ar      1 RES1    0.0000
     27 H11        0.6932    3.7115    8.7875 H         1 RES1    0.0000
     28 C12        1.6117    5.4323    8.2124 C.ar      1 RES1    0.0000
     29 H12        1.4408    5.3099    7.2855 H         1 RES1    0.0000
     30 C13        1.9217    7.5159    6.2968 C.2       1 RES1    0.0000
     31 C14        0.5813    8.1715    6.3744 C.ar      1 RES1    0.0000
     32 C15       -0.5949    7.4408    6.2087 C.ar      1 RES1    0.0000
     33 H13       -0.5446    6.5071    6.0433 H         1 RES1    0.0000
     34 C16       -1.8316    8.0530    6.2806 C.ar      1 RES1    0.0000
     35 H14       -2.6225    7.5390    6.1659 H         1 RES1    0.0000
     36 C17       -1.9224    9.4126    6.5179 C.ar      1 RES1    0.0000
     37 H15       -2.7716    9.8346    6.5676 H         1 RES1    0.0000
     38 C18       -0.7701   10.1495    6.6827 C.ar      1 RES1    0.0000
     39 H16       -0.8301   11.0838    6.8419 H         1 RES1    0.0000
     40 C19        0.4779    9.5440    6.6186 C.ar      1 RES1    0.0000
     41 H17        1.2624   10.0639    6.7419 H         1 RES1    0.0000
     42 C20        2.3470    6.8876    5.1993 C.2       1 RES1    0.0000
     43 H18        3.1973    6.4658    5.2560 H         1 RES1    0.0000
     44 C21        1.6295    6.7717    3.8785 C.3       1 RES1    0.0000
     45 H19        0.6462    6.7671    4.0558 H         1 RES1    0.0000
     46 C22        1.9938    5.4676    3.1717 C.3       1 RES1    0.0000
     47 H20        1.6887    4.7034    3.7218 H         1 RES1    0.0000
     48 H21        2.9778    5.4073    3.0862 H         1 RES1    0.0000
     49 C23        1.3599    5.3735    1.7802 C.3       1 RES1    0.0000
     50 H22        1.6759    4.5500    1.3326 H         1 RES1    0.0000
     51 H23        0.3765    5.3113    1.8730 H         1 RES1    0.0000
     52 C24        1.7087    6.5802    0.9180 C.3       1 RES1    0.0000
     53 H24        2.6837    6.5978    0.7486 H         1 RES1    0.0000
     54 H25        1.2467    6.5098    0.0452 H         1 RES1    0.0000
     55 C25        1.2893    7.8596    1.6162 C.3       1 RES1    0.0000
     56 H26        0.3062    7.8696    1.7230 H         1 RES1    0.0000
     57 H27        1.5455    8.6375    1.0599 H         1 RES1    0.0000
     58 C26        1.9512    7.9732    2.9875 C.3       1 RES1    0.0000
     59 H28        1.6413    8.8015    3.4314 H         1 RES1    0.0000
     60 H29        2.9329    8.0402    2.8716 H         1 RES1    0.0000
     61 O5         3.5636    8.7668    9.9894 Du        3 SUP3    0.0000
     62 O6         3.8955    7.4696   11.6381 Du        3 SUP3    0.0000
     63 O7        -1.2412    2.1606    6.1224 O.3       2 RES2    0.0000
     64 O8         0.7128    3.2481    5.8141 O.2       2 RES2    0.0000
     65 O9         1.5613    2.0993    2.6256 O.2       2 RES2    0.0000
     66 O10        1.4401    0.9739    0.8329 O.2       2 RES2    0.0000
     67 N2         1.7587    1.0799    2.0017 N.pl3     2 RES2    0.0000
     68 C27       -2.4933    4.1050    5.4532 C.3       2 RES2    0.0000
     69 H30       -1.7949    4.4114    4.8382 H         2 RES2    0.0000
     70 H31       -2.9896    4.8780    5.7933 H         2 RES2    0.0000
     71 H32       -3.1067    3.5049    4.9802 H         2 RES2    0.0000
     72 C28       -1.8692    3.3795    6.5880 C.3       2 RES2    0.0000
     73 H33       -1.1921    3.9581    7.0193 H         2 RES2    0.0000
     74 H34       -2.5602    3.1609    7.2613 H         2 RES2    0.0000
     75 C29        0.0424    2.2410    5.7365 C.2       2 RES2    0.0000
     76 C30        0.5668    0.9412    5.2128 C.2       2 RES2    0.0000
     77 C31       -0.2584   -0.0605    4.9224 C.2       2 RES2    0.0000
     78 H35       -1.1944    0.0440    5.0463 H         2 RES2    0.0000
     79 H36        0.0886   -0.8799    4.5914 H         2 RES2    0.0000
     80 C32        2.0723    0.8992    5.0612 C.3       2 RES2    0.0000
     81 H37        2.3458    1.7838    4.6849 H         2 RES2    0.0000
     82 C33        2.5343   -0.1648    4.0592 C.ar      2 RES2    0.0000
     83 C34        2.3910   -0.0772    2.6643 C.ar      2 RES2    0.0000
     84 C35        2.8382   -1.0681    1.7907 C.ar      2 RES2    0.0000
     85 H38        2.7186   -0.9719    0.8534 H         2 RES2    0.0000
     86 C36        3.4585   -2.1914    2.3047 C.ar      2 RES2    0.0000
     87 H39        3.7892   -2.8649    1.7214 H         2 RES2    0.0000
     88 C37        3.5947   -2.3262    3.6691 C.ar      2 RES2    0.0000
     89 H40        4.0081   -3.1022    4.0283 H         2 RES2    0.0000
     90 C38        3.1325   -1.3331    4.5204 C.ar      2 RES2    0.0000
     91 H41        3.2294   -1.4558    5.4577 H         2 RES2    0.0000
     92 C39        2.7885    0.7567    6.4040 C.2       2 RES2    0.0000
     93 C40        4.1758    1.3040    6.4042 C.ar      2 RES2    0.0000
     94 C41        5.2854    0.4775    6.6113 C.ar      2 RES2    0.0000
     95 H42        5.1561   -0.4466    6.7870 H         2 RES2    0.0000
     96 C42        6.5736    0.9956    6.5623 C.ar      2 RES2    0.0000
     97 H43        7.3188    0.4226    6.7015 H         2 RES2    0.0000
     98 C43        6.7773    2.3370    6.3137 C.ar      2 RES2    0.0000
     99 H44        7.6589    2.6890    6.2821 H         2 RES2    0.0000
    100 C44        5.6853    3.1705    6.1112 C.ar      2 RES2    0.0000
    101 H45        5.8230    4.0968    5.9497 H         2 RES2    0.0000
    102 C45        4.3990    2.6607    6.1429 C.ar      2 RES2    0.0000
    103 H46        3.6604    3.2369    5.9852 H         2 RES2    0.0000
    104 C46        2.2222    0.1890    7.4677 C.2       2 RES2    0.0000
    105 H47        1.3501   -0.1640    7.3339 H         2 RES2    0.0000
    106 C47        2.7877    0.0367    8.8533 C.3       2 RES2    0.0000
    107 H48        3.7695    0.2173    8.8165 H         2 RES2    0.0000
    108 C48        2.5761   -1.3694    9.3844 C.3       2 RES2    0.0000
    109 H49        3.0769   -2.0091    8.8181 H         2 RES2    0.0000
    110 H50        1.6158   -1.5984    9.3215 H         2 RES2    0.0000
    111 C49        3.0343   -1.5202   10.8375 C.3       2 RES2    0.0000
    112 H51        2.8289   -2.4357   11.1509 H         2 RES2    0.0000
    113 H52        4.0141   -1.3931   10.8864 H         2 RES2    0.0000
    114 C50        2.3613   -0.5257   11.7359 C.3       2 RES2    0.0000
    115 H53        2.7233   -0.6119   12.6529 H         2 RES2    0.0000
    116 H54        1.3893   -0.7146   11.7704 H         2 RES2    0.0000
    117 C51        2.5818    0.8748   11.2389 C.3       2 RES2    0.0000
    118 H55        3.5427    1.1012   11.3203 H         2 RES2    0.0000
    119 H56        2.0725    1.5051   11.8075 H         2 RES2    0.0000
    120 C52        2.1477    1.0463    9.7850 C.3       2 RES2    0.0000
    121 H57        1.1625    0.9572    9.7296 H         2 RES2    0.0000
    122 H58        2.3853    1.9584    9.4828 H         2 RES2    0.0000
@<TRIPOS>BOND
     1    1   10 1
     2    2   13 2
     3    3    5 2
     4    4    5 2
     5    5   21 1
     6    6    7 1
     7    8    6 1
     8    9    6 1
     9   10    6 1
    10   11   10 1
    11   12   10 1
    12   13    1 1
    13   14   13 1
    14   15   14 2
    15   16   15 1
    16   17   15 1
    17   18   14 1
    18   19   18 1
    19   20   18 1
    20   21   20 ar
    21   22   21 ar
    22   23   22 1
    23   24   22 ar
    24   25   24 1
    25   26   24 ar
    26   27   26 1
    27   28   20 ar
    28   29   28 1
    29   30   18 1
    30   31   30 1
    31   32   31 ar
    32   33   32 1
    33   34   32 ar
    34   35   34 1
    35   36   34 ar
    36   37   36 1
    37   38   36 ar
    38   39   38 1
    39   40   31 ar
    40   41   40 1
    41   42   30 2
    42   43   42 1
    43   44   42 1
    44   45   44 1
    45   46   44 1
    46   47   46 1
    47   48   46 1
    48   49   46 1
    49   50   49 1
    50   51   49 1
    51   52   49 1
    52   53   52 1
    53   54   52 1
    54   55   52 1
    55   56   55 1
    56   57   55 1
    57   58   44 1
    58   59   58 1
    59   60   58 1
    60   63   72 1
    61   64   75 2
    62   65   67 2
    63   66   67 2
    64   67   83 1
    65   68   69 1
    66   70   68 1
    67   71   68 1
    68   72   68 1
    69   73   72 1
    70   74   72 1
    71   75   63 1
    72   76   75 1
    73   77   76 2
    74   78   77 1
    75   79   77 1
    76   80   76 1
    77   81   80 1
    78   82   80 1
    79   83   82 ar
    80   84   83 ar
    81   85   84 1
    82   86   84 ar
    83   87   86 1
    84   88   86 ar
    85   89   88 1
    86   90   82 ar
    87   91   90 1
    88   92   80 1
    89   93   92 1
    90   94   93 ar
    91   95   94 1
    92   96   94 ar
    93   97   96 1
    94   98   96 ar
    95   99   98 1
    96  100   98 ar
    97  101  100 1
    98  102   93 ar
    99  103  102 1
   100  104   92 2
   101  105  104 1
   102  106  104 1
   103  107  106 1
   104  108  106 1
   105  109  108 1
   106  110  108 1
   107  111  108 1
   108  112  111 1
   109  113  111 1
   110  114  111 1
   111  115  114 1
   112  116  114 1
   113  117  114 1
   114  118  117 1
   115  119  117 1
   116  120  106 1
   117  121  120 1
   118  122  120 1
   119   26   28 ar
   120   38   40 ar
   121   55   58 1
   122   88   90 ar
   123  100  102 ar
   124  117  120 1
@<TRIPOS>SUBSTRUCTURE
     1 RES1 1
     2 RES2 63
     3 SUP3 61

@<TRIPOS>CRYSIN
  20.7774   13.3315   17.7511  90.0000 114.6560  90.0000  14 1

