# MOL2 file generated by ConQuest
# Please check atom types

@<TRIPOS>MOLECULE
USIKEO
     9     9     1
SMALL
NO_CHARGES
****
Generated from CSD

@<TRIPOS>ATOM
      1 N1         0.9052    3.4043    6.7582 N.pl3     1 RES1    0.0000
      2 O1         0.6822    3.7930    8.0203 O.3       1 RES1    0.0000
      3 H1         0.7600    3.0593    8.4794 H         1 RES1    0.0000
      4 N2         0.5940    2.2048    6.3031 N.2       1 RES1    0.0000
      5 N3         0.9648    2.2237    5.0445 N.2       1 RES1    0.0000
      6 N4         1.4925    3.4059    4.6845 N.2       1 RES1    0.0000
      7 C1         1.4560    4.1428    5.7846 C.2       1 RES1    0.0000
      8 C2         1.9193    5.4780    5.9500 C.1       1 RES1    0.0000
      9 N5         2.2804    6.5554    6.0828 N.1       1 RES1    0.0000
@<TRIPOS>BOND
     1    1    2 1
     2    2    3 1
     3    4    1 1
     4    5    4 2
     5    6    5 1
     6    7    1 1
     7    8    7 1
     8    9    8 3
     9    6    7 2
@<TRIPOS>SUBSTRUCTURE
     1 RES1 1

@<TRIPOS>CRYSIN
   6.3220    7.7450    9.0240  90.0000  91.5710  90.0000  14 1

