# MOL2 file generated by ConQuest
# Please check atom types

@<TRIPOS>MOLECULE
USIMUF
    90    90     3
SMALL
NO_CHARGES
****
Generated from CSD

@<TRIPOS>ATOM
      1 C1        -0.0973   14.4345    2.2440 C.3       1 RES1    0.0000
      2 C2         0.7342   13.1426    2.2267 C.3       1 RES1    0.0000
      3 H1         0.1211   12.3662    2.2054 H         1 RES1    0.0000
      4 H2         1.2805   13.1223    1.3995 H         1 RES1    0.0000
      5 C3         1.6533   13.0122    3.4304 C.3       1 RES1    0.0000
      6 H3         2.3198   13.7451    3.4273 H         1 RES1    0.0000
      7 H4         2.1386   12.1499    3.3927 H         1 RES1    0.0000
      8 C4         0.8211   13.0787    4.7008 C.3       1 RES1    0.0000
      9 H5         1.4251   13.0150    5.4811 H         1 RES1    0.0000
     10 H6         0.2131   12.2979    4.7272 H         1 RES1    0.0000
     11 C5        -0.0132   14.3615    4.8199 C.3       1 RES1    0.0000
     12 C6         0.7789   15.6624    1.9229 C.3       1 RES1    0.0000
     13 H7         0.2760   16.4817    2.1145 H         1 RES1    0.0000
     14 H8         1.0280   15.6476    0.9749 H         1 RES1    0.0000
     15 H9         1.5894   15.6378    2.4741 H         1 RES1    0.0000
     16 C7        -1.1924   14.3391    1.1751 C.3       1 RES1    0.0000
     17 H10       -1.7903   13.5922    1.3865 H         1 RES1    0.0000
     18 H11       -0.7801   14.1906    0.2990 H         1 RES1    0.0000
     19 H12       -1.7067   15.1744    1.1569 H         1 RES1    0.0000
     20 C8         0.8811   15.5697    5.1583 C.3       1 RES1    0.0000
     21 H13        1.6551   15.5825    4.5582 H         1 RES1    0.0000
     22 H14        1.1895   15.4980    6.0877 H         1 RES1    0.0000
     23 H15        0.3680   16.3972    5.0478 H         1 RES1    0.0000
     24 C9        -1.0302   14.1859    5.9486 C.3       1 RES1    0.0000
     25 H16       -1.5340   15.0183    6.0661 H         1 RES1    0.0000
     26 H17       -0.5614   13.9678    6.7810 H         1 RES1    0.0000
     27 H18       -1.6476   13.4589    5.7238 H         1 RES1    0.0000
     28 N1        -0.8006   14.4631    3.5556 N.3       1 RES1    0.0000
     29 O1        -1.5406   15.7087    3.6245 O.3       1 RES1    0.0000
     30 H19       -2.4043   15.4784    3.6180 H         1 RES1    0.0000
     31 C10       -6.1140   15.0197    2.4273 C.3       2 RES2    0.0000
     32 C11       -7.6180   14.7431    2.5677 C.3       2 RES2    0.0000
     33 H20       -8.1000   15.6069    2.5954 H         2 RES2    0.0000
     34 H21       -7.9291   14.2508    1.7678 H         2 RES2    0.0000
     35 C12       -7.9754   13.9397    3.8086 C.3       2 RES2    0.0000
     36 H22       -8.9581   13.8410    3.8736 H         2 RES2    0.0000
     37 H23       -7.5752   13.0361    3.7523 H         2 RES2    0.0000
     38 C13       -7.4489   14.6576    5.0400 C.3       2 RES2    0.0000
     39 H24       -7.6550   14.1142    5.8407 H         2 RES2    0.0000
     40 H25       -7.9207   15.5240    5.1345 H         2 RES2    0.0000
     41 C14       -5.9337   14.9170    4.9880 C.3       2 RES2    0.0000
     42 C15       -5.9182   16.0677    1.3324 C.3       2 RES2    0.0000
     43 H26       -6.3125   16.9175    1.6205 H         2 RES2    0.0000
     44 H27       -6.3557   15.7663    0.5069 H         2 RES2    0.0000
     45 H28       -4.9606   16.1923    1.1656 H         2 RES2    0.0000
     46 C16       -5.3501   13.7499    2.0165 C.3       2 RES2    0.0000
     47 H29       -4.3899   13.8865    2.1535 H         2 RES2    0.0000
     48 H30       -5.5183   13.5581    1.0702 H         2 RES2    0.0000
     49 H31       -5.6554   12.9955    2.5607 H         2 RES2    0.0000
     50 C17       -5.1400   13.6163    5.1830 C.3       2 RES2    0.0000
     51 H32       -5.5314   12.9076    4.6319 H         2 RES2    0.0000
     52 H33       -5.1738   13.3516    6.1267 H         2 RES2    0.0000
     53 H34       -4.2077   13.7597    4.9178 H         2 RES2    0.0000
     54 C18       -5.5632   15.8641    6.1241 C.3       2 RES2    0.0000
     55 H35       -4.5879   15.9598    6.1657 H         2 RES2    0.0000
     56 H36       -5.8929   15.5012    6.9716 H         2 RES2    0.0000
     57 H37       -5.9699   16.7403    5.9664 H         2 RES2    0.0000
     58 N2        -5.6915   15.6562    3.7107 N.3       2 RES2    0.0000
     59 O2        -4.2506   15.9050    3.6158 O.3       2 RES2    0.0000
     60 H38       -4.1514   16.7874    3.6483 H         2 RES2    0.0000
     61 C19        6.4786    3.2129    2.3350 C.3       3 RES3    0.0000
     62 C20        4.9965    3.6069    2.3714 C.3       3 RES3    0.0000
     63 H39        4.7823    4.1334    1.5598 H         3 RES3    0.0000
     64 H40        4.4434    2.7854    2.3571 H         3 RES3    0.0000
     65 C21        4.6387    4.4217    3.6006 C.3       3 RES3    0.0000
     66 H41        3.6688    4.6180    3.6006 H         3 RES3    0.0000
     67 H42        5.1296    5.2814    3.5833 H         3 RES3    0.0000
     68 C22        5.0042    3.6440    4.8602 C.3       3 RES3    0.0000
     69 H43        4.4509    2.8245    4.9048 H         3 RES3    0.0000
     70 H44        4.7945    4.1969    5.6544 H         3 RES3    0.0000
     71 C23        6.4883    3.2511    4.9001 C.3       3 RES3    0.0000
     72 C24        7.3728    4.4313    2.0347 C.3       3 RES3    0.0000
     73 H45        7.0532    5.2050    2.5477 H         3 RES3    0.0000
     74 H46        7.3368    4.6359    1.0789 H         3 RES3    0.0000
     75 H47        8.2962    4.2294    2.2921 H         3 RES3    0.0000
     76 C25        6.7051    2.1760    1.2392 C.3       3 RES3    0.0000
     77 H48        7.6663    2.0033    1.1439 H         3 RES3    0.0000
     78 H49        6.3501    2.5139    0.3900 H         3 RES3    0.0000
     79 H50        6.2468    1.3431    1.4775 H         3 RES3    0.0000
     80 C26        7.3877    4.4770    5.1592 C.3       3 RES3    0.0000
     81 H51        8.3056    4.2717    4.8875 H         3 RES3    0.0000
     82 H52        7.3724    4.6977    6.1137 H         3 RES3    0.0000
     83 H53        7.0570    5.2408    4.6405 H         3 RES3    0.0000
     84 C27        6.7212    2.2438    6.0271 C.3       3 RES3    0.0000
     85 H54        6.2524    1.4082    5.8191 H         3 RES3    0.0000
     86 H55        6.3782    2.6114    6.8676 H         3 RES3    0.0000
     87 H56        7.6804    2.0667    6.1137 H         3 RES3    0.0000
     88 N3         6.7549    2.5155    3.6271 N.3       3 RES3    0.0000
     89 O3         8.1771    2.1846    3.6284 O.3       3 RES3    0.0000
     90 H57        8.1807    1.2488    3.6266 H         3 RES3    0.0000
@<TRIPOS>BOND
     1    1    2 1
     2    2    3 1
     3    4    2 1
     4    5    2 1
     5    6    5 1
     6    7    5 1
     7    8    5 1
     8    9    8 1
     9   10    8 1
    10   11    8 1
    11   12    1 1
    12   13   12 1
    13   14   12 1
    14   15   12 1
    15   16    1 1
    16   17   16 1
    17   18   16 1
    18   19   16 1
    19   20   11 1
    20   21   20 1
    21   22   20 1
    22   23   20 1
    23   24   11 1
    24   25   24 1
    25   26   24 1
    26   27   24 1
    27   28    1 1
    28   29   28 1
    29   30   29 1
    30   31   32 1
    31   32   33 1
    32   34   32 1
    33   35   32 1
    34   36   35 1
    35   37   35 1
    36   38   35 1
    37   39   38 1
    38   40   38 1
    39   41   38 1
    40   42   31 1
    41   43   42 1
    42   44   42 1
    43   45   42 1
    44   46   31 1
    45   47   46 1
    46   48   46 1
    47   49   46 1
    48   50   41 1
    49   51   50 1
    50   52   50 1
    51   53   50 1
    52   54   41 1
    53   55   54 1
    54   56   54 1
    55   57   54 1
    56   58   31 1
    57   59   58 1
    58   60   59 1
    59   61   62 1
    60   62   63 1
    61   64   62 1
    62   65   62 1
    63   66   65 1
    64   67   65 1
    65   68   65 1
    66   69   68 1
    67   70   68 1
    68   71   68 1
    69   72   61 1
    70   73   72 1
    71   74   72 1
    72   75   72 1
    73   76   61 1
    74   77   76 1
    75   78   76 1
    76   79   76 1
    77   80   71 1
    78   81   80 1
    79   82   80 1
    80   83   80 1
    81   84   71 1
    82   85   84 1
    83   86   84 1
    84   87   84 1
    85   88   61 1
    86   89   88 1
    87   90   89 1
    88   11   28 1
    89   41   58 1
    90   71   88 1
@<TRIPOS>SUBSTRUCTURE
     1 RES1 1
     2 RES2 31
     3 RES3 61

@<TRIPOS>CRYSIN
  18.7761   18.7761   43.3290  90.0000  90.0000 120.0000 233 1

