# MOL2 file generated by ConQuest
# Please check atom types

@<TRIPOS>MOLECULE
USOKIX
    37    39     1
SMALL
NO_CHARGES
****
Generated from CSD

@<TRIPOS>ATOM
      1 C1         0.3409    5.6599    6.0135 C.3       1 RES1    0.0000
      2 C2         1.6804    6.3677    6.2950 C.3       1 RES1    0.0000
      3 H1         1.9354    6.2597    7.2452 H         1 RES1    0.0000
      4 H2         2.3979    5.9853    5.7300 H         1 RES1    0.0000
      5 C3         1.4720    7.8341    5.9660 C.2       1 RES1    0.0000
      6 C4         0.0100    8.1463    5.7472 C.3       1 RES1    0.0000
      7 H3        -0.1493    8.5619    4.8522 H         1 RES1    0.0000
      8 C5        -0.5593    9.0339    6.9099 C.3       1 RES1    0.0000
      9 H4        -0.0286    9.8476    7.1453 H         1 RES1    0.0000
     10 C6        -2.0199    9.2631    6.5615 C.2       1 RES1    0.0000
     11 H5        -2.4089   10.0834    6.2825 H         1 RES1    0.0000
     12 C7        -2.6586    8.0980    6.7191 C.2       1 RES1    0.0000
     13 H6        -3.5835    7.9400    6.5725 H         1 RES1    0.0000
     14 C8        -1.6329    7.0717    7.1766 C.3       1 RES1    0.0000
     15 H7        -1.9960    6.2620    7.6377 H         1 RES1    0.0000
     16 C9        -0.7524    6.8064    5.9012 C.3       1 RES1    0.0000
     17 H8        -1.3372    6.6492    5.1050 H         1 RES1    0.0000
     18 C10       -0.7103    7.9759    8.0188 C.3       1 RES1    0.0000
     19 H9        -1.1528    8.3290    8.8311 H         1 RES1    0.0000
     20 H10        0.1468    7.5393    8.2547 H         1 RES1    0.0000
     21 C11       -0.1337    4.6831    7.0823 C.2       1 RES1    0.0000
     22 C12       -0.2346    4.2124    9.4127 C.3       1 RES1    0.0000
     23 H11       -1.2151    4.1548    9.2863 H         1 RES1    0.0000
     24 H12       -0.0638    4.7069   10.2534 H         1 RES1    0.0000
     25 C13        0.3345    2.8184    9.5307 C.3       1 RES1    0.0000
     26 H13        0.0699    2.2899    8.7488 H         1 RES1    0.0000
     27 H14       -0.0089    2.3928   10.3436 H         1 RES1    0.0000
     28 H15        1.3125    2.8671    9.5763 H         1 RES1    0.0000
     29 C14        0.3578    4.9137    4.6755 C.3       1 RES1    0.0000
     30 H16       -0.5741    4.7560    4.3802 H         1 RES1    0.0000
     31 H17        0.8003    5.4794    3.9939 H         1 RES1    0.0000
     32 N1         1.0785    3.5911    4.7628 N.pl3     1 RES1    0.0000
     33 O1         2.3694    8.6549    5.9054 O.2       1 RES1    0.0000
     34 O2        -0.9394    3.8067    6.8416 O.2       1 RES1    0.0000
     35 O3         0.3534    4.9488    8.2925 O.3       1 RES1    0.0000
     36 O4         1.9455    3.4458    5.6206 O.2       1 RES1    0.0000
     37 O5         0.7661    2.7272    3.9523 O.2       1 RES1    0.0000
@<TRIPOS>BOND
     1    1    2 1
     2    2    3 1
     3    4    2 1
     4    5    2 1
     5    6    5 1
     6    7    6 1
     7    8    6 1
     8    9    8 1
     9   10    8 1
    10   11   10 1
    11   12   10 2
    12   13   12 1
    13   14   12 1
    14   15   14 1
    15   16    1 1
    16   17   16 1
    17   18    8 1
    18   19   18 1
    19   20   18 1
    20   21    1 1
    21   22   23 1
    22   24   22 1
    23   25   22 1
    24   26   25 1
    25   27   25 1
    26   28   25 1
    27   29    1 1
    28   30   29 1
    29   31   29 1
    30   32   29 1
    31   33    5 2
    32   34   21 2
    33   35   21 1
    34   36   32 2
    35   37   32 2
    36    6   16 1
    37   14   16 1
    38   14   18 1
    39   22   35 1
@<TRIPOS>SUBSTRUCTURE
     1 RES1 1

@<TRIPOS>CRYSIN
   8.2737    8.8338    8.9645  95.2190  96.8340 101.0660   2 1

