# MOL2 file generated by ConQuest
# Please check atom types

@<TRIPOS>MOLECULE
USOSUR
    90    90     2
SMALL
NO_CHARGES
****
Generated from CSD

@<TRIPOS>ATOM
      1 N1        -2.2819    1.6334    3.6121 N.am      1 RES1    0.0000
      2 N2        -0.2490    2.5802    6.7580 N.am      1 RES1    0.0000
      3 O1        -0.2507    2.5436    3.8261 O.2       1 RES1    0.0000
      4 O2        -2.4684    1.7788    4.9924 O.3       1 RES1    0.0000
      5 O3        -0.7792    2.0410    8.8493 O.2       1 RES1    0.0000
      6 C1        -1.9231    0.8785    7.1117 C.3       1 RES1    0.0000
      7 C2        -3.2174    0.7479    7.9055 C.3       1 RES1    0.0000
      8 H1        -3.3421    1.3386    8.6634 H         1 RES1    0.0000
      9 H2        -4.0265    0.5382    7.4149 H         1 RES1    0.0000
     10 C3        -2.1985   -0.3027    8.0212 C.3       1 RES1    0.0000
     11 H3        -2.3844   -1.1575    7.6023 H         1 RES1    0.0000
     12 H4        -1.7005   -0.3562    8.8525 H         1 RES1    0.0000
     13 C4        -1.9882    0.5995    5.6577 C.3       1 RES1    0.0000
     14 H5        -1.1074    0.3661    5.3236 H         1 RES1    0.0000
     15 H6        -2.5866   -0.1444    5.4882 H         1 RES1    0.0000
     16 C5        -1.1494    2.1399    3.0970 C.2       1 RES1    0.0000
     17 C6        -1.0814    2.1300    1.5762 C.3       1 RES1    0.0000
     18 C7        -1.5735    0.8043    0.9878 C.3       1 RES1    0.0000
     19 H7        -2.5198    0.7242    1.1296 H         1 RES1    0.0000
     20 H8        -1.1224    0.0762    1.4214 H         1 RES1    0.0000
     21 H9        -1.3872    0.7826    0.0473 H         1 RES1    0.0000
     22 C8         0.3617    2.3477    1.1638 C.3       1 RES1    0.0000
     23 H10        0.4180    2.3971    0.2070 H         1 RES1    0.0000
     24 H11        0.8976    1.6156    1.4784 H         1 RES1    0.0000
     25 H12        0.6838    3.1668    1.5452 H         1 RES1    0.0000
     26 C9        -1.9498    3.2618    1.0448 C.3       1 RES1    0.0000
     27 H13       -1.6462    4.0968    1.4083 H         1 RES1    0.0000
     28 H14       -2.8623    3.1144    1.3056 H         1 RES1    0.0000
     29 H15       -1.8908    3.2895    0.0880 H         1 RES1    0.0000
     30 C10       -0.9475    1.8777    7.6463 C.2       1 RES1    0.0000
     31 C11        0.7148    3.6031    7.1264 C.3       1 RES1    0.0000
     32 H16        0.9322    3.4953    8.0652 H         1 RES1    0.0000
     33 H17        1.5279    3.4547    6.6194 H         1 RES1    0.0000
     34 C12        0.2988    4.9219    6.9194 C.3       1 RES1    0.0000
     35 H18       -0.1173    4.9397    7.8061 H         1 RES1    0.0000
     36 C13        1.3494    5.9726    7.3758 C.3       1 RES1    0.0000
     37 H19        1.0902    6.8412    7.0628 H         1 RES1    0.0000
     38 H20        2.2084    5.7440    7.0139 H         1 RES1    0.0000
     39 H21        1.3985    5.9795    8.3358 H         1 RES1    0.0000
     40 C14       -0.8187    5.5452    6.3668 C.3       1 RES1    0.0000
     41 H22       -1.2994    4.9179    5.8224 H         1 RES1    0.0000
     42 H23       -0.5386    6.2882    5.8289 H         1 RES1    0.0000
     43 H24       -1.3911    5.8598    7.0726 H         1 RES1    0.0000
     44 H25       -0.4062    2.5228    5.9332 H         1 RES1    0.0000
     45 H26       -3.0483    1.3752    3.1459 H         1 RES1    0.0000
     46 N3        -3.0786    8.0086    4.7775 N.am      2 RES2    0.0000
     47 H27       -3.5792    7.9849    5.4752 H         2 RES2    0.0000
     48 N4        -0.4009    9.1523    2.2576 N.am      2 RES2    0.0000
     49 H28       -1.1381    8.7674    2.4760 H         2 RES2    0.0000
     50 O4        -2.7395    7.3863    2.6605 O.2       2 RES2    0.0000
     51 O5        -1.9650    8.8476    4.7206 O.3       2 RES2    0.0000
     52 O6         0.9281   10.9449    2.5607 O.2       2 RES2    0.0000
     53 C15       -1.0693   10.8480    3.8517 C.3       2 RES2    0.0000
     54 C16       -0.4551   11.6582    4.9715 C.3       2 RES2    0.0000
     55 H29       -0.8793   11.6177    5.8419 H         2 RES2    0.0000
     56 H30        0.5110   11.7354    4.9927 H         2 RES2    0.0000
     57 C17       -1.1700   12.3537    3.8973 C.3       2 RES2    0.0000
     58 H31       -0.6433   12.8603    3.2600 H         2 RES2    0.0000
     59 H32       -2.0332   12.7416    4.1092 H         2 RES2    0.0000
     60 C18       -2.3190   10.0981    4.1321 C.3       2 RES2    0.0000
     61 H33       -2.8814   10.6036    4.7400 H         2 RES2    0.0000
     62 H34       -2.8116    9.9516    3.3105 H         2 RES2    0.0000
     63 C19       -3.3438    7.2419    3.7148 C.2       2 RES2    0.0000
     64 C20       -4.4612    6.2120    3.8745 C.3       2 RES2    0.0000
     65 C21       -5.5894    6.7017    4.7319 C.3       2 RES2    0.0000
     66 H35       -5.2687    6.8699    5.6202 H         2 RES2    0.0000
     67 H36       -6.2804    6.0369    4.7612 H         2 RES2    0.0000
     68 H37       -5.9437    7.5139    4.3603 H         2 RES2    0.0000
     69 C22       -3.8357    4.9951    4.5461 C.3       2 RES2    0.0000
     70 H38       -3.1983    4.5944    3.9511 H         2 RES2    0.0000
     71 H39       -4.5209    4.3580    4.7580 H         2 RES2    0.0000
     72 H40       -3.3923    5.2672    5.3546 H         2 RES2    0.0000
     73 C23       -5.0011    5.8262    2.5118 C.3       2 RES2    0.0000
     74 H41       -5.3155    6.6117    2.0571 H         2 RES2    0.0000
     75 H42       -5.7278    5.2078    2.6178 H         2 RES2    0.0000
     76 H43       -4.3038    5.4156    1.9951 H         2 RES2    0.0000
     77 C24       -0.0960   10.3137    2.8476 C.2       2 RES2    0.0000
     78 C25        0.4306    8.5112    1.2779 C.3       2 RES2    0.0000
     79 H44       -0.0176    8.5587    0.4189 H         2 RES2    0.0000
     80 H45        1.2559    9.0148    1.2029 H         2 RES2    0.0000
     81 C26        0.7601    7.1528    1.5338 C.3       2 RES2    0.0000
     82 H46       -0.0946    6.7225    1.3236 H         2 RES2    0.0000
     83 C27        1.0203    6.5820    2.8672 C.3       2 RES2    0.0000
     84 H47        1.8016    6.9936    3.2453 H         2 RES2    0.0000
     85 H48        1.1640    5.6362    2.7889 H         2 RES2    0.0000
     86 H49        0.2664    6.7442    3.4393 H         2 RES2    0.0000
     87 C28        1.6430    6.5404    0.4694 C.3       2 RES2    0.0000
     88 H50        2.4442    7.0608    0.3798 H         2 RES2    0.0000
     89 H51        1.1730    6.5306   -0.3684 H         2 RES2    0.0000
     90 H52        1.8691    5.6431    0.7188 H         2 RES2    0.0000
@<TRIPOS>BOND
     1    1    4 1
     2    2   30 1
     3    3   16 2
     4    4   13 1
     5    5   30 2
     6    6    7 1
     7    7    8 1
     8    9    7 1
     9   10    6 1
    10   11   10 1
    11   12   10 1
    12   13    6 1
    13   14   13 1
    14   15   13 1
    15   16    1 1
    16   17   16 1
    17   18   17 1
    18   19   18 1
    19   20   18 1
    20   21   18 1
    21   22   17 1
    22   23   22 1
    23   24   22 1
    24   25   22 1
    25   26   17 1
    26   27   26 1
    27   28   26 1
    28   29   26 1
    29   30    6 1
    30   31    2 1
    31   32   31 1
    32   33   31 1
    33   34   31 1
    34   35   34 1
    35   36   34 1
    36   37   36 1
    37   38   36 1
    38   39   36 1
    39   40   34 1
    40   41   40 1
    41   42   40 1
    42   43   40 1
    43   44    2 1
    44   45    1 1
    45   46   47 1
    46   48   49 1
    47   50   63 2
    48   51   46 1
    49   52   77 2
    50   53   54 1
    51   54   55 1
    52   56   54 1
    53   57   53 1
    54   58   57 1
    55   59   57 1
    56   60   51 1
    57   61   60 1
    58   62   60 1
    59   63   46 1
    60   64   63 1
    61   65   64 1
    62   66   65 1
    63   67   65 1
    64   68   65 1
    65   69   64 1
    66   70   69 1
    67   71   69 1
    68   72   69 1
    69   73   64 1
    70   74   73 1
    71   75   73 1
    72   76   73 1
    73   77   48 1
    74   78   48 1
    75   79   78 1
    76   80   78 1
    77   81   78 1
    78   82   81 1
    79   83   81 1
    80   84   83 1
    81   85   83 1
    82   86   83 1
    83   87   81 1
    84   88   87 1
    85   89   87 1
    86   90   87 1
    87    7   10 1
    88   53   60 1
    89   53   77 1
    90   54   57 1
@<TRIPOS>SUBSTRUCTURE
     1 RES1 1
     2 RES2 46

@<TRIPOS>CRYSIN
  10.2500   10.8800   16.3000  90.0000  90.0000 114.5900   2 1

