# MOL2 file generated by ConQuest
# Please check atom types

@<TRIPOS>MOLECULE
USOTAY
    64    66     1
SMALL
NO_CHARGES
****
Generated from CSD

@<TRIPOS>ATOM
      1 N1         4.3299   14.2210    5.5906 N.am      1 RES1    0.0000
      2 H1         4.6337   13.4361    5.4105 H         1 RES1    0.0000
      3 N2         1.8911   17.1278    5.8757 N.am      1 RES1    0.0000
      4 H2         2.6094   16.7533    5.5846 H         1 RES1    0.0000
      5 N3        -0.3996   19.7058    7.7222 N.am      1 RES1    0.0000
      6 H3        -0.1875   18.9667    7.3371 H         1 RES1    0.0000
      7 O1         4.6072   16.4285    5.5256 O.2       1 RES1    0.0000
      8 O2         3.0307   14.4043    6.0427 O.3       1 RES1    0.0000
      9 O3        -0.2547   16.8947    6.4838 O.2       1 RES1    0.0000
     10 O4         1.8672   18.5264    6.2017 O.3       1 RES1    0.0000
     11 O5         0.3201   21.5587    8.7325 O.2       1 RES1    0.0000
     12 C1         6.8101   13.8325    4.3232 C.3       1 RES1    0.0000
     13 H4         6.4636   13.0655    4.7863 H         1 RES1    0.0000
     14 H5         7.7521   13.7190    4.1792 H         1 RES1    0.0000
     15 H6         6.3652   13.9242    3.4770 H         1 RES1    0.0000
     16 C2         7.2778   14.9363    6.4938 C.3       1 RES1    0.0000
     17 H7         7.1215   15.7192    7.0270 H         1 RES1    0.0000
     18 H8         8.2207   14.8327    6.3448 H         1 RES1    0.0000
     19 H9         6.9390   14.1633    6.9520 H         1 RES1    0.0000
     20 C3         7.1121   16.2771    4.4152 C.3       1 RES1    0.0000
     21 H10        6.9683   17.0720    4.9344 H         1 RES1    0.0000
     22 H11        6.6613   16.3608    3.5720 H         1 RES1    0.0000
     23 H12        8.0531   16.1595    4.2652 H         1 RES1    0.0000
     24 C4         6.5689   15.0837    5.1615 C.3       1 RES1    0.0000
     25 C5         5.0954   15.3128    5.4435 C.2       1 RES1    0.0000
     26 C6         2.1376   14.5338    4.9324 C.3       1 RES1    0.0000
     27 H13        2.0142   13.6771    4.4983 H         1 RES1    0.0000
     28 H14        2.4971   15.1594    4.2842 H         1 RES1    0.0000
     29 C7         0.8386   15.0339    5.4675 C.3       1 RES1    0.0000
     30 C8        -0.1145   14.0417    6.0737 C.3       1 RES1    0.0000
     31 H15        0.1693   13.1153    6.1237 H         1 RES1    0.0000
     32 H16       -0.6639   14.3386    6.8159 H         1 RES1    0.0000
     33 C9        -0.4075   14.6016    4.7303 C.3       1 RES1    0.0000
     34 H17       -1.1327   15.2411    4.6563 H         1 RES1    0.0000
     35 H18       -0.2983   14.0178    3.9641 H         1 RES1    0.0000
     36 C10        0.7674   16.4225    6.0377 C.2       1 RES1    0.0000
     37 C11        2.2313   18.5882    7.5191 C.3       1 RES1    0.0000
     38 H19        3.1626   18.3471    7.6382 H         1 RES1    0.0000
     39 H20        1.6792   18.0044    8.0643 H         1 RES1    0.0000
     40 C12        1.9824   20.1163    7.8772 C.3       1 RES1    0.0000
     41 C13        3.0328   20.7299    8.7475 C.3       1 RES1    0.0000
     42 H21        2.7411   21.3236    9.4557 H         1 RES1    0.0000
     43 H22        3.8106   20.1900    8.9635 H         1 RES1    0.0000
     44 C14        2.8913   21.1961    7.3651 C.3       1 RES1    0.0000
     45 H23        3.5801   20.9431    6.7309 H         1 RES1    0.0000
     46 H24        2.5107   22.0767    7.2230 H         1 RES1    0.0000
     47 C15        0.5786   20.5147    8.1363 C.2       1 RES1    0.0000
     48 C16       -1.8054   20.0186    7.8942 C.3       1 RES1    0.0000
     49 H25       -1.9137   20.4390    8.7725 H         1 RES1    0.0000
     50 C17       -2.6474   18.7615    7.8772 C.3       1 RES1    0.0000
     51 H26       -2.3757   18.1817    8.6064 H         1 RES1    0.0000
     52 H27       -2.4987   18.2853    7.0450 H         1 RES1    0.0000
     53 C18       -4.1271   19.0882    8.0153 C.3       1 RES1    0.0000
     54 H28       -4.6425   18.2694    7.9492 H         1 RES1    0.0000
     55 H29       -4.2892   19.4727    8.8915 H         1 RES1    0.0000
     56 C19       -4.5813   20.0346    6.9770 C.3       1 RES1    0.0000
     57 H30       -5.5174   20.2458    7.1150 H         1 RES1    0.0000
     58 H31       -4.4879   19.6281    6.1017 H         1 RES1    0.0000
     59 C20       -3.7683   21.2897    7.0370 C.3       1 RES1    0.0000
     60 H32       -3.9063   21.7240    7.8932 H         1 RES1    0.0000
     61 H33       -4.0615   21.8974    6.3408 H         1 RES1    0.0000
     62 C21       -2.2915   20.9909    6.8559 C.3       1 RES1    0.0000
     63 H34       -2.1436   20.6183    5.9727 H         1 RES1    0.0000
     64 H35       -1.7834   21.8137    6.9230 H         1 RES1    0.0000
@<TRIPOS>BOND
     1    1    2 1
     2    3    4 1
     3    5    6 1
     4    7   25 2
     5    8    1 1
     6    9   36 2
     7   10    3 1
     8   11   47 2
     9   12   13 1
    10   14   12 1
    11   15   12 1
    12   16   17 1
    13   18   16 1
    14   19   16 1
    15   20   21 1
    16   22   20 1
    17   23   20 1
    18   24   12 1
    19   25    1 1
    20   26    8 1
    21   27   26 1
    22   28   26 1
    23   29   26 1
    24   30   29 1
    25   31   30 1
    26   32   30 1
    27   33   29 1
    28   34   33 1
    29   35   33 1
    30   36    3 1
    31   37   10 1
    32   38   37 1
    33   39   37 1
    34   40   37 1
    35   41   40 1
    36   42   41 1
    37   43   41 1
    38   44   40 1
    39   45   44 1
    40   46   44 1
    41   47    5 1
    42   48    5 1
    43   49   48 1
    44   50   48 1
    45   51   50 1
    46   52   50 1
    47   53   50 1
    48   54   53 1
    49   55   53 1
    50   56   53 1
    51   57   56 1
    52   58   56 1
    53   59   56 1
    54   60   59 1
    55   61   59 1
    56   62   48 1
    57   63   62 1
    58   64   62 1
    59   16   24 1
    60   20   24 1
    61   24   25 1
    62   29   36 1
    63   30   33 1
    64   40   47 1
    65   41   44 1
    66   59   62 1
@<TRIPOS>SUBSTRUCTURE
     1 RES1 1

@<TRIPOS>CRYSIN
  11.3950   19.9230   10.8060  90.0000 112.2300  90.0000  14 1

