# MOL2 file generated by ConQuest
# Please check atom types

@<TRIPOS>MOLECULE
USULOK
    31    31     1
SMALL
NO_CHARGES
****
Generated from CSD

@<TRIPOS>ATOM
      1 C1         4.1533    2.4450   10.8373 C.2       1 RES1    0.0000
      2 C2         4.4731    2.6115    9.5541 C.2       1 RES1    0.0000
      3 H1         5.0942    3.2806    9.3793 H         1 RES1    0.0000
      4 C3         3.9806    1.8878    8.3851 C.ar      1 RES1    0.0000
      5 C4         4.8185    1.7699    7.2729 C.ar      1 RES1    0.0000
      6 H2         5.6649    2.1538    7.3015 H         1 RES1    0.0000
      7 C5         4.4266    1.1062    6.1455 C.ar      1 RES1    0.0000
      8 H3         5.0026    1.0416    5.4183 H         1 RES1    0.0000
      9 C6         3.1800    0.5345    6.0861 C.ar      1 RES1    0.0000
     10 H4         2.9151    0.0707    5.3240 H         1 RES1    0.0000
     11 C7         2.3142    0.6500    7.1646 C.ar      1 RES1    0.0000
     12 H5         1.4682    0.2646    7.1235 H         1 RES1    0.0000
     13 C8         2.7026    1.3343    8.3008 C.ar      1 RES1    0.0000
     14 H6         2.1099    1.4255    9.0112 H         1 RES1    0.0000
     15 C9         3.2573    1.4118   11.4396 C.3       1 RES1    0.0000
     16 H7         3.1187    0.7238   10.7560 H         1 RES1    0.0000
     17 C10        3.8288    0.7124   12.6540 C.2       1 RES1    0.0000
     18 C11        5.7246   -0.4014   13.5336 C.3       1 RES1    0.0000
     19 H8         5.6833    0.1285   14.3443 H         1 RES1    0.0000
     20 H9         5.2755   -1.2461   13.6963 H         1 RES1    0.0000
     21 C12        7.1121   -0.6394   13.1654 C.3       1 RES1    0.0000
     22 H10        7.5566   -1.1070   13.8758 H         1 RES1    0.0000
     23 H11        7.5513    0.2000   13.0103 H         1 RES1    0.0000
     24 H12        7.1445   -1.1693   12.3638 H         1 RES1    0.0000
     25 N1         4.7605    3.3726   11.8013 N.pl3     1 RES1    0.0000
     26 O1         4.3918    3.2813   12.9691 O.2       1 RES1    0.0000
     27 O2         5.5744    4.1929   11.4274 O.2       1 RES1    0.0000
     28 O3         1.9797    1.9144   11.7786 O.3       1 RES1    0.0000
     29 H13        1.9379    2.7096   11.5819 H         1 RES1    0.0000
     30 O4         5.0666    0.3102   12.4359 O.3       1 RES1    0.0000
     31 O5         3.1945    0.5231   13.6601 O.2       1 RES1    0.0000
@<TRIPOS>BOND
     1    1    2 2
     2    2    3 1
     3    4    2 1
     4    5    4 ar
     5    6    5 1
     6    7    5 ar
     7    8    7 1
     8    9    7 ar
     9   10    9 1
    10   11    9 ar
    11   12   11 1
    12   13    4 ar
    13   14   13 1
    14   15    1 1
    15   16   15 1
    16   17   15 1
    17   18   19 1
    18   20   18 1
    19   21   18 1
    20   22   21 1
    21   23   21 1
    22   24   21 1
    23   25    1 1
    24   26   25 2
    25   27   25 2
    26   28   15 1
    27   29   28 1
    28   30   17 1
    29   31   17 2
    30   11   13 ar
    31   18   30 1
@<TRIPOS>SUBSTRUCTURE
     1 RES1 1

@<TRIPOS>CRYSIN
  10.7256    7.6027   15.2187  90.0000  91.7780  90.0000 231 1

