# MOL2 file generated by ConQuest
# Please check atom types

@<TRIPOS>MOLECULE
USUMAX
    55    55     2
SMALL
NO_CHARGES
****
Generated from CSD

@<TRIPOS>ATOM
      1 O1        -4.2352   10.0129   11.5313 O.2       1 RES1    0.0000
      2 O2        -0.0405    8.1464    9.1587 O.2       1 RES1    0.0000
      3 O3         1.3328    9.6002    8.3449 O.2       1 RES1    0.0000
      4 O4        -3.1631   12.0766   10.4601 O.3       1 RES1    0.0000
      5 H1        -3.7312   11.6297   10.8488 H         1 RES1    0.0000
      6 N1         0.3069    9.3238    8.9915 N.pl3     1 RES1    0.0000
      7 N2         0.8993   12.1922    8.6418 N.2       1 RES1    0.0000
      8 N3        -0.9447   12.4675   10.0779 N.3       1 RES1    0.0000
      9 C1        -3.9820    7.7291   11.9055 C.ar      1 RES1    0.0000
     10 C2        -3.1815    6.6190   12.0313 C.ar      1 RES1    0.0000
     11 H2        -2.3294    6.6220   11.6592 H         1 RES1    0.0000
     12 C3        -3.6267    5.5001   12.7041 C.ar      1 RES1    0.0000
     13 H3        -3.0611    4.7663   12.7839 H         1 RES1    0.0000
     14 C4        -4.8677    5.4413   13.2517 C.ar      1 RES1    0.0000
     15 C5        -5.6791    6.5369   13.0921 C.ar      1 RES1    0.0000
     16 H4        -6.5432    6.5172   13.4363 H         1 RES1    0.0000
     17 C6        -5.2453    7.6640   12.4363 C.ar      1 RES1    0.0000
     18 H5        -5.8161    8.3926   12.3506 H         1 RES1    0.0000
     19 C7        -5.3519    4.2386   14.0151 C.3       1 RES1    0.0000
     20 H6        -5.4937    3.5097   13.4081 H         1 RES1    0.0000
     21 H7        -6.1767    4.4517   14.4578 H         1 RES1    0.0000
     22 H8        -4.6942    3.9883   14.6690 H         1 RES1    0.0000
     23 C8        -3.5157    9.0274   11.3438 C.2       1 RES1    0.0000
     24 C9        -2.2782    9.0856   10.6356 C.2       1 RES1    0.0000
     25 H9        -1.9086    8.2743   10.3686 H         1 RES1    0.0000
     26 C10       -1.5870   10.2088   10.3135 C.2       1 RES1    0.0000
     27 C11       -0.4194   10.3507    9.5402 C.2       1 RES1    0.0000
     28 C12       -0.0902   11.7368    9.3768 C.2       1 RES1    0.0000
     29 C13        1.2939   13.5452    8.3552 C.2       1 RES1    0.0000
     30 H10        1.6541   13.7553    7.5246 H         1 RES1    0.0000
     31 C14        1.1370   14.5575    9.3314 C.3       1 RES1    0.0000
     32 H11        1.5161   15.3797    8.9825 H         1 RES1    0.0000
     33 H12        1.6499   14.3099   10.1151 H         1 RES1    0.0000
     34 C15       -0.2720   14.8281    9.7522 C.2       1 RES1    0.0000
     35 H13       -0.5927   15.7008    9.7162 H         1 RES1    0.0000
     36 C16       -1.0647   13.8834   10.1699 C.2       1 RES1    0.0000
     37 H14       -1.8353   14.1812   10.5970 H         1 RES1    0.0000
     38 C17       -1.9065   11.6266   10.8096 C.3       1 RES1    0.0000
     39 C18       -1.6286   11.7305   12.3034 C.ar      1 RES1    0.0000
     40 C19       -0.4216   11.3185   12.8004 C.ar      1 RES1    0.0000
     41 H15        0.2142   10.9574   12.2255 H         1 RES1    0.0000
     42 C20       -0.1400   11.4332   14.1435 C.ar      1 RES1    0.0000
     43 H16        0.6829   11.1419   14.4640 H         1 RES1    0.0000
     44 C21       -1.0506   11.9692   15.0164 C.ar      1 RES1    0.0000
     45 C22       -2.2501   12.3550   14.5125 C.ar      1 RES1    0.0000
     46 H17       -2.8866   12.7131   15.0882 H         1 RES1    0.0000
     47 C23       -2.5551   12.2351   13.1717 C.ar      1 RES1    0.0000
     48 H18       -3.3905   12.4961   12.8590 H         1 RES1    0.0000
     49 C24       -0.6962   12.1411   16.4642 C.3       1 RES1    0.0000
     50 H19       -0.0301   11.4947   16.7089 H         1 RES1    0.0000
     51 H20       -1.4804   12.0122   17.0030 H         1 RES1    0.0000
     52 H21       -0.3523   13.0259   16.6072 H         1 RES1    0.0000
     53 C25        0.4956   14.6372    8.3943 Du        2 SUP2    0.0000
     54 H22       -0.1535   14.5742    7.6763 Du        2 SUP2    0.0000
     55 H23        1.0381   15.4245    8.2301 Du        2 SUP2    0.0000
@<TRIPOS>BOND
     1    1   23 2
     2    2    6 2
     3    3    6 2
     4    4    5 1
     5    6   27 1
     6    7   28 1
     7    8   28 1
     8    9   10 ar
     9   10   11 1
    10   12   10 ar
    11   13   12 1
    12   14   12 ar
    13   15   14 ar
    14   16   15 1
    15   17    9 ar
    16   18   17 1
    17   19   14 1
    18   20   19 1
    19   21   19 1
    20   22   19 1
    21   23    9 1
    22   24   23 1
    23   25   24 1
    24   26   24 2
    25   27   26 1
    26   28   27 2
    27   29    7 2
    28   30   29 1
    29   31   29 1
    30   32   31 1
    31   33   31 1
    32   34   31 1
    33   35   34 1
    34   36    8 1
    35   37   36 1
    36   38    4 1
    37   39   38 1
    38   40   39 ar
    39   41   40 1
    40   42   40 ar
    41   43   42 1
    42   44   42 ar
    43   45   44 ar
    44   46   45 1
    45   47   39 ar
    46   48   47 1
    47   49   44 1
    48   50   49 1
    49   51   49 1
    50   52   49 1
    51    8   38 1
    52   15   17 ar
    53   26   38 1
    54   34   36 2
    55   45   47 ar
@<TRIPOS>SUBSTRUCTURE
     1 RES1 1
     2 SUP2 53

@<TRIPOS>CRYSIN
   6.4600   10.4517   15.7074  90.0550  95.1650  90.9930   2 1

