# MOL2 file generated by ConQuest
# Please check atom types

@<TRIPOS>MOLECULE
UTADEA
    34    35     1
SMALL
NO_CHARGES
****
Generated from CSD

@<TRIPOS>ATOM
      1 C1         5.0538    1.5918    2.0031 C.ar      1 RES1    0.0000
      2 H1         4.4343    1.7888    1.3106 H         1 RES1    0.0000
      3 C2         6.2949    2.1953    2.0263 C.ar      1 RES1    0.0000
      4 H2         6.5293    2.8070    1.3373 H         1 RES1    0.0000
      5 C3         7.1991    1.9281    3.0296 C.ar      1 RES1    0.0000
      6 H3         8.0389    2.3704    3.0448 H         1 RES1    0.0000
      7 C4         6.8773    1.0055    4.0213 C.ar      1 RES1    0.0000
      8 H4         7.5089    0.8051    4.7022 H         1 RES1    0.0000
      9 C5         5.6382    0.3755    4.0236 C.ar      1 RES1    0.0000
     10 H5         5.4219   -0.2534    4.7022 H         1 RES1    0.0000
     11 C6         4.7159    0.6750    3.0250 C.ar      1 RES1    0.0000
     12 C7         2.5043    0.0657    2.0485 C.2       1 RES1    0.0000
     13 C8         1.3376   -0.7521    2.6258 C.3       1 RES1    0.0000
     14 C9         1.9190   -1.2209    3.9223 C.2       1 RES1    0.0000
     15 C10        1.2451   -2.1182    4.8930 C.3       1 RES1    0.0000
     16 H6         1.8264   -2.2529    5.6705 H         1 RES1    0.0000
     17 H7         1.0631   -2.9820    4.4682 H         1 RES1    0.0000
     18 H8         0.4013   -1.7116    5.1828 H         1 RES1    0.0000
     19 C11        0.1599    0.1866    2.9051 C.3       1 RES1    0.0000
     20 H9        -0.1106    0.6277    2.0729 H         1 RES1    0.0000
     21 H10        0.4295    0.8639    3.5604 H         1 RES1    0.0000
     22 H11       -0.5924   -0.3306    3.2612 H         1 RES1    0.0000
     23 C12        1.8224   -2.8081    1.4200 C.2       1 RES1    0.0000
     24 C13        1.3889   -3.8355    0.4178 C.3       1 RES1    0.0000
     25 H12        2.0346   -4.5727    0.4062 H         1 RES1    0.0000
     26 H13        1.3437   -3.4266   -0.4714 H         1 RES1    0.0000
     27 H14        0.5049   -4.1799    0.6646 H         1 RES1    0.0000
     28 N1         3.4366    0.0841    3.0471 N.am      1 RES1    0.0000
     29 N2         3.0695   -0.6991    4.1749 N.2       1 RES1    0.0000
     30 N3         0.9384   -1.8510    1.7435 N.am      1 RES1    0.0000
     31 O1         2.5596    0.5563    0.9509 O.2       1 RES1    0.0000
     32 O2        -0.1338   -1.6148    0.8892 O.3       1 RES1    0.0000
     33 H15       -0.8287   -1.9638    1.2093 H         1 RES1    0.0000
     34 O3         2.9277   -2.7851    1.9402 O.2       1 RES1    0.0000
@<TRIPOS>BOND
     1    1    2 1
     2    3    1 ar
     3    4    3 1
     4    5    3 ar
     5    6    5 1
     6    7    5 ar
     7    8    7 1
     8    9    7 ar
     9   10    9 1
    10   11    1 ar
    11   12   13 1
    12   13   14 1
    13   14   15 1
    14   15   16 1
    15   17   15 1
    16   18   15 1
    17   19   13 1
    18   20   19 1
    19   21   19 1
    20   22   19 1
    21   23   24 1
    22   24   25 1
    23   26   24 1
    24   27   24 1
    25   28   11 1
    26   29   14 2
    27   30   13 1
    28   31   12 2
    29   32   30 1
    30   33   32 1
    31   34   23 2
    32    9   11 ar
    33   12   28 1
    34   23   30 1
    35   28   29 1
@<TRIPOS>SUBSTRUCTURE
     1 RES1 1

@<TRIPOS>CRYSIN
  10.0574   11.5181   11.6390  90.0000  90.0000  90.0000  33 1

