# MOL2 file generated by ConQuest
# Please check atom types

@<TRIPOS>MOLECULE
UTADAW
    41    42     1
SMALL
NO_CHARGES
****
Generated from CSD

@<TRIPOS>ATOM
      1 C1         7.2135    1.3855    0.2902 C.ar      1 RES1    0.0000
      2 H1         6.4295    1.3640   -0.2464 H         1 RES1    0.0000
      3 C2         8.4464    1.0459   -0.2446 C.ar      1 RES1    0.0000
      4 H2         8.5046    0.7964   -1.1590 H         1 RES1    0.0000
      5 C3         9.5931    1.0626    0.5295 C.ar      1 RES1    0.0000
      6 H3        10.4312    0.8327    0.1473 H         1 RES1    0.0000
      7 C4         9.5086    1.4172    1.8617 C.ar      1 RES1    0.0000
      8 H4        10.2928    1.4184    2.3974 H         1 RES1    0.0000
      9 C5         8.2925    1.7692    2.4260 C.ar      1 RES1    0.0000
     10 H5         8.2395    2.0139    3.3421 H         1 RES1    0.0000
     11 C6         7.1450    1.7584    1.6277 C.ar      1 RES1    0.0000
     12 C7         4.8498    2.7588    1.6018 C.2       1 RES1    0.0000
     13 C8         3.8177    2.9753    2.7349 C.3       1 RES1    0.0000
     14 C9         4.5780    2.4280    3.9197 C.2       1 RES1    0.0000
     15 C10        4.0485    2.3733    5.3082 C.3       1 RES1    0.0000
     16 H6         3.2618    1.7888    5.3350 H         1 RES1    0.0000
     17 H7         3.7962    3.2750    5.5975 H         1 RES1    0.0000
     18 H8         4.7392    2.0199    5.9073 H         1 RES1    0.0000
     19 C11        4.8003    5.8564    4.0697 C.2       1 RES1    0.0000
     20 C12        5.8879    6.8788    3.9867 C.3       1 RES1    0.0000
     21 H9         5.5124    7.7699    4.1439 H         1 RES1    0.0000
     22 H10        6.2964    6.8501    3.0956 H         1 RES1    0.0000
     23 H11        6.5689    6.6867    4.6644 H         1 RES1    0.0000
     24 C13        2.5404    2.2208    2.4291 C.2       1 RES1    0.0000
     25 C14        1.4412    2.8725    1.6634 C.3       1 RES1    0.0000
     26 H12        1.2073    2.3177    0.8911 H         1 RES1    0.0000
     27 H13        1.7365    3.7543    1.3545 H         1 RES1    0.0000
     28 H14        0.6560    2.9748    2.2420 H         1 RES1    0.0000
     29 C15        1.4652   -0.9815    3.0206 C.3       1 RES1    0.0000
     30 H15        2.2251   -1.4681    2.6394 H         1 RES1    0.0000
     31 H16        0.6344   -1.4596    2.8161 H         1 RES1    0.0000
     32 H17        1.5743   -0.9150    3.9921 H         1 RES1    0.0000
     33 N1         5.9004    2.1347    2.1995 N.am      1 RES1    0.0000
     34 N2         5.7308    1.9783    3.6028 N.2       1 RES1    0.0000
     35 N3         4.6375    5.1354    2.9312 N.am      1 RES1    0.0000
     36 H18        4.9418    5.4220    2.2054 H         1 RES1    0.0000
     37 N4         2.5658    1.0140    2.8376 N.2       1 RES1    0.0000
     38 O1         4.7250    3.0948    0.4407 O.2       1 RES1    0.0000
     39 O2         3.4664    4.3569    2.8441 O.3       1 RES1    0.0000
     40 O3         4.1282    5.6514    5.0777 O.2       1 RES1    0.0000
     41 O4         1.4111    0.3245    2.4599 O.3       1 RES1    0.0000
@<TRIPOS>BOND
     1    1    2 1
     2    3    1 ar
     3    4    3 1
     4    5    3 ar
     5    6    5 1
     6    7    5 ar
     7    8    7 1
     8    9    7 ar
     9   10    9 1
    10   11    1 ar
    11   12   13 1
    12   13   14 1
    13   14   15 1
    14   15   16 1
    15   17   15 1
    16   18   15 1
    17   19   20 1
    18   20   21 1
    19   22   20 1
    20   23   20 1
    21   24   13 1
    22   25   24 1
    23   26   25 1
    24   27   25 1
    25   28   25 1
    26   29   30 1
    27   31   29 1
    28   32   29 1
    29   33   11 1
    30   34   14 2
    31   35   19 1
    32   36   35 1
    33   37   24 2
    34   38   12 2
    35   39   13 1
    36   40   19 2
    37   41   29 1
    38    9   11 ar
    39   12   33 1
    40   33   34 1
    41   35   39 1
    42   37   41 1
@<TRIPOS>SUBSTRUCTURE
     1 RES1 1

@<TRIPOS>CRYSIN
  14.9994   12.1027    9.3258  90.0000 106.7780  90.0000   9 1

