# MOL2 file generated by ConQuest
# Please check atom types

@<TRIPOS>MOLECULE
UTAFOM
    44    46     1
SMALL
NO_CHARGES
****
Generated from CSD

@<TRIPOS>ATOM
      1 O1        -1.3462    2.6268   11.2297 O.3       1 RES1    0.0000
      2 O2        -2.3969    1.6709   12.9937 O.2       1 RES1    0.0000
      3 N1        -0.9444    1.2944   10.8563 N.2       1 RES1    0.0000
      4 N2         1.1865   -1.2790    7.8208 N.pl3     1 RES1    0.0000
      5 C1        -0.4973    1.2969    9.6450 C.2       1 RES1    0.0000
      6 N3         0.9697   -2.0160    8.9673 N.2       1 RES1    0.0000
      7 C2         0.2920   -1.2153    9.7779 C.2       1 RES1    0.0000
      8 C3         1.9736   -1.8470    6.7762 C.ar      1 RES1    0.0000
      9 C4         0.6525   -0.0332    7.9173 C.2       1 RES1    0.0000
     10 C5         0.0706    0.0485    9.1652 C.2       1 RES1    0.0000
     11 C6        -0.5111    2.4393    8.6597 C.3       1 RES1    0.0000
     12 H1        -0.4861    3.2729    9.1543 H         1 RES1    0.0000
     13 H2        -1.3490    2.4150    8.1723 H         1 RES1    0.0000
     14 C7         2.3733   -2.2632    4.4588 C.ar      1 RES1    0.0000
     15 H3         2.1490   -2.1366    3.5648 H         1 RES1    0.0000
     16 C8         0.7172    1.0720    6.9250 C.3       1 RES1    0.0000
     17 H4        -0.0225    0.9941    6.3019 H         1 RES1    0.0000
     18 H5         1.5439    1.0097    6.4219 H         1 RES1    0.0000
     19 C9         1.6057   -1.6716    5.4499 C.ar      1 RES1    0.0000
     20 H6         0.8572   -1.1667    5.2295 H         1 RES1    0.0000
     21 C10       -2.0100    2.6432   12.4225 C.2       1 RES1    0.0000
     22 C11        3.0894   -2.6050    7.1166 C.ar      1 RES1    0.0000
     23 H7         3.3368   -2.7056    8.0071 H         1 RES1    0.0000
     24 C12        1.9726    2.7230    8.3552 C.3       1 RES1    0.0000
     25 H8         2.6857    2.7394    7.7109 H         1 RES1    0.0000
     26 H9         2.1427    2.0359    9.0031 H         1 RES1    0.0000
     27 H10        1.9213    3.5739    8.7974 H         1 RES1    0.0000
     28 C13        0.3823    3.5323    6.6103 C.3       1 RES1    0.0000
     29 H11        0.3182    4.3815    7.0532 H         1 RES1    0.0000
     30 H12       -0.4415    3.3475    6.1522 H         1 RES1    0.0000
     31 H13        1.1025    3.5557    5.9761 H         1 RES1    0.0000
     32 C14        0.6482    2.4372    7.6428 C.3       1 RES1    0.0000
     33 C15        3.8242   -3.2070    6.1137 C.ar      1 RES1    0.0000
     34 H14        4.5629   -3.7275    6.3330 H         1 RES1    0.0000
     35 C16       -0.1131   -1.6846   11.1381 C.3       1 RES1    0.0000
     36 H15        0.1964   -2.5833   11.2710 H         1 RES1    0.0000
     37 H16       -1.0699   -1.6612   11.2134 H         1 RES1    0.0000
     38 H17        0.2737   -1.1103   11.8026 H         1 RES1    0.0000
     39 C17        3.4703   -3.0404    4.7854 C.ar      1 RES1    0.0000
     40 H18        3.9685   -3.4499    4.1150 H         1 RES1    0.0000
     41 C18       -2.1963    4.0510   12.8743 C.3       1 RES1    0.0000
     42 H19       -2.7037    4.0606   13.6886 H         1 RES1    0.0000
     43 H20       -2.6672    4.5446   12.1985 H         1 RES1    0.0000
     44 H21       -1.3389    4.4544   13.0261 H         1 RES1    0.0000
@<TRIPOS>BOND
     1    1    3 1
     2    2   21 2
     3    3    5 2
     4    4    6 1
     5    5   10 1
     6    6    7 2
     7    7   10 1
     8    8    4 1
     9    9    4 1
    10   10    9 2
    11   11    5 1
    12   12   11 1
    13   13   11 1
    14   14   15 1
    15   16    9 1
    16   17   16 1
    17   18   16 1
    18   19    8 ar
    19   20   19 1
    20   21    1 1
    21   22    8 ar
    22   23   22 1
    23   24   25 1
    24   26   24 1
    25   27   24 1
    26   28   29 1
    27   30   28 1
    28   31   28 1
    29   32   11 1
    30   33   22 ar
    31   34   33 1
    32   35    7 1
    33   36   35 1
    34   37   35 1
    35   38   35 1
    36   39   14 ar
    37   40   39 1
    38   41   21 1
    39   42   41 1
    40   43   41 1
    41   44   41 1
    42   14   19 ar
    43   16   32 1
    44   24   32 1
    45   28   32 1
    46   33   39 ar
@<TRIPOS>SUBSTRUCTURE
     1 RES1 1

@<TRIPOS>CRYSIN
  12.0216    8.6746   15.8382  90.0000 100.2160  90.0000 231 1

