# MOL2 file generated by ConQuest
# Please check atom types

@<TRIPOS>MOLECULE
UTAGED
   115   122     1
SMALL
NO_CHARGES
****
Generated from CSD

@<TRIPOS>ATOM
      1 O1        10.7569    0.6732   27.1624 O.2       1 RES1    0.0000
      2 O2         1.6510    6.4344   25.3817 O.2       1 RES1    0.0000
      3 O3         2.2290    8.5503   24.9139 O.3       1 RES1    0.0000
      4 N1         1.1734    8.9144   25.8434 N.2       1 RES1    0.0000
      5 N2        -0.4885   11.8977   28.7483 N.pl3     1 RES1    0.0000
      6 N3        -1.3770   10.8464   28.6216 N.2       1 RES1    0.0000
      7 C1         7.4111    1.1205   26.1442 C.3       1 RES1    0.0000
      8 H1         7.7618    1.1942   25.2438 H         1 RES1    0.0000
      9 H2         6.6002    0.5902   26.1038 H         1 RES1    0.0000
     10 C2         8.4402    0.3889   27.0200 C.3       1 RES1    0.0000
     11 H3         8.0293    0.1675   27.8716 H         1 RES1    0.0000
     12 H4         8.6886   -0.4426   26.5862 H         1 RES1    0.0000
     13 C3         9.6602    1.1819   27.2693 C.2       1 RES1    0.0000
     14 C4         9.5196    2.6421   27.6529 C.3       1 RES1    0.0000
     15 C5         8.4046    3.2937   26.8019 C.3       1 RES1    0.0000
     16 H5         8.7717    3.3076   25.8940 H         1 RES1    0.0000
     17 C6         8.1535    4.7708   27.1258 C.3       1 RES1    0.0000
     18 H6         7.6632    4.8415   27.9585 H         1 RES1    0.0000
     19 H7         9.0018    5.2288   27.2334 H         1 RES1    0.0000
     20 C7         7.3609    5.4301   26.0130 C.3       1 RES1    0.0000
     21 H8         7.8896    5.4071   25.1989 H         1 RES1    0.0000
     22 H9         7.2175    6.3600   26.2446 H         1 RES1    0.0000
     23 C8         6.0158    4.7861   25.7340 C.3       1 RES1    0.0000
     24 C9         6.2176    3.2492   25.5399 C.3       1 RES1    0.0000
     25 H10        6.7564    3.1692   24.7255 H         1 RES1    0.0000
     26 C10        7.0641    2.5222   26.6590 C.3       1 RES1    0.0000
     27 C11        4.9000    2.5591   25.2043 C.3       1 RES1    0.0000
     28 H11        4.3329    2.5683   25.9929 H         1 RES1    0.0000
     29 H12        5.0808    1.6323   24.9831 H         1 RES1    0.0000
     30 C12        4.1357    3.2061   24.0390 C.3       1 RES1    0.0000
     31 H13        4.6114    3.0324   23.2123 H         1 RES1    0.0000
     32 H14        3.2581    2.8004   23.9704 H         1 RES1    0.0000
     33 C13        3.9759    4.7185   24.2167 C.3       1 RES1    0.0000
     34 H15        3.4837    4.8461   25.0551 H         1 RES1    0.0000
     35 C14        5.3575    5.3871   24.4174 C.3       1 RES1    0.0000
     36 C15        5.2113    6.9317   24.5346 C.3       1 RES1    0.0000
     37 H16        4.8123    7.1408   25.3936 H         1 RES1    0.0000
     38 H17        6.0962    7.3283   24.5187 H         1 RES1    0.0000
     39 C16        4.3712    7.5711   23.4407 C.3       1 RES1    0.0000
     40 H18        4.8132    7.4635   22.5831 H         1 RES1    0.0000
     41 H19        4.2772    8.5210   23.6138 H         1 RES1    0.0000
     42 C17        2.9960    6.9210   23.3936 C.3       1 RES1    0.0000
     43 C18        3.1650    5.4101   23.1338 C.3       1 RES1    0.0000
     44 H20        3.6873    5.3302   22.3075 H         1 RES1    0.0000
     45 C19        1.7277    4.9168   22.7881 C.3       1 RES1    0.0000
     46 H21        1.2638    4.7200   23.6288 H         1 RES1    0.0000
     47 C20        1.0638    6.1694   22.1507 C.3       1 RES1    0.0000
     48 H22        0.8273    5.9911   21.2258 H         1 RES1    0.0000
     49 H23        0.2566    6.4046   22.6341 H         1 RES1    0.0000
     50 C21        2.0710    7.3068   22.2257 C.3       1 RES1    0.0000
     51 H24        1.6272    8.1521   22.4003 H         1 RES1    0.0000
     52 H25        2.5714    7.3805   21.3966 H         1 RES1    0.0000
     53 C22        1.6071    3.7056   21.8922 C.2       1 RES1    0.0000
     54 C23        0.7360    2.7420   22.1996 C.2       1 RES1    0.0000
     55 H26        0.6118    2.0257   21.6183 H         1 RES1    0.0000
     56 H27        0.2529    2.7881   22.9936 H         1 RES1    0.0000
     57 C24        2.3760    3.6641   20.6604 C.3       1 RES1    0.0000
     58 H28        2.9449    4.4357   20.6115 H         1 RES1    0.0000
     59 H29        2.9129    2.8695   20.6445 H         1 RES1    0.0000
     60 H30        1.7770    3.6611   19.9104 H         1 RES1    0.0000
     61 C25       10.8482    3.3675   27.3754 C.3       1 RES1    0.0000
     62 H31       10.7642    4.2928   27.6169 H         1 RES1    0.0000
     63 H32       11.5477    2.9633   27.8956 H         1 RES1    0.0000
     64 H33       11.0619    3.2983   26.4423 H         1 RES1    0.0000
     65 C26        9.2758    2.6958   29.1867 C.3       1 RES1    0.0000
     66 H34        9.1817    3.6103   29.4626 H         1 RES1    0.0000
     67 H35        8.4740    2.2132   29.3997 H         1 RES1    0.0000
     68 H36       10.0209    2.2978   29.6424 H         1 RES1    0.0000
     69 C27        6.2834    2.3577   27.9815 C.3       1 RES1    0.0000
     70 H37        6.0524    3.2246   28.3270 H         1 RES1    0.0000
     71 H38        5.4826    1.8536   27.8206 H         1 RES1    0.0000
     72 H39        6.8294    1.8951   28.6207 H         1 RES1    0.0000
     73 C28        5.0835    5.0966   26.9406 C.3       1 RES1    0.0000
     74 H40        4.2224    4.6985   26.7899 H         1 RES1    0.0000
     75 H41        5.4670    4.7339   27.7427 H         1 RES1    0.0000
     76 H42        4.9858    6.0464   27.0326 H         1 RES1    0.0000
     77 C29        6.2633    5.1473   23.1806 C.3       1 RES1    0.0000
     78 H43        7.1153    5.5684   23.3202 H         1 RES1    0.0000
     79 H44        6.3902    4.2051   23.0535 H         1 RES1    0.0000
     80 H45        5.8469    5.5223   22.4003 H         1 RES1    0.0000
     81 C30        2.2116    7.2053   24.6769 C.2       1 RES1    0.0000
     82 C31        1.4702   10.0180   26.4355 C.2       1 RES1    0.0000
     83 C32        2.7157   10.8249   26.3315 C.3       1 RES1    0.0000
     84 H46        3.1184   10.6666   25.4626 H         1 RES1    0.0000
     85 H47        3.3421   10.5206   27.0057 H         1 RES1    0.0000
     86 C33        2.4984   12.3403   26.5068 C.3       1 RES1    0.0000
     87 C34        1.7861   12.6108   27.8470 C.3       1 RES1    0.0000
     88 H48        2.4043   12.4587   28.5787 H         1 RES1    0.0000
     89 H49        1.5012   13.5361   27.8806 H         1 RES1    0.0000
     90 C35        0.6118   11.7240   27.9989 C.2       1 RES1    0.0000
     91 C36       -0.7707   10.0226   27.7640 C.2       1 RES1    0.0000
     92 C37        0.4493   10.5206   27.3508 C.2       1 RES1    0.0000
     93 C38        3.8444   13.0504   26.5134 C.3       1 RES1    0.0000
     94 H50        4.3795   12.7169   27.2364 H         1 RES1    0.0000
     95 H51        4.2945   12.8906   25.6813 H         1 RES1    0.0000
     96 H52        3.7074   13.9941   26.6251 H         1 RES1    0.0000
     97 C39        1.6437   12.8706   25.3556 C.3       1 RES1    0.0000
     98 H53        0.7954   12.4218   25.3517 H         1 RES1    0.0000
     99 H54        1.5058   13.8143   25.4686 H         1 RES1    0.0000
    100 H55        2.0939   12.7107   24.5217 H         1 RES1    0.0000
    101 C40       -1.4355    8.7285   27.4060 C.3       1 RES1    0.0000
    102 H56       -0.8839    8.2474   26.7839 H         1 RES1    0.0000
    103 H57       -1.5578    8.2013   28.1982 H         1 RES1    0.0000
    104 H58       -2.2893    8.9067   27.0057 H         1 RES1    0.0000
    105 C41       -0.8985   13.0151   29.5318 C.ar      1 RES1    0.0000
    106 C42        0.0128   13.6652   30.3306 C.ar      1 RES1    0.0000
    107 H59        0.8958   13.3762   30.3795 H         1 RES1    0.0000
    108 C43       -0.4219   14.7657   31.0632 C.ar      1 RES1    0.0000
    109 H60        0.1927   15.2467   31.5690 H         1 RES1    0.0000
    110 C44       -1.7176   15.1499   31.0566 C.ar      1 RES1    0.0000
    111 H61       -1.9934   15.8631   31.5840 H         1 RES1    0.0000
    112 C45       -2.6235   14.4844   30.2710 C.ar      1 RES1    0.0000
    113 H62       -3.5111   14.7626   30.2476 H         1 RES1    0.0000
    114 C46       -2.2162   13.3993   29.5127 C.ar      1 RES1    0.0000
    115 H63       -2.8317   12.9336   28.9952 H         1 RES1    0.0000
@<TRIPOS>BOND
     1    1   13 2
     2    2   81 2
     3    3    4 1
     4    4   82 2
     5    5    6 1
     6    6   91 2
     7    7    8 1
     8    9    7 1
     9   10    7 1
    10   11   10 1
    11   12   10 1
    12   13   10 1
    13   14   13 1
    14   15   14 1
    15   16   15 1
    16   17   15 1
    17   18   17 1
    18   19   17 1
    19   20   17 1
    20   21   20 1
    21   22   20 1
    22   23   20 1
    23   24   23 1
    24   25   24 1
    25   26    7 1
    26   27   24 1
    27   28   27 1
    28   29   27 1
    29   30   27 1
    30   31   30 1
    31   32   30 1
    32   33   30 1
    33   34   33 1
    34   35   23 1
    35   36   35 1
    36   37   36 1
    37   38   36 1
    38   39   36 1
    39   40   39 1
    40   41   39 1
    41   42   39 1
    42   43   33 1
    43   44   43 1
    44   45   43 1
    45   46   45 1
    46   47   45 1
    47   48   47 1
    48   49   47 1
    49   50   42 1
    50   51   50 1
    51   52   50 1
    52   53   45 1
    53   54   53 2
    54   55   54 1
    55   56   54 1
    56   57   53 1
    57   58   57 1
    58   59   57 1
    59   60   57 1
    60   61   14 1
    61   62   61 1
    62   63   61 1
    63   64   61 1
    64   65   14 1
    65   66   65 1
    66   67   65 1
    67   68   65 1
    68   69   26 1
    69   70   69 1
    70   71   69 1
    71   72   69 1
    72   73   23 1
    73   74   73 1
    74   75   73 1
    75   76   73 1
    76   77   35 1
    77   78   77 1
    78   79   77 1
    79   80   77 1
    80   81    3 1
    81   82   83 1
    82   83   84 1
    83   85   83 1
    84   86   83 1
    85   87   86 1
    86   88   87 1
    87   89   87 1
    88   90    5 1
    89   91   92 1
    90   92   82 1
    91   93   86 1
    92   94   93 1
    93   95   93 1
    94   96   93 1
    95   97   86 1
    96   98   97 1
    97   99   97 1
    98  100   97 1
    99  101   91 1
   100  102  101 1
   101  103  101 1
   102  104  101 1
   103  105    5 1
   104  106  105 ar
   105  107  106 1
   106  108  106 ar
   107  109  108 1
   108  110  108 ar
   109  111  110 1
   110  112  110 ar
   111  113  112 1
   112  114  105 ar
   113  115  114 1
   114   15   26 1
   115   24   26 1
   116   33   35 1
   117   42   43 1
   118   42   81 1
   119   47   50 1
   120   87   90 1
   121   90   92 2
   122  112  114 ar
@<TRIPOS>SUBSTRUCTURE
     1 RES1 1

@<TRIPOS>CRYSIN
   9.1315   15.3697   29.9630  90.0000  90.0000  90.0000  19 1

