# MOL2 file generated by ConQuest
# Please check atom types

@<TRIPOS>MOLECULE
UTIFIN
    22    23     1
SMALL
NO_CHARGES
****
Generated from CSD

@<TRIPOS>ATOM
      1 C1         6.6438    4.1116    6.3793 C.ar      1 RES1    0.0000
      2 C2         6.1331    2.9390    5.9105 C.ar      1 RES1    0.0000
      3 C3         5.4452    2.9814    4.6852 C.ar      1 RES1    0.0000
      4 C4         5.2770    4.1450    4.0112 C.ar      1 RES1    0.0000
      5 C5         5.8103    5.3590    4.4990 C.ar      1 RES1    0.0000
      6 C6         6.5531    5.3437    5.7114 C.ar      1 RES1    0.0000
      7 C7         7.3218    6.5287    6.1010 C.2       1 RES1    0.0000
      8 C8         7.1999    7.7250    5.1903 C.3       1 RES1    0.0000
      9 C9         5.8706    7.7736    4.4773 C.3       1 RES1    0.0000
     10 N1         5.6383    6.5094    3.8112 N.3       1 RES1    0.0000
     11 N2         7.2634    4.0531    7.7166 N.pl3     1 RES1    0.0000
     12 O1         8.0959    6.5375    7.0426 O.2       1 RES1    0.0000
     13 O2         8.2739    3.3814    7.8439 O.2       1 RES1    0.0000
     14 O3         6.7029    4.6253    8.6264 O.2       1 RES1    0.0000
     15 H1         6.2357    2.1383    6.4023 H         1 RES1    0.0000
     16 H2         5.0927    2.1745    4.3147 H         1 RES1    0.0000
     17 H3         4.8032    4.1512    3.1945 H         1 RES1    0.0000
     18 H4         7.3085    8.5346    5.7238 H         1 RES1    0.0000
     19 H5         7.9498    7.6535    4.5350 H         1 RES1    0.0000
     20 H6         5.8563    8.5037    3.8133 H         1 RES1    0.0000
     21 H7         5.1602    7.9237    5.1670 H         1 RES1    0.0000
     22 H8         5.0359    6.5393    3.0993 H         1 RES1    0.0000
@<TRIPOS>BOND
     1    1    2 ar
     2    2    3 ar
     3    3    4 ar
     4    4    5 ar
     5    5    6 ar
     6    6    1 ar
     7    7    6 1
     8    8    7 1
     9    9    8 1
    10   10    5 1
    11   11    1 1
    12   12    7 2
    13   13   11 2
    14   14   11 2
    15   15    2 1
    16   16    3 1
    17   17    4 1
    18   18    8 1
    19   19    8 1
    20   20    9 1
    21   21    9 1
    22   22   10 1
    23    9   10 1
@<TRIPOS>SUBSTRUCTURE
     1 RES1 1

@<TRIPOS>CRYSIN
   8.7565    8.8286   11.0724  90.0000  91.4081  90.0000 231 1

