# MOL2 file generated by ConQuest
# Please check atom types

@<TRIPOS>MOLECULE
UTIKOZ
    59    62     1
SMALL
NO_CHARGES
****
Generated from CSD

@<TRIPOS>ATOM
      1 O1         1.5148    3.3693   16.4605 O.3       1 RES1    0.0000
      2 O2         1.3664    4.0688   18.5361 O.2       1 RES1    0.0000
      3 O3         1.6400    5.2364   10.4912 O.2       1 RES1    0.0000
      4 O4         1.7466    3.1005   10.2393 O.2       1 RES1    0.0000
      5 O5         1.8839    7.9432   18.8730 O.3       1 RES1    0.0000
      6 O6         1.5953    9.6340   16.4420 O.2       1 RES1    0.0000
      7 O7         3.7805    9.3254   16.9554 O.3       1 RES1    0.0000
      8 O8         4.7187    6.8014   14.6887 O.2       1 RES1    0.0000
      9 O9         3.7660    8.7261   14.0385 O.3       1 RES1    0.0000
     10 N1         1.4615    7.3244   15.0610 N.3       1 RES1    0.0000
     11 H1         0.8960    7.9231   15.3020 H         1 RES1    0.0000
     12 N2         1.6787    4.1039   10.9425 N.pl3     1 RES1    0.0000
     13 C1         0.9245    6.0278   15.4850 C.3       1 RES1    0.0000
     14 H2        -0.0740    6.0758   15.5126 H         1 RES1    0.0000
     15 C2         1.3461    4.8991   14.5730 C.ar      1 RES1    0.0000
     16 C3         1.4377    5.0563   13.1962 C.ar      1 RES1    0.0000
     17 H3         1.3630    5.9177   12.8037 H         1 RES1    0.0000
     18 C4         1.6400    3.9346   12.3994 C.ar      1 RES1    0.0000
     19 C5         1.7472    2.6572   12.9196 C.ar      1 RES1    0.0000
     20 H4         1.8348    1.9027   12.3487 H         1 RES1    0.0000
     21 C6         1.7235    2.5091   14.2936 C.ar      1 RES1    0.0000
     22 H5         1.8328    1.6497   14.6833 H         1 RES1    0.0000
     23 C7         1.5388    3.6249   15.1021 C.ar      1 RES1    0.0000
     24 C8         1.4309    4.3881   17.3891 C.2       1 RES1    0.0000
     25 C9         1.4560    5.8072   16.8969 C.3       1 RES1    0.0000
     26 H6         0.9347    6.3775   17.5300 H         1 RES1    0.0000
     27 C10        2.9025    6.3626   16.7963 C.3       1 RES1    0.0000
     28 H7         3.4313    5.6792   16.2925 H         1 RES1    0.0000
     29 C11        3.6214    6.5756   18.1092 C.ar      1 RES1    0.0000
     30 C12        4.8446    5.9481   18.3239 C.ar      1 RES1    0.0000
     31 H8         5.2105    5.3972   17.6418 H         1 RES1    0.0000
     32 C13        5.5465    6.1104   19.5198 C.ar      1 RES1    0.0000
     33 H9         6.3807    5.6752   19.6488 H         1 RES1    0.0000
     34 C14        5.0163    6.9100   20.5134 C.ar      1 RES1    0.0000
     35 H10        5.4969    7.0324   21.3230 H         1 RES1    0.0000
     36 C15        3.7863    7.5376   20.3390 C.ar      1 RES1    0.0000
     37 H11        3.4225    8.0786   21.0292 H         1 RES1    0.0000
     38 C16        3.0926    7.3664   19.1439 C.ar      1 RES1    0.0000
     39 C17        1.3243    8.8384   19.8396 C.3       1 RES1    0.0000
     40 H12        0.4636    9.1749   19.5136 H         1 RES1    0.0000
     41 H13        1.9366    9.5900   19.9815 H         1 RES1    0.0000
     42 H14        1.1899    8.3633   20.6861 H         1 RES1    0.0000
     43 C18        2.7037    7.5810   15.8139 C.3       1 RES1    0.0000
     44 C19        2.6005    8.9729   16.4620 C.2       1 RES1    0.0000
     45 C20        3.8834   10.6387   17.5934 C.3       1 RES1    0.0000
     46 H15        3.9778   10.5321   18.5725 H         1 RES1    0.0000
     47 H16        3.0648   11.1659   17.4156 H         1 RES1    0.0000
     48 C21        5.0618   11.3359   17.0456 C.3       1 RES1    0.0000
     49 H17        5.8553   10.7706   17.1530 H         1 RES1    0.0000
     50 H18        5.1942   12.1805   17.5248 H         1 RES1    0.0000
     51 H19        4.9193   11.5191   16.0923 H         1 RES1    0.0000
     52 C22        3.8631    7.6366   14.8021 C.2       1 RES1    0.0000
     53 C23        4.7333    8.8321   12.9508 C.3       1 RES1    0.0000
     54 H20        5.6279    8.5530   13.2690 H         1 RES1    0.0000
     55 H21        4.7923    9.7718   12.6451 H         1 RES1    0.0000
     56 C24        4.3002    7.9495   11.8069 C.3       1 RES1    0.0000
     57 H22        3.4178    8.2354   11.4908 H         1 RES1    0.0000
     58 H23        4.2520    7.0192   12.1121 H         1 RES1    0.0000
     59 H24        4.9491    8.0193   11.0748 H         1 RES1    0.0000
@<TRIPOS>BOND
     1    1   23 1
     2    2   24 2
     3    3   12 2
     4    4   12 2
     5    5   38 1
     6    6   44 2
     7    7   44 1
     8    8   52 2
     9    9   52 1
    10   10   11 1
    11   12   18 1
    12   13   10 1
    13   14   13 1
    14   15   13 1
    15   16   15 ar
    16   17   16 1
    17   18   16 ar
    18   19   18 ar
    19   20   19 1
    20   21   19 ar
    21   22   21 1
    22   23   15 ar
    23   24    1 1
    24   25   13 1
    25   26   25 1
    26   27   25 1
    27   28   27 1
    28   29   27 1
    29   30   29 ar
    30   31   30 1
    31   32   30 ar
    32   33   32 1
    33   34   32 ar
    34   35   34 1
    35   36   34 ar
    36   37   36 1
    37   38   29 ar
    38   39    5 1
    39   40   39 1
    40   41   39 1
    41   42   39 1
    42   43   10 1
    43   44   43 1
    44   45    7 1
    45   46   45 1
    46   47   45 1
    47   48   45 1
    48   49   48 1
    49   50   48 1
    50   51   48 1
    51   52   43 1
    52   53    9 1
    53   54   53 1
    54   55   53 1
    55   56   53 1
    56   57   56 1
    57   58   56 1
    58   59   56 1
    59   21   23 ar
    60   24   25 1
    61   27   43 1
    62   36   38 ar
@<TRIPOS>SUBSTRUCTURE
     1 RES1 1

@<TRIPOS>CRYSIN
   6.7880   13.1767   25.9973  90.0000  90.0000  90.0000  19 1

