# MOL2 file generated by ConQuest
# Please check atom types

@<TRIPOS>MOLECULE
UTILEQ
   150   151     2
SMALL
NO_CHARGES
****
Generated from CSD

@<TRIPOS>ATOM
      1 C1         2.2698    3.9770  -10.7159 C.ar      1 RES1    0.0000
      2 H1         2.3763    3.8372  -11.6488 H         1 RES1    0.0000
      3 C2         1.3306    4.8660  -10.2355 C.ar      1 RES1    0.0000
      4 H2         0.7844    5.3402  -10.8516 H         1 RES1    0.0000
      5 C3         1.1629    5.0873   -8.8565 C.ar      1 RES1    0.0000
      6 C4         1.9780    4.4223   -7.9465 C.ar      1 RES1    0.0000
      7 H3         1.8887    4.5776   -7.0147 H         1 RES1    0.0000
      8 C5         2.9239    3.5261   -8.4226 C.ar      1 RES1    0.0000
      9 C6         3.0517    3.2932   -9.8020 C.ar      1 RES1    0.0000
     10 C7         4.5979    1.9742   -8.7742 C.ar      1 RES1    0.0000
     11 C8         5.6294    1.1018   -8.4672 C.ar      1 RES1    0.0000
     12 H4         6.0660    0.6024   -9.1475 H         1 RES1    0.0000
     13 C9         6.0042    0.9827   -7.1457 C.ar      1 RES1    0.0000
     14 H5         6.7270    0.4081   -6.9199 H         1 RES1    0.0000
     15 C10        5.3441    1.6865   -6.1245 C.ar      1 RES1    0.0000
     16 C11        4.2948    2.5440   -6.4498 C.ar      1 RES1    0.0000
     17 H6         3.8412    3.0225   -5.7651 H         1 RES1    0.0000
     18 C12        3.9148    2.6957   -7.7750 C.ar      1 RES1    0.0000
     19 C13       -1.3022    7.3782   -7.4240 C.2       1 RES1    0.0000
     20 C14       -2.1469    8.1306   -6.4847 C.ar      1 RES1    0.0000
     21 C15       -1.9367    8.0929   -5.1339 C.ar      1 RES1    0.0000
     22 H7        -1.2350    7.5531   -4.7870 H         1 RES1    0.0000
     23 C16       -2.7203    8.8191   -4.2592 C.ar      1 RES1    0.0000
     24 H8        -2.5651    8.7566   -3.3242 H         1 RES1    0.0000
     25 C17       -3.7217    9.6339   -4.7289 C.ar      1 RES1    0.0000
     26 C18       -3.9491    9.6777   -6.0711 C.ar      1 RES1    0.0000
     27 H9        -4.6428   10.2257   -6.4201 H         1 RES1    0.0000
     28 C19       -3.1716    8.9243   -6.9242 C.ar      1 RES1    0.0000
     29 H10       -3.3549    8.9558   -7.8570 H         1 RES1    0.0000
     30 C20        5.7291    1.5766   -4.7248 C.2       1 RES1    0.0000
     31 C21        5.0719    1.8548   -3.5715 C.2       1 RES1    0.0000
     32 H11        4.1781    2.1627   -3.4772 H         1 RES1    0.0000
     33 C22        6.0031    1.5888   -2.5351 C.2       1 RES1    0.0000
     34 C23        5.8189    1.7374   -1.0798 C.ar      1 RES1    0.0000
     35 C24        4.7037    2.3670   -0.5440 C.ar      1 RES1    0.0000
     36 H12        4.0428    2.7308   -1.1203 H         1 RES1    0.0000
     37 C25        4.5521    2.4630    0.8251 C.ar      1 RES1    0.0000
     38 H13        3.7885    2.9007    1.1828 H         1 RES1    0.0000
     39 C26        5.5027    1.9317    1.6809 C.ar      1 RES1    0.0000
     40 C27        6.6200    1.3078    1.1696 C.ar      1 RES1    0.0000
     41 H14        7.2803    0.9478    1.7494 H         1 RES1    0.0000
     42 C28        6.7644    1.2174   -0.2077 C.ar      1 RES1    0.0000
     43 H15        7.5325    0.7846   -0.5644 H         1 RES1    0.0000
     44 C29       -5.4714   11.2007   -4.2183 C.3       1 RES1    0.0000
     45 H16       -6.1313   10.7112   -4.7720 H         1 RES1    0.0000
     46 H17       -5.0908   11.9377   -4.7612 H         1 RES1    0.0000
     47 C30       -6.1298   11.7491   -2.9838 C.3       1 RES1    0.0000
     48 H18       -6.3953   10.9926   -2.4021 H         1 RES1    0.0000
     49 H19       -6.9544   12.2298   -3.2467 H         1 RES1    0.0000
     50 C31       -5.2483   12.6916   -2.1889 C.3       1 RES1    0.0000
     51 H20       -5.0087   13.4601   -2.7641 H         1 RES1    0.0000
     52 H21       -4.4103   12.2182   -1.9562 H         1 RES1    0.0000
     53 C32       -5.8861   13.2187   -0.9092 C.3       1 RES1    0.0000
     54 H22       -6.7860   13.5714   -1.1203 H         1 RES1    0.0000
     55 H23       -5.9972   12.4686   -0.2715 H         1 RES1    0.0000
     56 C33       -5.0623   14.3141   -0.2499 C.3       1 RES1    0.0000
     57 H24       -4.1706   13.9456   -0.0280 H         1 RES1    0.0000
     58 H25       -4.9283   15.0430   -0.9048 H         1 RES1    0.0000
     59 C34       -5.6653   14.8993    1.0061 C.3       1 RES1    0.0000
     60 H26       -5.7563   14.1854    1.6847 H         1 RES1    0.0000
     61 H27       -6.5723   15.2402    0.7993 H         1 RES1    0.0000
     62 C35       -4.8301   16.0328    1.5856 C.3       1 RES1    0.0000
     63 H28       -3.9295   15.6792    1.7946 H         1 RES1    0.0000
     64 H29       -4.7217   16.7268    0.8876 H         1 RES1    0.0000
     65 C36       -5.3852   16.6877    2.8287 C.3       1 RES1    0.0000
     66 H30       -4.6814   17.2636    3.2251 H         1 RES1    0.0000
     67 H31       -5.6000   15.9822    3.4901 H         1 RES1    0.0000
     68 C37       -6.6302   17.5353    2.6003 C.3       1 RES1    0.0000
     69 H32       -7.3331   16.9761    2.1845 H         1 RES1    0.0000
     70 H33       -6.4144   18.2696    1.9734 H         1 RES1    0.0000
     71 C38       -7.1637   18.1253    3.9037 C.3       1 RES1    0.0000
     72 H34       -7.4173   17.4008    4.5113 H         1 RES1    0.0000
     73 H35       -7.9487   18.6816    3.7142 H         1 RES1    0.0000
     74 H36       -6.4688   18.6741    4.3217 H         1 RES1    0.0000
     75 C39        6.3520    1.7736    3.9180 C.3       1 RES1    0.0000
     76 H37        7.1655    2.2701    3.6495 H         1 RES1    0.0000
     77 H38        6.5517    0.8048    3.8908 H         1 RES1    0.0000
     78 C40        5.9303    2.1806    5.3091 C.3       1 RES1    0.0000
     79 H39        5.0882    1.7179    5.5454 H         1 RES1    0.0000
     80 H40        5.7576    3.1548    5.3278 H         1 RES1    0.0000
     81 C41        6.9987    1.8383    6.3404 C.3       1 RES1    0.0000
     82 H41        7.0805    0.8540    6.4028 H         1 RES1    0.0000
     83 H42        7.8690    2.1932    6.0301 H         1 RES1    0.0000
     84 C42        6.7014    2.3998    7.7243 C.3       1 RES1    0.0000
     85 H43        5.8394    2.0291    8.0402 H         1 RES1    0.0000
     86 H44        6.5992    3.3818    7.6567 H         1 RES1    0.0000
     87 C43        7.7773    2.0871    8.7554 C.3       1 RES1    0.0000
     88 H45        8.6567    2.3686    8.3978 H         1 RES1    0.0000
     89 H46        7.8107    1.1090    8.8998 H         1 RES1    0.0000
     90 C44        7.5389    2.7781   10.0911 C.3       1 RES1    0.0000
     91 H47        7.4028    3.7463    9.9296 H         1 RES1    0.0000
     92 H48        6.7060    2.4208   10.4897 H         1 RES1    0.0000
     93 C45        8.6691    2.6097   11.0972 C.3       1 RES1    0.0000
     94 H49        9.5204    2.8825   10.6728 H         1 RES1    0.0000
     95 H50        8.7448    1.6527   11.3364 H         1 RES1    0.0000
     96 C46        8.4600    3.4394   12.3899 C.3       1 RES1    0.0000
     97 H51        8.3684    4.3949   12.1421 H         1 RES1    0.0000
     98 H52        7.6119    3.1574   12.8143 H         1 RES1    0.0000
     99 C47        9.5629    3.3032   13.3809 C.3       1 RES1    0.0000
    100 H53       10.4101    3.5962   12.9608 H         1 RES1    0.0000
    101 H54        9.6605    2.3504   13.6243 H         1 RES1    0.0000
    102 C48        9.3343    4.1072   14.6304 C.3       1 RES1    0.0000
    103 H55        9.3083    5.0594   14.4064 H         1 RES1    0.0000
    104 H56       10.0630    3.9397   15.2638 H         1 RES1    0.0000
    105 H57        8.4819    3.8428   15.0376 H         1 RES1    0.0000
    106 C49        4.3267    1.7017  -11.2590 C.ar      1 RES1    0.0000
    107 C50        4.8284    0.4638  -13.7163 C.ar      1 RES1    0.0000
    108 C51        5.1212   -0.2249  -14.9844 C.2       1 RES1    0.0000
    109 C52        4.3115   -1.1216  -15.7167 C.2       1 RES1    0.0000
    110 H58        3.4215   -1.3843  -15.5137 H         1 RES1    0.0000
    111 C53        5.0507   -1.5269  -16.7551 C.2       1 RES1    0.0000
    112 C54        4.8449   -2.4532  -17.8670 C.ar      1 RES1    0.0000
    113 C55        3.7382   -3.2910  -17.8663 C.ar      1 RES1    0.0000
    114 H59        3.1107   -3.2395  -17.1554 H         1 RES1    0.0000
    115 C56        3.5401   -4.1967  -18.8897 C.ar      1 RES1    0.0000
    116 H60        2.7825   -4.7678  -18.8746 H         1 RES1    0.0000
    117 C57        4.4382   -4.2695  -19.9302 C.ar      1 RES1    0.0000
    118 H61        4.2995   -4.8901  -20.6369 H         1 RES1    0.0000
    119 C58        5.5288   -3.4508  -19.9431 C.ar      1 RES1    0.0000
    120 H62        6.1550   -3.5033  -20.6562 H         1 RES1    0.0000
    121 C59        5.7237   -2.5365  -18.9159 C.ar      1 RES1    0.0000
    122 H63        6.4782   -1.9608  -18.9414 H         1 RES1    0.0000
    123 C60        0.1581    6.0171   -8.3715 C.2       1 RES1    0.0000
    124 C61       -0.3252    6.3854   -7.1676 C.2       1 RES1    0.0000
    125 H64       -0.0627    6.0489   -6.3210 H         1 RES1    0.0000
    126 N1         4.0502    2.3320  -10.0196 N.pl3     1 RES1    0.0000
    127 N2        -1.4005    7.5978   -8.6988 N.2       1 RES1    0.0000
    128 N3         7.1555    1.1664   -3.0204 N.2       1 RES1    0.0000
    129 N4         6.2845   -0.0809  -15.5566 N.2       1 RES1    0.0000
    130 O1        -0.4827    6.7356   -9.3162 O.3       1 RES1    0.0000
    131 O2        -4.4312   10.3128   -3.7842 O.3       1 RES1    0.0000
    132 O3         6.9794    1.1456   -4.4324 O.3       1 RES1    0.0000
    133 O4         5.2582    2.0852    3.0239 O.3       1 RES1    0.0000
    134 O5         6.2439   -0.9080  -16.7038 O.3       1 RES1    0.0000
    135 C62        4.7319    2.5128  -12.3877 C.ar      1 RES1    0.0000
    136 H65        4.8451    3.4517  -12.3037 H         1 RES1    0.0000
    137 C63        4.9458    1.8791  -13.5877 C.ar      1 RES1    0.0000
    138 H66        5.1775    2.3963  -14.3504 H         1 RES1    0.0000
    139 C64        4.3980   -0.2321  -12.6010 C.ar      1 RES1    0.0000
    140 H67        4.2511   -1.1672  -12.6764 H         1 RES1    0.0000
    141 C65        4.1698    0.3846  -11.3773 C.ar      1 RES1    0.0000
    142 H68        3.9032   -0.1328  -10.6254 H         1 RES1    0.0000
    143 C66        5.6283    1.4485  -11.6488 Du        2 SUP2    0.0000
    144 H69        6.3449    1.7012  -11.0779 Du        2 SUP2    0.0000
    145 C67        5.9057    0.8273  -12.8617 Du        2 SUP2    0.0000
    146 H70        6.8031    0.6496  -13.1159 Du        2 SUP2    0.0000
    147 C68        3.5641    0.6412  -13.3119 Du        2 SUP2    0.0000
    148 H71        2.8514    0.3531  -13.8699 Du        2 SUP2    0.0000
    149 C69        3.2779    1.2359  -12.0969 Du        2 SUP2    0.0000
    150 H72        2.3746    1.3364  -11.8211 Du        2 SUP2    0.0000
@<TRIPOS>BOND
     1    1    2 1
     2    3    1 ar
     3    4    3 1
     4    5    3 ar
     5    6    5 ar
     6    7    6 1
     7    8    6 ar
     8    9    1 ar
     9   10   11 ar
    10   11   12 1
    11   13   11 ar
    12   14   13 1
    13   15   13 ar
    14   16   15 ar
    15   17   16 1
    16   18    8 1
    17   19   20 1
    18   20   21 ar
    19   21   22 1
    20   23   21 ar
    21   24   23 1
    22   25   23 ar
    23   26   25 ar
    24   27   26 1
    25   28   20 ar
    26   29   28 1
    27   30   15 1
    28   31   30 2
    29   32   31 1
    30   33   31 1
    31   34   33 1
    32   35   34 ar
    33   36   35 1
    34   37   35 ar
    35   38   37 1
    36   39   37 ar
    37   40   39 ar
    38   41   40 1
    39   42   34 ar
    40   43   42 1
    41   44   45 1
    42   46   44 1
    43   47   44 1
    44   48   47 1
    45   49   47 1
    46   50   47 1
    47   51   50 1
    48   52   50 1
    49   53   50 1
    50   54   53 1
    51   55   53 1
    52   56   53 1
    53   57   56 1
    54   58   56 1
    55   59   56 1
    56   60   59 1
    57   61   59 1
    58   62   59 1
    59   63   62 1
    60   64   62 1
    61   65   62 1
    62   66   65 1
    63   67   65 1
    64   68   65 1
    65   69   68 1
    66   70   68 1
    67   71   68 1
    68   72   71 1
    69   73   71 1
    70   74   71 1
    71   75   76 1
    72   77   75 1
    73   78   75 1
    74   79   78 1
    75   80   78 1
    76   81   78 1
    77   82   81 1
    78   83   81 1
    79   84   81 1
    80   85   84 1
    81   86   84 1
    82   87   84 1
    83   88   87 1
    84   89   87 1
    85   90   87 1
    86   91   90 1
    87   92   90 1
    88   93   90 1
    89   94   93 1
    90   95   93 1
    91   96   93 1
    92   97   96 1
    93   98   96 1
    94   99   96 1
    95  100   99 1
    96  101   99 1
    97  102   99 1
    98  103  102 1
    99  104  102 1
   100  105  102 1
   101  106  126 1
   102  107  108 1
   103  108  109 1
   104  109  110 1
   105  111  109 2
   106  112  111 1
   107  113  112 ar
   108  114  113 1
   109  115  113 ar
   110  116  115 1
   111  117  115 ar
   112  118  117 1
   113  119  117 ar
   114  120  119 1
   115  121  112 ar
   116  122  121 1
   117  123    5 1
   118  124   19 1
   119  125  124 1
   120  126    9 1
   121  127   19 2
   122  128   33 2
   123  129  108 2
   124  130  123 1
   125  131   25 1
   126  132   30 1
   127  133   39 1
   128  134  111 1
   129  135  106 ar
   130  136  135 1
   131  137  107 ar
   132  138  137 1
   133  139  107 ar
   134  140  139 1
   135  141  106 ar
   136  142  141 1
   137    8    9 ar
   138   10   18 ar
   139   10  126 1
   140   16   18 ar
   141   26   28 ar
   142   40   42 ar
   143   44  131 1
   144   75  133 1
   145  119  121 ar
   146  123  124 2
   147  127  130 1
   148  128  132 1
   149  129  134 1
   150  135  137 ar
   151  139  141 ar
@<TRIPOS>SUBSTRUCTURE
     1 RES1 1
     2 SUP2 143

@<TRIPOS>CRYSIN
   5.3511   22.8400   23.6570  66.3460  83.9620  89.0400   2 1

