# MOL2 file generated by ConQuest
# Please check atom types

@<TRIPOS>MOLECULE
UTOCUD
    98   102     2
SMALL
NO_CHARGES
****
Generated from CSD

@<TRIPOS>ATOM
      1 C1         8.5618    4.5355    4.3274 C.3       1 RES1    0.0000
      2 H1         9.3660    3.9414    4.3248 H         1 RES1    0.0000
      3 C2         7.3987    3.7011    3.8012 C.3       1 RES1    0.0000
      4 H2         6.5438    4.1393    4.0800 H         1 RES1    0.0000
      5 C3         7.4172    2.2862    4.3599 C.ar      1 RES1    0.0000
      6 C4         6.3640    1.7844    5.0909 C.ar      1 RES1    0.0000
      7 H3         5.6180    2.3400    5.2809 H         1 RES1    0.0000
      8 C5         6.3800    0.4710    5.5549 C.ar      1 RES1    0.0000
      9 H4         5.6430    0.1358    6.0518 H         1 RES1    0.0000
     10 C6         7.4575   -0.3416    5.2967 C.ar      1 RES1    0.0000
     11 H5         7.4678   -1.2363    5.6170 H         1 RES1    0.0000
     12 C7         8.5258    0.1464    4.5721 C.ar      1 RES1    0.0000
     13 H6         9.2802   -0.4056    4.4028 H         1 RES1    0.0000
     14 C8         8.4938    1.4479    4.0946 C.ar      1 RES1    0.0000
     15 H7         9.2201    1.7723    3.5758 H         1 RES1    0.0000
     16 C9         7.4502    3.6750    2.2752 C.2       1 RES1    0.0000
     17 C10        6.4037    2.8459    1.5869 C.3       1 RES1    0.0000
     18 H8         5.8184    2.4357    2.2568 H         1 RES1    0.0000
     19 H9         6.8390    2.1431    1.0596 H         1 RES1    0.0000
     20 H10        5.8719    3.4168    0.9938 H         1 RES1    0.0000
     21 C11        8.3625    4.3436    1.5852 C.2       1 RES1    0.0000
     22 H11        8.4031    4.1970    0.6479 H         1 RES1    0.0000
     23 C12       10.4426    5.6373    1.4838 C.ar      1 RES1    0.0000
     24 C13       11.0372    4.7602    0.5675 C.ar      1 RES1    0.0000
     25 H12       10.6383    3.9191    0.3824 H         1 RES1    0.0000
     26 C14       12.2173    5.1320   -0.0670 C.ar      1 RES1    0.0000
     27 H13       12.6168    4.5428   -0.6954 H         1 RES1    0.0000
     28 C15       12.8183    6.3442    0.2046 C.ar      1 RES1    0.0000
     29 H14       13.6343    6.5800   -0.2204 H         1 RES1    0.0000
     30 C16       12.2231    7.2083    1.0961 C.ar      1 RES1    0.0000
     31 H15       12.6291    8.0470    1.2776 H         1 RES1    0.0000
     32 C17       11.0407    6.8723    1.7307 C.ar      1 RES1    0.0000
     33 H16       10.6366    7.4837    2.3360 H         1 RES1    0.0000
     34 C18        8.9084    5.7555    3.4480 C.3       1 RES1    0.0000
     35 H17        9.7009    6.2222    3.8413 H         1 RES1    0.0000
     36 C19        7.7355    6.7317    3.3987 C.2       1 RES1    0.0000
     37 C20        6.6605    8.4306    2.1874 C.3       1 RES1    0.0000
     38 H18        6.6782    9.0810    2.9327 H         1 RES1    0.0000
     39 H19        5.7967    7.9464    2.2142 H         1 RES1    0.0000
     40 C21        6.8074    9.1337    0.8964 C.3       1 RES1    0.0000
     41 H20        6.0700    9.7702    0.7856 H         1 RES1    0.0000
     42 H21        6.7890    8.4823    0.1656 H         1 RES1    0.0000
     43 H22        7.6601    9.6157    0.8818 H         1 RES1    0.0000
     44 N1         8.3551    4.9823    5.7613 N.pl3     1 RES1    0.0000
     45 N2         9.2666    5.2468    2.1412 N.3       1 RES1    0.0000
     46 O1         9.2095    5.7222    6.2357 O.2       1 RES1    0.0000
     47 O2         7.4034    4.5386    6.3786 O.2       1 RES1    0.0000
     48 O3         6.9055    6.8156    4.2559 O.2       1 RES1    0.0000
     49 O4         7.7613    7.4935    2.3167 O.3       1 RES1    0.0000
     50 C22       12.1583    7.2165    8.8765 C.3       2 RES2    0.0000
     51 H23       11.7640    7.7314    8.1150 H         2 RES2    0.0000
     52 C23       13.5273    7.8264    9.1686 C.3       2 RES2    0.0000
     53 H24       13.8790    7.4132   10.0088 H         2 RES2    0.0000
     54 C24       13.4704    9.3292    9.3688 C.ar      2 RES2    0.0000
     55 C25       12.9132   10.1904    8.4438 C.ar      2 RES2    0.0000
     56 H25       12.5484    9.8480    7.6363 H         2 RES2    0.0000
     57 C26       12.8854   11.5595    8.6935 C.ar      2 RES2    0.0000
     58 H26       12.4799   12.1433    8.0638 H         2 RES2    0.0000
     59 C27       13.4375   12.0737    9.8395 C.ar      2 RES2    0.0000
     60 H27       13.3962   13.0065   10.0149 H         2 RES2    0.0000
     61 C28       14.0474   11.2344   10.7250 C.ar      2 RES2    0.0000
     62 H28       14.4728   11.5898   11.4959 H         2 RES2    0.0000
     63 C29       14.0495    9.8802   10.5106 C.ar      2 RES2    0.0000
     64 H29       14.4529    9.3072   11.1525 H         2 RES2    0.0000
     65 C30       14.4531    7.4448    8.0322 C.2       2 RES2    0.0000
     66 C31       15.8026    8.1046    7.9956 C.3       2 RES2    0.0000
     67 H30       15.8687    8.7535    8.7276 H         2 RES2    0.0000
     68 H31       15.9173    8.5654    7.1382 H         2 RES2    0.0000
     69 H32       16.5007    7.4245    8.0967 H         2 RES2    0.0000
     70 C32       14.1288    6.5251    7.1218 C.2       2 RES2    0.0000
     71 H33       14.7282    6.3849    6.3989 H         2 RES2    0.0000
     72 C33       12.6377    4.8646    6.1277 C.ar      2 RES2    0.0000
     73 C34       12.9926    5.1875    4.8139 C.ar      2 RES2    0.0000
     74 H34       13.4572    5.9955    4.6342 H         2 RES2    0.0000
     75 C35       12.6672    4.3318    3.7731 C.ar      2 RES2    0.0000
     76 H35       12.9114    4.5620    2.8840 H         2 RES2    0.0000
     77 C36       11.9981    3.1553    4.0082 C.ar      2 RES2    0.0000
     78 H36       11.7788    2.5766    3.2884 H         2 RES2    0.0000
     79 C37       11.6462    2.8223    5.3089 C.ar      2 RES2    0.0000
     80 H37       11.1861    2.0078    5.4757 H         2 RES2    0.0000
     81 C38       11.9568    3.6600    6.3660 C.ar      2 RES2    0.0000
     82 H38       11.7100    3.4196    7.2515 H         2 RES2    0.0000
     83 C39       12.2586    5.7500    8.4255 C.3       2 RES2    0.0000
     84 H39       11.3352    5.3935    8.2818 H         2 RES2    0.0000
     85 C40       12.9552    4.9018    9.5077 C.2       2 RES2    0.0000
     86 C41       14.3583    3.0515    9.9406 C.3       2 RES2    0.0000
     87 H40       15.1275    3.5367   10.3304 H         2 RES2    0.0000
     88 H41       13.7535    2.7772   10.6750 H         2 RES2    0.0000
     89 C42       14.8179    1.8877    9.2099 C.3       2 RES2    0.0000
     90 H42       15.2952    1.2872    9.8188 H         2 RES2    0.0000
     91 H43       15.4208    2.1708    8.4913 H         2 RES2    0.0000
     92 H44       14.0484    1.4188    8.8238 H         2 RES2    0.0000
     93 N3        11.1888    7.3308   10.0421 N.pl3     2 RES2    0.0000
     94 N4        12.9571    5.7509    7.1633 N.3       2 RES2    0.0000
     95 O5        10.0747    6.8448    9.8612 O.2       2 RES2    0.0000
     96 O6        11.5286    7.9225   11.0452 O.2       2 RES2    0.0000
     97 O7        12.8124    5.1112   10.6828 O.2       2 RES2    0.0000
     98 O8        13.6444    3.9125    8.9939 O.3       2 RES2    0.0000
@<TRIPOS>BOND
     1    1    2 1
     2    3    1 1
     3    4    3 1
     4    5    3 1
     5    6    5 ar
     6    7    6 1
     7    8    6 ar
     8    9    8 1
     9   10    8 ar
    10   11   10 1
    11   12   10 ar
    12   13   12 1
    13   14    5 ar
    14   15   14 1
    15   16    3 1
    16   17   16 1
    17   18   17 1
    18   19   17 1
    19   20   17 1
    20   21   16 2
    21   22   21 1
    22   23   24 ar
    23   24   25 1
    24   26   24 ar
    25   27   26 1
    26   28   26 ar
    27   29   28 1
    28   30   28 ar
    29   31   30 1
    30   32   23 ar
    31   33   32 1
    32   34    1 1
    33   35   34 1
    34   36   34 1
    35   37   38 1
    36   39   37 1
    37   40   37 1
    38   41   40 1
    39   42   40 1
    40   43   40 1
    41   44    1 1
    42   45   21 1
    43   46   44 2
    44   47   44 2
    45   48   36 2
    46   49   36 1
    47   50   51 1
    48   52   50 1
    49   53   52 1
    50   54   52 1
    51   55   54 ar
    52   56   55 1
    53   57   55 ar
    54   58   57 1
    55   59   57 ar
    56   60   59 1
    57   61   59 ar
    58   62   61 1
    59   63   54 ar
    60   64   63 1
    61   65   52 1
    62   66   65 1
    63   67   66 1
    64   68   66 1
    65   69   66 1
    66   70   65 2
    67   71   70 1
    68   72   73 ar
    69   73   74 1
    70   75   73 ar
    71   76   75 1
    72   77   75 ar
    73   78   77 1
    74   79   77 ar
    75   80   79 1
    76   81   72 ar
    77   82   81 1
    78   83   50 1
    79   84   83 1
    80   85   83 1
    81   86   87 1
    82   88   86 1
    83   89   86 1
    84   90   89 1
    85   91   89 1
    86   92   89 1
    87   93   50 1
    88   94   70 1
    89   95   93 2
    90   96   93 2
    91   97   85 2
    92   98   85 1
    93   12   14 ar
    94   23   45 1
    95   30   32 ar
    96   34   45 1
    97   37   49 1
    98   61   63 ar
    99   72   94 1
   100   79   81 ar
   101   83   94 1
   102   86   98 1
@<TRIPOS>SUBSTRUCTURE
     1 RES1 1
     2 RES2 50

@<TRIPOS>CRYSIN
   9.1177    9.4662   13.0980  73.9930  70.6530  67.2490   1 1

