# MOL2 file generated by ConQuest
# Please check atom types

@<TRIPOS>MOLECULE
UTOHUH
    29    30     1
SMALL
NO_CHARGES
****
Generated from CSD

@<TRIPOS>ATOM
      1 O1         3.0557   -2.8733   10.1974 O.2       1 RES1    0.0000
      2 O2         2.3933   -1.4379   11.6064 O.2       1 RES1    0.0000
      3 O3        -0.1622    2.5589   10.0487 O.2       1 RES1    0.0000
      4 O4        -0.9483    2.3139    3.9817 O.3       1 RES1    0.0000
      5 N1         2.4605   -1.8508   10.4734 N.pl3     1 RES1    0.0000
      6 N2        -0.0899    0.9593    6.3187 N.3       1 RES1    0.0000
      7 C1         1.8219   -1.1016    9.3983 C.ar      1 RES1    0.0000
      8 C2         1.1928    0.0902    9.6842 C.ar      1 RES1    0.0000
      9 C3         0.5444    0.7744    8.6607 C.ar      1 RES1    0.0000
     10 C4         0.5634    0.2736    7.3395 C.ar      1 RES1    0.0000
     11 C5         1.2334   -0.9385    7.1020 C.ar      1 RES1    0.0000
     12 C6         1.8536   -1.6213    8.1194 C.ar      1 RES1    0.0000
     13 C7        -0.2856    1.9411    9.0342 C.2       1 RES1    0.0000
     14 C8         0.3326    2.3293    6.0215 C.3       1 RES1    0.0000
     15 C9        -0.7198    3.0112    5.1992 C.3       1 RES1    0.0000
     16 C10       -1.3837    0.9936    4.2689 C.3       1 RES1    0.0000
     17 C11       -0.3653    0.2380    5.0728 C.3       1 RES1    0.0000
     18 H1         1.1681    0.4388   10.5973 H         1 RES1    0.0000
     19 H2         1.2694   -1.3015    6.2180 H         1 RES1    0.0000
     20 H3         2.3475   -2.4765    7.9563 H         1 RES1    0.0000
     21 H4        -1.0171    2.2088    8.4200 H         1 RES1    0.0000
     22 H5         1.1782    2.3055    5.5093 H         1 RES1    0.0000
     23 H6         0.4938    2.8261    6.8545 H         1 RES1    0.0000
     24 H7        -0.4242    3.8896    4.9751 H         1 RES1    0.0000
     25 H8        -1.5922    3.0120    5.7932 H         1 RES1    0.0000
     26 H9        -2.2490    1.0114    4.8182 H         1 RES1    0.0000
     27 H10       -1.5373    0.5652    3.3867 H         1 RES1    0.0000
     28 H11       -0.6526   -0.7214    5.2625 H         1 RES1    0.0000
     29 H12        0.4627    0.2082    4.5326 H         1 RES1    0.0000
@<TRIPOS>BOND
     1    1    5 2
     2    2    5 2
     3    3   13 2
     4    4   15 1
     5    5    7 1
     6    6   10 1
     7    7    8 ar
     8    8    9 ar
     9    9   10 ar
    10   10   11 ar
    11   11   12 ar
    12   12    7 ar
    13   13    9 1
    14   14    6 1
    15   15   14 1
    16   16    4 1
    17   17    6 1
    18   18    8 1
    19   19   11 1
    20   20   12 1
    21   21   13 1
    22   22   14 1
    23   23   14 1
    24   24   15 1
    25   25   15 1
    26   26   16 1
    27   27   16 1
    28   28   17 1
    29   29   17 1
    30   16   17 1
@<TRIPOS>SUBSTRUCTURE
     1 RES1 1

@<TRIPOS>CRYSIN
   8.4190    7.4370   17.7580  90.0000  96.8880  90.0000 231 1

