# MOL2 file generated by ConQuest
# Please check atom types

@<TRIPOS>MOLECULE
UVACUQ
    73    75     1
SMALL
NO_CHARGES
****
Generated from CSD

@<TRIPOS>ATOM
      1 C1        -8.6911   -3.2736  -18.4844 C.2       1 RES1    0.0000
      2 C2        -7.4850   -3.9589  -17.8724 C.3       1 RES1    0.0000
      3 C3        -7.7323   -5.4048  -17.4910 C.3       1 RES1    0.0000
      4 H1        -6.9177   -5.7840  -17.1002 H         1 RES1    0.0000
      5 H2        -7.9787   -5.9159  -18.2907 H         1 RES1    0.0000
      6 H3        -8.4601   -5.4510  -16.8368 H         1 RES1    0.0000
      7 C4        -7.0915   -3.0111  -16.7105 C.3       1 RES1    0.0000
      8 H4        -7.8744   -2.8062  -16.1399 H         1 RES1    0.0000
      9 H5        -6.3811   -3.4133  -16.1503 H         1 RES1    0.0000
     10 C5        -6.5794   -1.7380  -17.4267 C.3       1 RES1    0.0000
     11 H6        -7.1160   -0.9426  -17.1832 H         1 RES1    0.0000
     12 H7        -5.6257   -1.5651  -17.2226 H         1 RES1    0.0000
     13 C6        -6.7777   -2.1210  -18.8990 C.3       1 RES1    0.0000
     14 C7        -6.4250   -3.6399  -18.9583 C.3       1 RES1    0.0000
     15 C8        -6.7317   -4.2726  -20.3214 C.3       1 RES1    0.0000
     16 H8        -7.6557   -4.0703  -20.5742 H         1 RES1    0.0000
     17 H9        -6.6131   -5.2435  -20.2652 H         1 RES1    0.0000
     18 H10       -6.1205   -3.9076  -20.9952 H         1 RES1    0.0000
     19 C9        -4.9736   -3.9601  -18.5624 C.3       1 RES1    0.0000
     20 H11       -4.7753   -3.5541  -17.6934 H         1 RES1    0.0000
     21 H12       -4.3645   -3.5977  -19.2385 H         1 RES1    0.0000
     22 H13       -4.8571   -4.9310  -18.5043 H         1 RES1    0.0000
     23 C10       -6.0847   -1.2500  -19.9250 C.2       1 RES1    0.0000
     24 C11       -6.2595    0.0090  -21.9287 C.3       1 RES1    0.0000
     25 H14       -5.6881   -0.5674  -22.4968 H         1 RES1    0.0000
     26 H15       -5.6953    0.7172  -21.5303 H         1 RES1    0.0000
     27 C12       -7.3746    0.6289  -22.7621 C.3       1 RES1    0.0000
     28 H16       -8.1494   -0.0026  -22.7311 H         1 RES1    0.0000
     29 C13       -6.9535    0.7595  -24.2456 C.3       1 RES1    0.0000
     30 H17       -7.6904    1.2436  -24.7160 H         1 RES1    0.0000
     31 C14       -5.6779    1.5920  -24.4389 C.3       1 RES1    0.0000
     32 H18       -5.4653    1.6471  -25.3942 H         1 RES1    0.0000
     33 H19       -4.9348    1.1668  -23.9631 H         1 RES1    0.0000
     34 H20       -5.8200    2.4937  -24.0834 H         1 RES1    0.0000
     35 C15       -6.8308   -0.6148  -24.9084 C.3       1 RES1    0.0000
     36 H21       -6.5671   -0.5033  -25.8463 H         1 RES1    0.0000
     37 H22       -7.6945   -1.0758  -24.8653 H         1 RES1    0.0000
     38 H23       -6.1532   -1.1450  -24.4401 H         1 RES1    0.0000
     39 C16       -7.8683    1.9801  -22.1938 C.3       1 RES1    0.0000
     40 H24       -7.0874    2.6038  -22.2272 H         1 RES1    0.0000
     41 C17       -8.9793    2.6371  -23.0008 C.ar      1 RES1    0.0000
     42 C18      -10.0546    1.9237  -23.5207 C.ar      1 RES1    0.0000
     43 H25      -10.0853    0.9811  -23.4052 H         1 RES1    0.0000
     44 C19      -11.0890    2.5603  -24.2074 C.ar      1 RES1    0.0000
     45 H26      -11.8065    2.0518  -24.5687 H         1 RES1    0.0000
     46 C20      -11.0634    3.9281  -24.3592 C.ar      1 RES1    0.0000
     47 H27      -11.7738    4.3713  -24.8072 H         1 RES1    0.0000
     48 C21      -10.0096    4.6466  -23.8609 C.ar      1 RES1    0.0000
     49 H28       -9.9882    5.5893  -23.9776 H         1 RES1    0.0000
     50 C22       -8.9722    4.0165  -23.1883 C.ar      1 RES1    0.0000
     51 H29       -8.2485    4.5326  -22.8514 H         1 RES1    0.0000
     52 C23       -8.2710    1.8597  -20.6980 C.3       1 RES1    0.0000
     53 H30       -7.4962    1.4652  -20.2029 H         1 RES1    0.0000
     54 C24       -9.4863    0.9977  -20.4190 C.3       1 RES1    0.0000
     55 H31      -10.2856    1.4357  -20.8044 H         1 RES1    0.0000
     56 H32       -9.3718    0.1242  -20.8708 H         1 RES1    0.0000
     57 C25       -9.7173    0.7633  -18.9641 C.2       1 RES1    0.0000
     58 C26      -11.2178   -0.2305  -17.3951 C.3       1 RES1    0.0000
     59 H33      -11.4621    0.5584  -16.8493 H         1 RES1    0.0000
     60 H34      -10.4287   -0.6647  -16.9820 H         1 RES1    0.0000
     61 C27      -12.3595   -1.1898  -17.4507 C.3       1 RES1    0.0000
     62 H35      -12.5833   -1.4831  -16.5423 H         1 RES1    0.0000
     63 H36      -12.1070   -1.9660  -17.9920 H         1 RES1    0.0000
     64 H37      -13.1363   -0.7493  -17.8531 H         1 RES1    0.0000
     65 N1        -8.4938    3.2685  -20.1689 N.pl3     1 RES1    0.0000
     66 O1        -8.2304   -2.1304  -19.1118 O.3       1 RES1    0.0000
     67 O2        -9.8604   -3.5333  -18.4431 O.2       1 RES1    0.0000
     68 O3        -4.9031   -1.0269  -19.8607 O.2       1 RES1    0.0000
     69 O4        -6.8926   -0.7884  -20.8739 O.3       1 RES1    0.0000
     70 O5        -7.5320    4.0211  -20.1293 O.2       1 RES1    0.0000
     71 O6        -9.6243    3.5874  -19.8319 O.2       1 RES1    0.0000
     72 O7        -8.9333    1.0003  -18.0758 O.2       1 RES1    0.0000
     73 O8       -10.9091    0.1782  -18.7632 O.3       1 RES1    0.0000
@<TRIPOS>BOND
     1    1    2 1
     2    2    3 1
     3    3    4 1
     4    5    3 1
     5    6    3 1
     6    7    2 1
     7    8    7 1
     8    9    7 1
     9   10    7 1
    10   11   10 1
    11   12   10 1
    12   13   10 1
    13   14    2 1
    14   15   14 1
    15   16   15 1
    16   17   15 1
    17   18   15 1
    18   19   14 1
    19   20   19 1
    20   21   19 1
    21   22   19 1
    22   23   13 1
    23   24   25 1
    24   26   24 1
    25   27   24 1
    26   28   27 1
    27   29   27 1
    28   30   29 1
    29   31   29 1
    30   32   31 1
    31   33   31 1
    32   34   31 1
    33   35   29 1
    34   36   35 1
    35   37   35 1
    36   38   35 1
    37   39   27 1
    38   40   39 1
    39   41   39 1
    40   42   41 ar
    41   43   42 1
    42   44   42 ar
    43   45   44 1
    44   46   44 ar
    45   47   46 1
    46   48   46 ar
    47   49   48 1
    48   50   41 ar
    49   51   50 1
    50   52   39 1
    51   53   52 1
    52   54   52 1
    53   55   54 1
    54   56   54 1
    55   57   54 1
    56   58   59 1
    57   60   58 1
    58   61   58 1
    59   62   61 1
    60   63   61 1
    61   64   61 1
    62   65   52 1
    63   66    1 1
    64   67    1 2
    65   68   23 2
    66   69   23 1
    67   70   65 2
    68   71   65 2
    69   72   57 2
    70   73   57 1
    71   13   14 1
    72   13   66 1
    73   24   69 1
    74   48   50 ar
    75   58   73 1
@<TRIPOS>SUBSTRUCTURE
     1 RES1 1

@<TRIPOS>CRYSIN
  10.2212   12.8077   20.7401  90.0000  90.0000  90.0000  19 1

