# MOL2 file generated by ConQuest
# Please check atom types

@<TRIPOS>MOLECULE
UVADUR
    63    65     1
SMALL
NO_CHARGES
****
Generated from CSD

@<TRIPOS>ATOM
      1 O1         2.4378   -0.8202    3.4326 O.3       1 RES1    0.0000
      2 O2         1.5736    3.8418    6.7207 O.3       1 RES1    0.0000
      3 O3         2.5530    0.9332    0.9482 O.3       1 RES1    0.0000
      4 O4         0.5501    1.5835    1.7473 O.2       1 RES1    0.0000
      5 O5         3.0673    3.8630    5.0313 O.3       1 RES1    0.0000
      6 O6         4.4493    0.1534    3.6711 O.2       1 RES1    0.0000
      7 N1         4.0643    3.0961    4.3425 N.3       1 RES1    0.0000
      8 C1         3.7014   -2.6202    2.3409 C.3       1 RES1    0.0000
      9 H1         3.0370   -2.6336    1.6205 H         1 RES1    0.0000
     10 H2         4.0517   -3.5257    2.4780 H         1 RES1    0.0000
     11 H3         4.4361   -2.0194    2.0978 H         1 RES1    0.0000
     12 C2         3.0565   -2.1359    3.6063 C.3       1 RES1    0.0000
     13 H4         2.3653   -2.7864    3.8908 H         1 RES1    0.0000
     14 H5         3.7391   -2.0842    4.3215 H         1 RES1    0.0000
     15 C3         3.2663    0.2317    3.4655 C.2       1 RES1    0.0000
     16 C4         2.4818    1.5382    3.2277 C.3       1 RES1    0.0000
     17 C5         1.4626    1.7286    4.3717 C.3       1 RES1    0.0000
     18 H6         0.9827    2.5831    4.2308 H         1 RES1    0.0000
     19 H7         0.7952    0.9988    4.3278 H         1 RES1    0.0000
     20 C6         2.0878    1.7401    5.7719 C.3       1 RES1    0.0000
     21 H8         1.4065    1.4498    6.4293 H         1 RES1    0.0000
     22 H9         2.8288    1.0850    5.7972 H         1 RES1    0.0000
     23 C7         2.6178    3.0958    6.1838 C.3       1 RES1    0.0000
     24 H10        3.3566    2.9961    6.8499 H         1 RES1    0.0000
     25 C8         1.9787    5.0895    7.3085 C.3       1 RES1    0.0000
     26 H11        2.2029    5.7458    6.6018 H         1 RES1    0.0000
     27 H12        2.7759    4.9569    7.8799 H         1 RES1    0.0000
     28 C9         0.8237    5.5830    8.1304 C.3       1 RES1    0.0000
     29 H13        0.0191    5.6245    7.5726 H         1 RES1    0.0000
     30 H14        1.0272    6.4775    8.4754 H         1 RES1    0.0000
     31 H15        0.6706    4.9706    8.8796 H         1 RES1    0.0000
     32 C10        2.6679   -0.3489   -1.0564 C.3       1 RES1    0.0000
     33 H16        3.6389   -0.2127   -1.0527 H         1 RES1    0.0000
     34 H17        2.3519   -0.4189   -1.9807 H         1 RES1    0.0000
     35 H18        2.4524   -1.1743   -0.5742 H         1 RES1    0.0000
     36 C11        2.0122    0.7882   -0.3995 C.3       1 RES1    0.0000
     37 H19        2.1737    1.6155   -0.9179 H         1 RES1    0.0000
     38 H20        1.0349    0.6340   -0.3551 H         1 RES1    0.0000
     39 C12        1.7204    1.3629    1.9079 C.2       1 RES1    0.0000
     40 C13        3.5235    2.6871    3.0255 C.3       1 RES1    0.0000
     41 H21        4.2926    2.2623    2.5473 H         1 RES1    0.0000
     42 C14        3.0746    3.8335    2.1216 C.ar      1 RES1    0.0000
     43 C15        2.0439    4.7224    2.4391 C.ar      1 RES1    0.0000
     44 H22        1.5853    4.6386    3.2675 H         1 RES1    0.0000
     45 C16        1.6859    5.7270    1.5508 C.ar      1 RES1    0.0000
     46 H23        0.9883    6.3288    1.7805 H         1 RES1    0.0000
     47 C17        2.3332    5.8642    0.3339 C.ar      1 RES1    0.0000
     48 H24        2.0758    6.5494   -0.2720 H         1 RES1    0.0000
     49 C18        3.3589    4.9929    0.0094 C.ar      1 RES1    0.0000
     50 H25        3.8127    5.0812   -0.8197 H         1 RES1    0.0000
     51 C19        3.7225    3.9893    0.8983 C.ar      1 RES1    0.0000
     52 H26        4.4281    3.3970    0.6674 H         1 RES1    0.0000
     53 C20        5.3088    3.7939    4.3415 C.ar      1 RES1    0.0000
     54 C21        6.3668    3.3243    3.5506 C.ar      1 RES1    0.0000
     55 H27        6.2303    2.5842    2.9716 H         1 RES1    0.0000
     56 C22        7.6067    3.9315    3.6079 C.ar      1 RES1    0.0000
     57 H28        8.3112    3.6122    3.0560 H         1 RES1    0.0000
     58 C23        7.8344    4.9998    4.4612 C.ar      1 RES1    0.0000
     59 H29        8.6881    5.4156    4.4990 H         1 RES1    0.0000
     60 C24        6.7984    5.4503    5.2564 C.ar      1 RES1    0.0000
     61 H30        6.9491    6.1729    5.8539 H         1 RES1    0.0000
     62 C25        5.5409    4.8661    5.1986 C.ar      1 RES1    0.0000
     63 H31        4.8369    5.1987    5.7443 H         1 RES1    0.0000
@<TRIPOS>BOND
     1    1   12 1
     2    2   23 1
     3    3   36 1
     4    4   39 2
     5    5    7 1
     6    6   15 2
     7    7   40 1
     8    8    9 1
     9   10    8 1
    10   11    8 1
    11   12    8 1
    12   13   12 1
    13   14   12 1
    14   15    1 1
    15   16   15 1
    16   17   16 1
    17   18   17 1
    18   19   17 1
    19   20   17 1
    20   21   20 1
    21   22   20 1
    22   23    5 1
    23   24   23 1
    24   25    2 1
    25   26   25 1
    26   27   25 1
    27   28   25 1
    28   29   28 1
    29   30   28 1
    30   31   28 1
    31   32   33 1
    32   34   32 1
    33   35   32 1
    34   36   32 1
    35   37   36 1
    36   38   36 1
    37   39    3 1
    38   40   16 1
    39   41   40 1
    40   42   40 1
    41   43   42 ar
    42   44   43 1
    43   45   43 ar
    44   46   45 1
    45   47   45 ar
    46   48   47 1
    47   49   47 ar
    48   50   49 1
    49   51   42 ar
    50   52   51 1
    51   53    7 1
    52   54   53 ar
    53   55   54 1
    54   56   54 ar
    55   57   56 1
    56   58   56 ar
    57   59   58 1
    58   60   58 ar
    59   61   60 1
    60   62   53 ar
    61   63   62 1
    62   16   39 1
    63   20   23 1
    64   49   51 ar
    65   60   62 ar
@<TRIPOS>SUBSTRUCTURE
     1 RES1 1

@<TRIPOS>CRYSIN
   9.2480   10.0534   13.1721  73.0280  89.1860  81.1010   2 1

