# MOL2 file generated by ConQuest
# Please check atom types

@<TRIPOS>MOLECULE
UVAHIJ
    80    83     1
SMALL
NO_CHARGES
****
Generated from CSD

@<TRIPOS>ATOM
      1 O1         1.9068    3.3898   10.3946 O.2       1 RES1    0.0000
      2 O2         6.3039   10.5432    6.8982 O.2       1 RES1    0.0000
      3 N1         4.9567    3.9185    9.4772 N.2       1 RES1    0.0000
      4 N2         1.8518    4.3753    8.2766 N.am      1 RES1    0.0000
      5 O3         2.0747    5.9866    9.7899 O.3       1 RES1    0.0000
      6 O4         5.2192    9.4078    5.3982 O.2       1 RES1    0.0000
      7 N3         5.7540    9.5178    6.5051 N.pl3     1 RES1    0.0000
      8 O5        -0.5331    2.0853    8.2440 O.3       1 RES1    0.0000
      9 O6         8.0506    8.2957   10.6678 O.2       1 RES1    0.0000
     10 O7         1.0643    6.4676    7.8537 O.2       1 RES1    0.0000
     11 N4         5.5827    5.0833    9.9160 N.3       1 RES1    0.0000
     12 O8        -0.6799    1.1894   10.2605 O.2       1 RES1    0.0000
     13 C1         5.7299    8.3546    7.3833 C.ar      1 RES1    0.0000
     14 C2         6.3955    7.3114    9.3973 C.ar      1 RES1    0.0000
     15 N5         7.2335    7.4018   10.5785 N.pl3     1 RES1    0.0000
     16 C3         3.7551    1.5464    8.5305 C.3       1 RES1    0.0000
     17 H1         4.3109    2.1162    7.9263 H         1 RES1    0.0000
     18 C4         1.9473    1.7606    5.7955 C.ar      1 RES1    0.0000
     19 H2         2.1044    0.8239    5.7908 H         1 RES1    0.0000
     20 C5         4.3636    1.6392    9.9418 C.3       1 RES1    0.0000
     21 H3         3.6552    1.4261   10.6002 H         1 RES1    0.0000
     22 H4         5.0643    0.9441   10.0244 H         1 RES1    0.0000
     23 C6         1.9868    2.4755    6.9819 C.ar      1 RES1    0.0000
     24 C7         5.0720    7.1850    6.9798 C.ar      1 RES1    0.0000
     25 H5         4.6437    7.1466    6.1335 H         1 RES1    0.0000
     26 C8         5.6728    6.1331    9.0916 C.ar      1 RES1    0.0000
     27 C9         2.2746    2.0332    8.4035 C.3       1 RES1    0.0000
     28 C10        2.0253    3.3168    9.1956 C.2       1 RES1    0.0000
     29 C11        1.6057    5.7304    8.6060 C.2       1 RES1    0.0000
     30 C12        3.8682    0.1202    8.0393 C.2       1 RES1    0.0000
     31 H6         4.7326   -0.1920    7.8004 H         1 RES1    0.0000
     32 C13        1.4805    3.7988    4.6024 C.ar      1 RES1    0.0000
     33 H7         1.3125    4.2436    3.7790 H         1 RES1    0.0000
     34 C14        6.4075    8.4203    8.5604 C.ar      1 RES1    0.0000
     35 H8         6.8787    9.2083    8.8051 H         1 RES1    0.0000
     36 C15        1.5277    4.5397    5.7743 C.ar      1 RES1    0.0000
     37 H9         1.3981    5.4801    5.7675 H         1 RES1    0.0000
     38 C16       -0.0637    1.3815    9.2387 C.2       1 RES1    0.0000
     39 C17        5.0500    6.1009    7.8102 C.ar      1 RES1    0.0000
     40 H10        4.6096    5.3079    7.5276 H         1 RES1    0.0000
     41 O9         7.1412    6.5469   11.4320 O.2       1 RES1    0.0000
     42 C18        4.9622    2.9575   10.3053 C.2       1 RES1    0.0000
     43 H11        5.3499    3.0777   11.1644 H         1 RES1    0.0000
     44 C19        1.7694    3.8546    6.9567 C.ar      1 RES1    0.0000
     45 C20        1.8364    7.3040   10.4512 C.3       1 RES1    0.0000
     46 C21        2.8655   -0.7236    7.9153 C.2       1 RES1    0.0000
     47 H12        3.0555   -1.6020    7.6069 H         1 RES1    0.0000
     48 C22        1.3542    0.9379    9.0093 C.3       1 RES1    0.0000
     49 H13        1.7276    0.7422    9.9171 H         1 RES1    0.0000
     50 C23        1.6716    2.4433    4.6042 C.ar      1 RES1    0.0000
     51 H14        1.6167    1.9601    3.7883 H         1 RES1    0.0000
     52 C24        2.4921    8.3992    9.6577 C.3       1 RES1    0.0000
     53 H15        2.0659    8.4662    8.7772 H         1 RES1    0.0000
     54 H16        3.4443    8.1948    9.5441 H         1 RES1    0.0000
     55 H17        2.3943    9.2504   10.1339 H         1 RES1    0.0000
     56 C25        2.4844    7.0673   11.7889 C.3       1 RES1    0.0000
     57 H18        2.2933    7.8231   12.3836 H         1 RES1    0.0000
     58 H19        3.4531    6.9806   11.6726 H         1 RES1    0.0000
     59 H20        2.1274    6.2446   12.1831 H         1 RES1    0.0000
     60 C26        1.4388   -0.3804    8.2333 C.3       1 RES1    0.0000
     61 H21        1.0368   -1.1064    8.7725 H         1 RES1    0.0000
     62 H22        0.9237   -0.3011    7.3924 H         1 RES1    0.0000
     63 C27       -2.9336    1.5450    8.2419 C.3       1 RES1    0.0000
     64 H23       -2.9534    1.1362    9.1315 H         1 RES1    0.0000
     65 H24       -2.6942    0.8661    7.5766 H         1 RES1    0.0000
     66 H25       -3.8177    1.9118    8.0312 H         1 RES1    0.0000
     67 C28       -1.8935    2.6713    8.2200 C.3       1 RES1    0.0000
     68 C29        0.3712    7.5059   10.6095 C.3       1 RES1    0.0000
     69 H26        0.2076    8.2890   11.1737 H         1 RES1    0.0000
     70 H27       -0.0242    6.7130   11.0268 H         1 RES1    0.0000
     71 H28       -0.0351    7.6472    9.7283 H         1 RES1    0.0000
     72 C30       -2.0352    3.6229    9.3996 C.3       1 RES1    0.0000
     73 H29       -2.1142    3.1050   10.2295 H         1 RES1    0.0000
     74 H30       -2.8369    4.1730    9.2807 H         1 RES1    0.0000
     75 H31       -1.2455    4.2015    9.4509 H         1 RES1    0.0000
     76 C31       -1.9176    3.3924    6.9261 C.3       1 RES1    0.0000
     77 H32       -2.8161    3.7530    6.7699 H         1 RES1    0.0000
     78 H33       -1.6837    2.7741    6.2035 H         1 RES1    0.0000
     79 H34       -1.2707    4.1284    6.9495 H         1 RES1    0.0000
     80 H35        5.9419    5.1667   10.7354 H         1 RES1    0.0000
@<TRIPOS>BOND
     1    1   28 2
     2    2    7 2
     3    3   11 1
     4    4   28 1
     5    5   29 1
     6    6    7 2
     7    7   13 1
     8    8   38 1
     9    9   15 2
    10   10   29 2
    11   11   26 1
    12   12   38 2
    13   13   24 ar
    14   14   15 1
    15   15   41 2
    16   16   17 1
    17   18   19 1
    18   20   16 1
    19   21   20 1
    20   22   20 1
    21   23   18 ar
    22   24   25 1
    23   26   14 ar
    24   27   16 1
    25   28   27 1
    26   29    4 1
    27   30   16 1
    28   31   30 1
    29   32   33 1
    30   34   13 ar
    31   35   34 1
    32   36   32 ar
    33   37   36 1
    34   38   48 1
    35   39   24 ar
    36   40   39 1
    37   42    3 2
    38   43   42 1
    39   44    4 1
    40   45    5 1
    41   46   30 2
    42   47   46 1
    43   48   27 1
    44   49   48 1
    45   50   18 ar
    46   51   50 1
    47   52   45 1
    48   53   52 1
    49   54   52 1
    50   55   52 1
    51   56   45 1
    52   57   56 1
    53   58   56 1
    54   59   56 1
    55   60   46 1
    56   61   60 1
    57   62   60 1
    58   63   64 1
    59   65   63 1
    60   66   63 1
    61   67    8 1
    62   68   45 1
    63   69   68 1
    64   70   68 1
    65   71   68 1
    66   72   67 1
    67   73   72 1
    68   74   72 1
    69   75   72 1
    70   76   67 1
    71   77   76 1
    72   78   76 1
    73   79   76 1
    74   80   11 1
    75   14   34 ar
    76   20   42 1
    77   23   27 1
    78   23   44 ar
    79   26   39 ar
    80   32   50 ar
    81   36   44 ar
    82   48   60 1
    83   63   67 1
@<TRIPOS>SUBSTRUCTURE
     1 RES1 1

@<TRIPOS>CRYSIN
  10.9831   12.3901   23.3125  90.0000  90.0000  90.0000  19 1

