# MOL2 file generated by ConQuest
# Please check atom types

@<TRIPOS>MOLECULE
UVAYUM
    98   102     3
SMALL
NO_CHARGES
****
Generated from CSD

@<TRIPOS>ATOM
      1 N1         1.4760    5.6146   13.2907 N.pl3     1 RES1    0.0000
      2 O1        -2.9304    9.1766   14.4159 O.3       1 RES1    0.0000
      3 H1        -3.6013    8.8218   14.7276 H         1 RES1    0.0000
      4 O2        -1.7448   12.0443   13.7595 O.2       1 RES1    0.0000
      5 O3         2.4822    6.0554   12.8429 O.2       1 RES1    0.0000
      6 O4         1.3741    4.4768   13.6131 O.2       1 RES1    0.0000
      7 O5        -0.4508   10.9704   15.1810 O.3       1 RES1    0.0000
      8 C1         0.3906    6.5540   13.7683 C.3       1 RES1    0.0000
      9 H2        -0.4072    6.0434   14.0206 H         1 RES1    0.0000
     10 C2         0.0349    7.5828   12.6918 C.3       1 RES1    0.0000
     11 H3         0.8703    8.0091   12.4094 H         1 RES1    0.0000
     12 C3        -0.6555    7.0756   11.4470 C.ar      1 RES1    0.0000
     13 C4        -0.4332    7.7453   10.2494 C.ar      1 RES1    0.0000
     14 H4         0.1931    8.4321   10.2084 H         1 RES1    0.0000
     15 C5        -1.1497    7.3854    9.1085 C.ar      1 RES1    0.0000
     16 H5        -1.0135    7.8492    8.3145 H         1 RES1    0.0000
     17 C6        -2.0465    6.3617    9.1461 C.ar      1 RES1    0.0000
     18 H6        -2.5238    6.1302    8.3833 H         1 RES1    0.0000
     19 C7        -2.2404    5.6801   10.3089 C.ar      1 RES1    0.0000
     20 H7        -2.8479    4.9764   10.3331 H         1 RES1    0.0000
     21 C8        -1.5458    6.0213   11.4485 C.ar      1 RES1    0.0000
     22 H8        -1.6794    5.5346   12.2289 H         1 RES1    0.0000
     23 C9        -0.7679    8.6380   13.5188 C.3       1 RES1    0.0000
     24 C10       -2.2472    8.2542   13.5997 C.3       1 RES1    0.0000
     25 H9        -2.6342    8.2534   12.7108 H         1 RES1    0.0000
     26 H10       -2.3338    7.3624   13.9703 H         1 RES1    0.0000
     27 C11       -0.6466   10.0625   12.9627 C.3       1 RES1    0.0000
     28 H11        0.2676   10.2114   12.6717 H         1 RES1    0.0000
     29 H12       -1.2219   10.1501   12.1880 H         1 RES1    0.0000
     30 C12       -1.0131   11.1023   13.9579 C.2       1 RES1    0.0000
     31 C13        0.4992    9.8719   15.3330 C.3       1 RES1    0.0000
     32 H13        0.7977    9.8259   16.2550 H         1 RES1    0.0000
     33 H14        1.2751   10.0327   14.7722 H         1 RES1    0.0000
     34 C14       -0.1400    8.5674   14.9450 C.3       1 RES1    0.0000
     35 H15       -0.8515    8.3665   15.5890 H         1 RES1    0.0000
     36 C15        0.8625    7.3948   14.9449 C.3       1 RES1    0.0000
     37 H16        1.7444    7.7581   14.7164 H         1 RES1    0.0000
     38 C16        0.9821    6.7165   16.2917 C.ar      1 RES1    0.0000
     39 C17        0.0002    5.8945   16.7990 C.ar      1 RES1    0.0000
     40 H17       -0.7440    5.6937   16.2792 H         1 RES1    0.0000
     41 C18        0.1051    5.3669   18.0634 C.ar      1 RES1    0.0000
     42 H18       -0.5635    4.8070   18.3871 H         1 RES1    0.0000
     43 C19        1.1706    5.6571   18.8411 C.ar      1 RES1    0.0000
     44 H19        1.2262    5.3218   19.7062 H         1 RES1    0.0000
     45 C20        2.1568    6.4391   18.3462 C.ar      1 RES1    0.0000
     46 H20        2.8986    6.6263   18.8764 H         1 RES1    0.0000
     47 C21        2.0880    6.9642   17.0731 C.ar      1 RES1    0.0000
     48 H21        2.7855    7.4850   16.7443 H         1 RES1    0.0000
     49 O6         8.0615    4.6921   15.5417 O.3       2 RES2    0.0000
     50 H22        8.6730    4.4037   15.0792 H         2 RES2    0.0000
     51 O7         6.7571    7.5539   15.5731 O.2       2 RES2    0.0000
     52 O8         2.9850    1.8295   12.6673 O.2       2 RES2    0.0000
     53 O9         4.1362    0.2119   13.3154 O.2       2 RES2    0.0000
     54 O10        6.6499    6.7489   13.5261 O.3       2 RES2    0.0000
     55 N2         3.9953    1.3743   13.1201 N.pl3     2 RES2    0.0000
     56 C22        5.1001    2.3044   13.5248 C.3       2 RES2    0.0000
     57 H23        5.8919    1.7895   13.7862 H         2 RES2    0.0000
     58 C23        4.6741    3.2251   14.6689 C.3       2 RES2    0.0000
     59 H24        3.8810    3.7076   14.3555 H         2 RES2    0.0000
     60 C24        4.2968    2.5954   15.9964 C.ar      2 RES2    0.0000
     61 C25        4.9565    1.4985   16.5259 C.ar      2 RES2    0.0000
     62 H25        5.6339    1.0918   16.0355 H         2 RES2    0.0000
     63 C26        4.6235    0.9990   17.7694 C.ar      2 RES2    0.0000
     64 H26        5.0796    0.2646   18.1118 H         2 RES2    0.0000
     65 C27        3.6226    1.5836   18.4937 C.ar      2 RES2    0.0000
     66 H27        3.3943    1.2458   19.3304 H         2 RES2    0.0000
     67 C28        2.9613    2.6592   17.9903 C.ar      2 RES2    0.0000
     68 H28        2.2872    3.0626   18.4876 H         2 RES2    0.0000
     69 C29        3.2837    3.1519   16.7531 C.ar      2 RES2    0.0000
     70 H29        2.8102    3.8769   16.4150 H         2 RES2    0.0000
     71 C30        5.4642    3.2940   12.4118 C.3       2 RES2    0.0000
     72 H30        4.6352    3.7101   12.0950 H         2 RES2    0.0000
     73 C31        6.2623    4.3662   13.2061 C.3       2 RES2    0.0000
     74 H31        7.2175    4.1586   13.1387 H         2 RES2    0.0000
     75 C32        6.0329    5.7558   12.6706 C.3       2 RES2    0.0000
     76 H32        6.4044    5.8231   11.7768 H         2 RES2    0.0000
     77 H33        5.0788    5.9260   12.6140 H         2 RES2    0.0000
     78 C33        6.3097    6.7123   14.8262 C.2       2 RES2    0.0000
     79 C34        5.3818    5.6214   15.2258 C.3       2 RES2    0.0000
     80 H34        4.4943    5.8171   14.8857 H         2 RES2    0.0000
     81 H35        5.3292    5.5865   16.1936 H         2 RES2    0.0000
     82 C35        5.8322    4.2548   14.6969 C.3       2 RES2    0.0000
     83 C36        7.0084    3.7663   15.5542 C.3       2 RES2    0.0000
     84 H36        6.7093    3.6310   16.4671 H         2 RES2    0.0000
     85 H37        7.3246    2.9145   15.2131 H         2 RES2    0.0000
     86 C37        6.2091    2.7801   11.2139 C.ar      2 RES2    0.0000
     87 C38        5.9776    3.3604    9.9791 C.ar      2 RES2    0.0000
     88 H38        5.2973    3.9876    9.8791 H         2 RES2    0.0000
     89 C39        6.7657    3.0039    8.8875 C.ar      2 RES2    0.0000
     90 H39        6.6249    3.4157    8.0652 H         2 RES2    0.0000
     91 C40        7.7278    2.0687    9.0066 C.ar      2 RES2    0.0000
     92 H40        8.2410    1.8261    8.2698 H         2 RES2    0.0000
     93 C41        7.9373    1.5002   10.1787 C.ar      2 RES2    0.0000
     94 H41        8.6007    0.8535   10.2550 H         2 RES2    0.0000
     95 C42        7.1903    1.8423   11.3024 C.ar      2 RES2    0.0000
     96 H42        7.3637    1.4279   12.1154 H         2 RES2    0.0000
     97 O11        2.5463    5.9652   13.1871 Du        3 SUP3    0.0000
     98 O12        1.1033    4.5356   12.8113 Du        3 SUP3    0.0000
@<TRIPOS>BOND
     1    1    5 2
     2    2    3 1
     3    4   30 2
     4    6    1 2
     5    7   30 1
     6    8    1 1
     7    9    8 1
     8   10    8 1
     9   11   10 1
    10   12   10 1
    11   13   12 ar
    12   14   13 1
    13   15   13 ar
    14   16   15 1
    15   17   15 ar
    16   18   17 1
    17   19   17 ar
    18   20   19 1
    19   21   12 ar
    20   22   21 1
    21   23   10 1
    22   24    2 1
    23   25   24 1
    24   26   24 1
    25   27   23 1
    26   28   27 1
    27   29   27 1
    28   30   27 1
    29   31    7 1
    30   32   31 1
    31   33   31 1
    32   34   23 1
    33   35   34 1
    34   36    8 1
    35   37   36 1
    36   38   36 1
    37   39   38 ar
    38   40   39 1
    39   41   39 ar
    40   42   41 1
    41   43   41 ar
    42   44   43 1
    43   45   43 ar
    44   46   45 1
    45   47   38 ar
    46   48   47 1
    47   49   50 1
    48   51   78 2
    49   52   55 2
    50   53   55 2
    51   54   75 1
    52   55   56 1
    53   56   57 1
    54   58   56 1
    55   59   58 1
    56   60   58 1
    57   61   60 ar
    58   62   61 1
    59   63   61 ar
    60   64   63 1
    61   65   63 ar
    62   66   65 1
    63   67   65 ar
    64   68   67 1
    65   69   60 ar
    66   70   69 1
    67   71   56 1
    68   72   71 1
    69   73   71 1
    70   74   73 1
    71   75   73 1
    72   76   75 1
    73   77   75 1
    74   78   54 1
    75   79   78 1
    76   80   79 1
    77   81   79 1
    78   82   58 1
    79   83   49 1
    80   84   83 1
    81   85   83 1
    82   86   71 1
    83   87   86 ar
    84   88   87 1
    85   89   87 ar
    86   90   89 1
    87   91   89 ar
    88   92   91 1
    89   93   91 ar
    90   94   93 1
    91   95   86 ar
    92   96   95 1
    93   19   21 ar
    94   23   24 1
    95   31   34 1
    96   34   36 1
    97   45   47 ar
    98   67   69 ar
    99   73   82 1
   100   79   82 1
   101   82   83 1
   102   93   95 ar
@<TRIPOS>SUBSTRUCTURE
     1 RES1 1
     2 RES2 49
     3 SUP3 97

@<TRIPOS>CRYSIN
  11.5628    8.5095   18.6080  90.0000  91.0640  90.0000   4 1

