# MOL2 file generated by ConQuest
# Please check atom types

@<TRIPOS>MOLECULE
UVAZUN
   193   174     3
SMALL
USER_CHARGES
****
Generated from CSD

@<TRIPOS>ATOM
      1 C1         0.9653    2.2226   12.3898 C.2       1 RES1    0.0000
      2 C2        -0.4566    2.1078   12.4871 C.2       1 RES1    0.0000
      3 H1        -1.0212    2.5883   13.0827 H         1 RES1    0.0000
      4 C3        -0.8552    1.1812   11.5710 C.2       1 RES1    0.0000
      5 H2        -1.7499    0.9046   11.4134 H         1 RES1    0.0000
      6 C4         0.2971    0.6978   10.8880 C.2       1 RES1    0.0000
      7 C5         0.3119   -0.2757    9.9000 C.2       1 RES1    0.0000
      8 C6         1.4837   -0.8653    9.3414 C.2       1 RES1    0.0000
      9 C7         1.4832   -1.7584    8.2184 C.2       1 RES1    0.0000
     10 H3         0.7203   -2.0676    7.7430 H         1 RES1    0.0000
     11 C8         2.7669   -2.0752    7.9622 C.2       1 RES1    0.0000
     12 H4         3.0853   -2.6428    7.2704 H         1 RES1    0.0000
     13 C9         3.5628   -1.3889    8.9422 C.2       1 RES1    0.0000
     14 C10        4.9582   -1.5210    9.0566 C.2       1 RES1    0.0000
     15 C11        5.7305   -1.0529   10.1252 C.2       1 RES1    0.0000
     16 C12        7.1356   -1.1860   10.3188 C.2       1 RES1    0.0000
     17 H5         7.7498   -1.5660    9.7014 H         1 RES1    0.0000
     18 C13        7.4456   -0.6777   11.5381 C.2       1 RES1    0.0000
     19 H6         8.3104   -0.6519   11.9313 H         1 RES1    0.0000
     20 C14        6.2440   -0.1905   12.1198 C.2       1 RES1    0.0000
     21 C15        6.0680    0.4958   13.3647 C.ar      1 RES1    0.0000
     22 C16        5.0160    1.3784   13.6051 C.ar      1 RES1    0.0000
     23 C17        5.0103    2.1767   14.8083 C.ar      1 RES1    0.0000
     24 C18        3.8134    2.9673   14.7163 C.2       1 RES1    0.0000
     25 C19        3.1518    2.5385   13.5075 C.2       1 RES1    0.0000
     26 C20        1.8394    2.9520   13.2539 C.2       1 RES1    0.0000
     27 C21       -1.0100   -0.7342    9.3834 C.ar      1 RES1    0.0000
     28 C22       -1.9149    0.1886    8.8562 C.ar      1 RES1    0.0000
     29 H7        -1.6877    1.1113    8.8366 H         1 RES1    0.0000
     30 C23       -3.1478   -0.2307    8.3569 C.ar      1 RES1    0.0000
     31 H8        -3.7537    0.4020    7.9894 H         1 RES1    0.0000
     32 C24       -3.4824   -1.5650    8.4009 C.ar      1 RES1    0.0000
     33 H9        -4.3258   -1.8531    8.0749 H         1 RES1    0.0000
     34 C25       -2.5968   -2.4811    8.9150 C.ar      1 RES1    0.0000
     35 H10       -2.8327   -3.4019    8.9371 H         1 RES1    0.0000
     36 C26       -1.3622   -2.0762    9.4042 C.ar      1 RES1    0.0000
     37 H11       -0.7575   -2.7194    9.7542 H         1 RES1    0.0000
     38 C27        5.6618   -2.2599    7.9670 C.ar      1 RES1    0.0000
     39 C28        5.6295   -1.7478    6.6648 C.ar      1 RES1    0.0000
     40 H12        5.1693   -0.9352    6.4911 H         1 RES1    0.0000
     41 C29        6.2581   -2.4121    5.6328 C.ar      1 RES1    0.0000
     42 H13        6.2440   -2.0503    4.7539 H         1 RES1    0.0000
     43 C30        6.9066   -3.5981    5.8771 C.ar      1 RES1    0.0000
     44 H14        7.3326   -4.0595    5.1637 H         1 RES1    0.0000
     45 C31        6.9457   -4.1284    7.1560 C.ar      1 RES1    0.0000
     46 H15        7.3967   -4.9487    7.3182 H         1 RES1    0.0000
     47 C32        6.3237   -3.4555    8.2001 C.ar      1 RES1    0.0000
     48 H16        6.3522   -3.8164    9.0779 H         1 RES1    0.0000
     49 C33        6.9381    0.2651   14.5076 C.ar      1 RES1    0.0000
     50 C34        7.8118   -0.8510   14.5976 C.ar      1 RES1    0.0000
     51 H17        7.8743   -1.4540   13.8670 H         1 RES1    0.0000
     52 C35        8.5739   -1.0749   15.7266 C.ar      1 RES1    0.0000
     53 H18        9.1367   -1.8397   15.7726 H         1 RES1    0.0000
     54 C36        8.5216   -0.1819   16.8051 C.ar      1 RES1    0.0000
     55 H19        9.0870   -0.3130   17.5575 H         1 RES1    0.0000
     56 C37        7.6631    0.8739   16.7732 C.ar      1 RES1    0.0000
     57 H20        7.6214    1.4693   17.5123 H         1 RES1    0.0000
     58 C38        6.8384    1.0912   15.6547 C.ar      1 RES1    0.0000
     59 C39        1.3389    4.0202   14.0976 C.ar      1 RES1    0.0000
     60 C40        2.0560    4.4213   15.2500 C.ar      1 RES1    0.0000
     61 C41        1.5596    5.3996   16.1273 C.ar      1 RES1    0.0000
     62 H21        2.0495    5.6341   16.9064 H         1 RES1    0.0000
     63 C42        0.3726    6.0093   15.8568 C.ar      1 RES1    0.0000
     64 H22        0.0154    6.6439   16.4665 H         1 RES1    0.0000
     65 C43       -0.3135    5.7011   14.6916 C.ar      1 RES1    0.0000
     66 H23       -1.1248    6.1538   14.4905 H         1 RES1    0.0000
     67 C44        0.1666    4.7506   13.8276 C.ar      1 RES1    0.0000
     68 H24       -0.3066    4.5802   13.0223 H         1 RES1    0.0000
     69 N1         1.3850    1.3544   11.4280 N.pl3     1 RES1    0.0000
     70 H25        2.2223    1.2300   11.1871 H         1 RES1    0.0000
     71 N2         2.7548   -0.6471    9.7758 N.2       1 RES1    0.0000
     72 N3         5.2398   -0.4020   11.2435 N.pl3     1 RES1    0.0000
     73 H26        4.4019   -0.1637   11.3656 H         1 RES1    0.0000
     74 N4         3.9015    1.6186   12.8401 N.2       1 RES1    0.0000
     75 N5         5.8812    2.0944   15.7824 N.ar      1 RES1    0.0000
     76 N6         3.2933    3.8317   15.5780 N.pl3     1 RES1    1.0000
     77 O1         3.8517    4.1887   16.6565 O.2       1 RES1   -1.0000
     78 C45        8.2518    1.6808    8.5472 C.2       2 RES2    0.0000
     79 C46        8.7750    1.9441    9.8286 C.2       2 RES2    0.0000
     80 C47       10.0726    1.5172   10.2778 C.2       2 RES2    0.0000
     81 H27       10.7118    1.0299    9.7718 H         2 RES2    0.0000
     82 C48       10.2079    1.9355   11.5471 C.2       2 RES2    0.0000
     83 H28       10.9552    1.7938   12.1148 H         2 RES2    0.0000
     84 C49        8.9912    2.6457   11.8772 C.2       2 RES2    0.0000
     85 C50        8.7872    3.3368   13.0890 C.2       2 RES2    0.0000
     86 C51        7.6883    4.1179   13.4304 C.2       2 RES2    0.0000
     87 C52        7.4246    4.6826   14.7070 C.2       2 RES2    0.0000
     88 H29        7.9764    4.5946   15.4760 H         2 RES2    0.0000
     89 C53        6.2510    5.3708   14.6449 C.2       2 RES2    0.0000
     90 H30        5.8392    5.8370   15.3628 H         2 RES2    0.0000
     91 C54        5.7477    5.2723   13.3167 C.2       2 RES2    0.0000
     92 C55        9.1690    1.1142    7.5122 C.ar      2 RES2    0.0000
     93 C56        8.9026   -0.1158    6.9162 C.ar      2 RES2    0.0000
     94 H31        8.1410   -0.6155    7.1899 H         2 RES2    0.0000
     95 C57        9.7333   -0.6184    5.9325 C.ar      2 RES2    0.0000
     96 H32        9.5471   -1.4616    5.5383 H         2 RES2    0.0000
     97 C58       10.8403    0.1091    5.5204 C.ar      2 RES2    0.0000
     98 H33       11.4100   -0.2355    4.8419 H         2 RES2    0.0000
     99 C59       11.1144    1.3439    6.1027 C.ar      2 RES2    0.0000
    100 H34       11.8647    1.8512    5.8123 H         2 RES2    0.0000
    101 C60       10.2977    1.8302    7.1002 C.ar      2 RES2    0.0000
    102 H35       10.5033    2.6610    7.5117 H         2 RES2    0.0000
    103 C61        9.8910    3.2842   14.1066 C.ar      2 RES2    0.0000
    104 C62       10.2132    2.0963   14.7743 C.ar      2 RES2    0.0000
    105 H36        9.7270    1.3018   14.5885 H         2 RES2    0.0000
    106 C63       11.2385    2.0771   15.7032 C.ar      2 RES2    0.0000
    107 H37       11.4322    1.2740   16.1723 H         2 RES2    0.0000
    108 C64       11.9830    3.2152   15.9534 C.ar      2 RES2    0.0000
    109 H38       12.6920    3.1903   16.5846 H         2 RES2    0.0000
    110 C65       11.6925    4.3849   15.2857 C.ar      2 RES2    0.0000
    111 H39       12.2085    5.1670   15.4483 H         2 RES2    0.0000
    112 C66       10.6349    4.4194   14.3648 C.ar      2 RES2    0.0000
    113 H40       10.4274    5.2301   13.9148 H         2 RES2    0.0000
    114 O2         0.7173    6.8440   11.6449 O.2       2 RES2   -1.0000
    115 C67        4.6926    2.5940    8.4243 C.2       2 RES2    0.0000
    116 C68        5.0057    2.1920    7.0944 C.2       2 RES2    0.0000
    117 H41        4.3893    2.1815    6.3729 H         2 RES2    0.0000
    118 C69        6.3124    1.8474    7.0089 C.2       2 RES2    0.0000
    119 H42        6.7590    1.5516    6.2246 H         2 RES2    0.0000
    120 C70        6.8983    2.0005    8.2961 C.2       2 RES2    0.0000
    121 N7         5.8719    2.4887    9.0905 N.pl3     2 RES2    0.0000
    122 H43        5.9748    2.7108    9.9377 H         2 RES2    0.0000
    123 C71        4.5703    5.9308   12.8439 C.2       2 RES2    0.0000
    124 C72        3.9908    5.3555   11.7176 C.2       2 RES2    0.0000
    125 C73        2.6374    5.7049   11.3355 C.2       2 RES2    0.0000
    126 C74        2.3143    4.8760   10.2243 C.ar      2 RES2    0.0000
    127 C75        3.5008    4.0490   10.0433 C.ar      2 RES2    0.0000
    128 C76        3.4880    3.1444    8.9849 C.ar      2 RES2    0.0000
    129 N8         4.5215    4.3859   10.8980 N.2       2 RES2    0.0000
    130 C77        3.8427    6.9866   13.5302 C.ar      2 RES2    0.0000
    131 C78        4.3201    7.7409   14.6162 C.ar      2 RES2    0.0000
    132 H44        5.1811    7.5475   14.9682 H         2 RES2    0.0000
    133 C79        3.5790    8.7507   15.1944 C.ar      2 RES2    0.0000
    134 H45        3.9336    9.2456   15.9209 H         2 RES2    0.0000
    135 C80        2.3163    9.0427   14.7092 C.ar      2 RES2    0.0000
    136 H46        1.8049    9.7299   15.1215 H         2 RES2    0.0000
    137 C81        1.7985    8.3650   13.6559 C.ar      2 RES2    0.0000
    138 H47        0.9413    8.5928   13.3140 H         2 RES2    0.0000
    139 C82        2.5400    7.3207   13.0751 C.ar      2 RES2    0.0000
    140 N9         1.9153    6.6219   11.9992 N.pl3     2 RES2    1.0000
    141 N10        1.1962    4.8061    9.5782 N.ar      2 RES2    0.0000
    142 C83        2.2078    2.9673    8.2885 C.ar      2 RES2    0.0000
    143 C84        1.1286    3.8345    8.6028 C.ar      2 RES2    0.0000
    144 C85       -0.0974    3.7005    7.9416 C.ar      2 RES2    0.0000
    145 H48       -0.7956    4.3227    8.1075 H         2 RES2    0.0000
    146 C86       -0.2931    2.6888    7.0617 C.ar      2 RES2    0.0000
    147 H49       -1.1115    2.6352    6.5841 H         2 RES2    0.0000
    148 C87        0.6966    1.7220    6.8405 C.ar      2 RES2    0.0000
    149 H50        0.5191    0.9754    6.2799 H         2 RES2    0.0000
    150 C88        1.9346    1.8656    7.4514 C.ar      2 RES2    0.0000
    151 H51        2.6096    1.2128    7.3056 H         2 RES2    0.0000
    152 N11        8.1195    2.6333   10.8176 N.2       2 RES2    0.0000
    153 N12        6.6248    4.4816   12.6229 N.pl3     2 RES2    0.0000
    154 H52        6.5261    4.2394   11.7830 H         2 RES2    0.0000
    155 O3         0.1031    4.8482    9.5229 Du        3 SUP3    0.0000
    156 C89        4.8227    2.3260    8.1628 Du        3 SUP3    0.0000
    157 C90        5.0758    1.9527    6.8229 Du        3 SUP3    0.0000
    158 H53        4.4332    1.9087    6.1240 Du        3 SUP3    0.0000
    159 C91        6.3993    1.6655    6.7073 Du        3 SUP3    0.0000
    160 H54        6.8495    1.3870    5.9154 Du        3 SUP3    0.0000
    161 C92        6.9885    1.8474    7.9894 Du        3 SUP3    0.0000
    162 N13        5.9855    2.2590    8.8567 Du        3 SUP3    0.0000
    163 H55        6.0873    2.4543    9.7115 Du        3 SUP3    0.0000
    164 C93        4.5013    5.5996   12.6352 Du        3 SUP3    0.0000
    165 C94        3.9822    5.0540   11.4411 Du        3 SUP3    0.0000
    166 C95        2.6156    5.3412   11.0615 Du        3 SUP3    0.0000
    167 C96        2.2941    4.4069   10.0332 Du        3 SUP3    0.0000
    168 C97        3.5283    3.6996    9.7265 Du        3 SUP3    0.0000
    169 C98        3.6074    2.8276    8.6506 Du        3 SUP3    0.0000
    170 N14        4.4982    4.1064   10.6165 Du        3 SUP3    0.0000
    171 C99        3.6524    6.6650   13.1958 Du        3 SUP3    0.0000
    172 C100       4.0797    7.5447   14.1989 Du        3 SUP3    0.0000
    173 H56        4.9678    7.4575   14.5207 Du        3 SUP3    0.0000
    174 C101       3.2867    8.5258   14.7444 Du        3 SUP3    0.0000
    175 H57        3.6139    9.0475   15.4659 Du        3 SUP3    0.0000
    176 C102       2.0125    8.7603   14.2492 Du        3 SUP3    0.0000
    177 H58        1.4695    9.4514   14.6112 Du        3 SUP3    0.0000
    178 C103       1.5547    7.9735   13.2260 Du        3 SUP3    0.0000
    179 H59        0.6799    8.1180   12.8816 Du        3 SUP3    0.0000
    180 C104       2.3532    6.9541   12.6779 Du        3 SUP3    0.0000
    181 N15        1.8218    6.2295   11.6120 Du        3 SUP3    0.0000
    182 N16        1.1753    4.2146    9.3168 Du        3 SUP3    0.0000
    183 C105       2.3282    2.4294    8.0799 Du        3 SUP3    0.0000
    184 C106       1.1630    3.2018    8.3489 Du        3 SUP3    0.0000
    185 C107      -0.0450    2.9501    7.7053 Du        3 SUP3    0.0000
    186 H60       -0.7981    3.5072    7.8612 Du        3 SUP3    0.0000
    187 C108      -0.1381    1.8933    6.8430 Du        3 SUP3    0.0000
    188 H61       -0.9547    1.7220    6.3905 Du        3 SUP3    0.0000
    189 C109       0.9672    1.0596    6.6193 Du        3 SUP3    0.0000
    190 H62        0.8854    0.3025    6.0511 Du        3 SUP3    0.0000
    191 C110       2.1803    1.3439    7.2251 Du        3 SUP3    0.0000
    192 H63        2.9303    0.7839    7.0542 Du        3 SUP3    0.0000
    193 O4         6.0206    2.7759   16.7455 Du        3 SUP3    0.0000
@<TRIPOS>BOND
     1    1    2 1
     2    2    3 1
     3    4    2 2
     4    5    4 1
     5    6    4 1
     6    7    6 2
     7    8    7 1
     8    9    8 1
     9   10    9 1
    10   11    9 2
    11   12   11 1
    12   13   11 1
    13   14   13 2
    14   15   14 1
    15   16   15 2
    16   17   16 1
    17   18   16 1
    18   19   18 1
    19   20   18 2
    20   21   20 1
    21   22   21 ar
    22   23   22 ar
    23   24   23 1
    24   25   24 1
    25   26    1 2
    26   27    7 1
    27   28   27 ar
    28   29   28 1
    29   30   28 ar
    30   31   30 1
    31   32   30 ar
    32   33   32 1
    33   34   32 ar
    34   35   34 1
    35   36   27 ar
    36   37   36 1
    37   38   14 1
    38   39   38 ar
    39   40   39 1
    40   41   39 ar
    41   42   41 1
    42   43   41 ar
    43   44   43 1
    44   45   43 ar
    45   46   45 1
    46   47   38 ar
    47   48   47 1
    48   49   21 ar
    49   50   49 ar
    50   51   50 1
    51   52   50 ar
    52   53   52 1
    53   54   52 ar
    54   55   54 1
    55   56   54 ar
    56   57   56 1
    57   58   49 ar
    58   59   26 1
    59   60   59 ar
    60   61   60 ar
    61   62   61 1
    62   63   61 ar
    63   64   63 1
    64   65   63 ar
    65   66   65 1
    66   67   59 ar
    67   68   67 1
    68   69    1 1
    69   70   69 1
    70   71    8 2
    71   72   15 1
    72   73   72 1
    73   74   22 1
    74   75   23 ar
    75   76   24 2
    76   77   76 1
    77   78   79 2
    78   79   80 1
    79   80   81 1
    80   82   80 2
    81   83   82 1
    82   84   82 1
    83   85   84 1
    84   86   85 2
    85   87   86 1
    86   88   87 1
    87   89   87 2
    88   90   89 1
    89   91   89 1
    90   92   78 1
    91   93   92 ar
    92   94   93 1
    93   95   93 ar
    94   96   95 1
    95   97   95 ar
    96   98   97 1
    97   99   97 ar
    98  100   99 1
    99  101   92 ar
   100  102  101 1
   101  103   85 1
   102  104  103 ar
   103  105  104 1
   104  106  104 ar
   105  107  106 1
   106  108  106 ar
   107  109  108 1
   108  110  108 ar
   109  111  110 1
   110  112  103 ar
   111  113  112 1
   112  114  140 1
   113  115  116 2
   114  116  117 1
   115  118  116 1
   116  119  118 1
   117  120   78 1
   118  121  115 1
   119  122  121 1
   120  123   91 2
   121  124  123 1
   122  125  124 1
   123  126  125 1
   124  127  126 ar
   125  128  115 1
   126  129  124 2
   127  130  123 1
   128  131  130 ar
   129  132  131 1
   130  133  131 ar
   131  134  133 1
   132  135  133 ar
   133  136  135 1
   134  137  135 ar
   135  138  137 1
   136  139  130 ar
   137  140  125 2
   138  141  126 ar
   139  142  128 ar
   140  143  141 ar
   141  144  143 ar
   142  145  144 1
   143  146  144 ar
   144  147  146 1
   145  148  146 ar
   146  149  148 1
   147  150  142 ar
   148  151  150 1
   149  152   79 1
   150  153   86 1
   151  154  153 1
   152    6   69 1
   153   13   71 1
   154   20   72 1
   155   25   26 1
   156   25   74 2
   157   34   36 ar
   158   45   47 ar
   159   56   58 ar
   160   58   75 ar
   161   60   76 1
   162   65   67 ar
   163   84  152 2
   164   91  153 1
   165   99  101 ar
   166  110  112 ar
   167  118  120 2
   168  120  121 1
   169  127  128 ar
   170  127  129 1
   171  137  139 ar
   172  139  140 1
   173  142  143 ar
   174  148  150 ar
@<TRIPOS>SUBSTRUCTURE
     1 RES1 1
     2 RES2 78
     3 SUP3 155

@<TRIPOS>CRYSIN
  25.5950    9.5720   25.3690  90.0000  97.7100  90.0000  14 1

