# MOL2 file generated by ConQuest
# Please check atom types

@<TRIPOS>MOLECULE
UVEBIH
   140   124     2
SMALL
NO_CHARGES
****
Generated from CSD

@<TRIPOS>ATOM
      1 O1         1.2051   21.6083   24.1604 O.3       1 RES1    0.0000
      2 H1         0.9072   22.3208   24.4889 H         1 RES1    0.0000
      3 O2         0.1411   21.6403   21.1128 O.2       1 RES1    0.0000
      4 O3         2.6125   17.1966   17.1384 O.3       1 RES1    0.0000
      5 O4         1.8003   18.3119   24.3284 O.2       1 RES1    0.0000
      6 O5         3.6023   17.4295   23.8459 O.2       1 RES1    0.0000
      7 O6         2.5574   17.7833   23.7471 Du        2 SUP2    0.0000
      8 O7         4.6427   17.8473   23.7395 Du        2 SUP2    0.0000
      9 N1         1.9644   23.9877   24.5615 N.2       1 RES1    0.0000
     10 N2         2.8514   18.3737   23.8531 N.2       1 RES1    0.0000
     11 N3         3.5860   18.4206   23.4519 Du        2 SUP2    0.0000
     12 C1         2.4697   21.8600   23.5446 C.3       1 RES1    0.0000
     13 C2         2.3382   21.5179   22.0494 C.3       1 RES1    0.0000
     14 H2         3.1605   21.8199   21.5673 H         1 RES1    0.0000
     15 C3         2.2955   19.9883   22.0759 C.3       1 RES1    0.0000
     16 H3         1.4293   19.7292   22.5020 H         1 RES1    0.0000
     17 C4         3.3910   19.6512   23.0633 C.3       1 RES1    0.0000
     18 H4         4.2566   19.4585   22.6004 H         1 RES1    0.0000
     19 H5         4.2009   19.7931   22.4945 Du        2 SUP2    0.0000
     20 C5         3.5225   20.8472   24.0502 C.3       1 RES1    0.0000
     21 H6         4.4224   21.2573   23.8985 H         1 RES1    0.0000
     22 C6         2.8491   23.3093   23.8342 C.2       1 RES1    0.0000
     23 C7         4.0233   23.8873   23.3948 C.2       1 RES1    0.0000
     24 H7         4.6410   23.3907   22.8729 H         1 RES1    0.0000
     25 C8         4.2858   25.2087   23.7312 C.2       1 RES1    0.0000
     26 H8         5.0940   25.6221   23.4519 H         1 RES1    0.0000
     27 C9         3.3820   25.9013   24.4593 C.2       1 RES1    0.0000
     28 H9         3.5410   26.8092   24.6894 H         1 RES1    0.0000
     29 C10        2.2258   25.2705   24.8620 C.2       1 RES1    0.0000
     30 H10        1.5907   25.7585   25.3706 H         1 RES1    0.0000
     31 C11        1.1596   22.1759   21.4655 C.2       1 RES1    0.0000
     32 H11        1.2068   23.1179   21.3554 H         1 RES1    0.0000
     33 C12        2.3719   19.2633   20.7563 C.2       1 RES1    0.0000
     34 C13        3.3848   19.4815   19.8405 C.2       1 RES1    0.0000
     35 H12        4.0514   20.1298   20.0346 H         1 RES1    0.0000
     36 C14        3.4522   18.7808   18.6537 C.2       1 RES1    0.0000
     37 H13        4.1610   18.9491   18.0440 H         1 RES1    0.0000
     38 C15        2.4765   17.8251   18.3490 C.2       1 RES1    0.0000
     39 C16        1.4709   17.5702   19.2422 C.2       1 RES1    0.0000
     40 H14        0.8144   16.9095   19.0507 H         1 RES1    0.0000
     41 C17        1.4237   18.2982   20.4467 C.2       1 RES1    0.0000
     42 H15        0.7228   18.1243   21.0640 H         1 RES1    0.0000
     43 C18        1.5901   16.3063   16.7490 C.3       1 RES1    0.0000
     44 H16        1.4743   15.6201   17.4385 H         1 RES1    0.0000
     45 H17        1.8335   15.8801   15.9020 H         1 RES1    0.0000
     46 H18        0.7515   16.8008   16.6362 H         1 RES1    0.0000
     47 C19        3.4236   20.5092   25.5288 C.3       1 RES1    0.0000
     48 H19        2.5732   20.0148   25.6393 H         1 RES1    0.0000
     49 H20        4.1481   19.8592   25.7074 H         1 RES1    0.0000
     50 H21        3.3038   21.3468   26.0405 Du        2 SUP2    0.0000
     51 H22        2.6221   19.9487   25.6772 Du        2 SUP2    0.0000
     52 C20        3.4680   21.4363   26.5778 C.3       1 RES1    0.0000
     53 H23        3.2572   20.9696   27.4218 H         1 RES1    0.0000
     54 H24        2.7688   22.1205   26.4265 H         1 RES1    0.0000
     55 C21        4.7101   22.0842   26.7141 C.3       1 RES1    0.0000
     56 H25        4.8186   22.7428   25.9837 H         1 RES1    0.0000
     57 H26        5.4380   21.4150   26.6308 H         1 RES1    0.0000
     58 C22        4.8507   22.8259   28.1105 C.3       1 RES1    0.0000
     59 H27        4.1323   23.5036   28.2013 Du        2 SUP2    0.0000
     60 H28        4.7484   22.1737   28.8485 Du        2 SUP2    0.0000
     61 C23        6.1940   23.4930   28.2051 C.3       1 RES1    0.0000
     62 H29        6.3199   24.0493   27.3953 Du        2 SUP2    0.0000
     63 H30        6.8899   22.7897   28.1938 Du        2 SUP2    0.0000
     64 C24        4.8226   24.3711   27.3347 C.3       1 RES1    0.0000
     65 H31        3.9103   24.7249   27.3499 H         1 RES1    0.0000
     66 H32        4.9575   23.8404   26.5249 H         1 RES1    0.0000
     67 H33        5.4622   25.1170   27.3461 H         1 RES1    0.0000
     68 C25        4.6034   19.7995   26.0442 Du        2 SUP2    0.0000
     69 H34        5.3846   20.4090   26.0026 Du        2 SUP2    0.0000
     70 H35        4.7967   19.0301   25.4501 Du        2 SUP2    0.0000
     71 C26        4.4628   19.2901   27.4710 Du        2 SUP2    0.0000
     72 H36        3.6832   18.6806   27.5164 Du        2 SUP2    0.0000
     73 H37        4.2824   20.0574   28.0689 Du        2 SUP2    0.0000
     74 C27        5.6994   18.5527   27.9667 Du        2 SUP2    0.0000
     75 H38        6.0850   18.0838   27.1871 Du        2 SUP2    0.0000
     76 H39        6.3520   19.2432   28.2392 Du        2 SUP2    0.0000
     77 C28        5.6319   17.5531   29.0831 Du        2 SUP2    0.0000
     78 H40        4.7242   17.2036   29.2572 Du        2 SUP2    0.0000
     79 H41        6.0698   17.8536   29.9195 Du        2 SUP2    0.0000
     80 C29        6.5425   16.5941   28.1786 Du        2 SUP2    0.0000
     81 H42        6.7055   15.7543   28.6593 Du        2 SUP2    0.0000
     82 H43        7.3946   17.0352   27.9894 Du        2 SUP2    0.0000
     83 H44        6.0765   16.4023   27.3385 Du        2 SUP2    0.0000
     84 O1B       10.0363   21.6083   32.6056 O.3       1 RES1    0.0000
     85 H1B       10.3342   22.3208   32.2771 H         1 RES1    0.0000
     86 O2B       11.1003   21.6403   35.6532 O.2       1 RES1    0.0000
     87 O3B        8.6289   17.1966   39.6276 O.3       1 RES1    0.0000
     88 O4B        9.4411   18.3119   32.4376 O.2       1 RES1    0.0000
     89 O5B        7.6391   17.4295   32.9201 O.2       1 RES1    0.0000
     90 N1B        9.2770   23.9877   32.2045 N.2       1 RES1    0.0000
     91 N2B        8.3900   18.3737   32.9129 N.2       1 RES1    0.0000
     92 C1B        8.7717   21.8600   33.2214 C.3       1 RES1    0.0000
     93 C2B        8.9032   21.5179   34.7166 C.3       1 RES1    0.0000
     94 H2B        8.0809   21.8199   35.1987 H         1 RES1    0.0000
     95 C3B        8.9459   19.9883   34.6901 C.3       1 RES1    0.0000
     96 H3B        9.8121   19.7292   34.2640 H         1 RES1    0.0000
     97 C4B        7.8504   19.6512   33.7027 C.3       1 RES1    0.0000
     98 H4B        6.9848   19.4585   34.1656 H         1 RES1    0.0000
     99 C5B        7.7189   20.8472   32.7158 C.3       1 RES1    0.0000
    100 H6B        6.8190   21.2573   32.8675 H         1 RES1    0.0000
    101 C6B        8.3923   23.3093   32.9318 C.2       1 RES1    0.0000
    102 C7B        7.2181   23.8873   33.3712 C.2       1 RES1    0.0000
    103 H7B        6.6004   23.3907   33.8931 H         1 RES1    0.0000
    104 C8B        6.9556   25.2087   33.0348 C.2       1 RES1    0.0000
    105 H8B        6.1474   25.6221   33.3141 H         1 RES1    0.0000
    106 C9B        7.8594   25.9013   32.3067 C.2       1 RES1    0.0000
    107 H9B        7.7004   26.8092   32.0766 H         1 RES1    0.0000
    108 C10B       9.0156   25.2705   31.9040 C.2       1 RES1    0.0000
    109 H10B       9.6507   25.7585   31.3954 H         1 RES1    0.0000
    110 C11B      10.0818   22.1759   35.3005 C.2       1 RES1    0.0000
    111 H11B      10.0346   23.1179   35.4106 H         1 RES1    0.0000
    112 C12B       8.8695   19.2633   36.0097 C.2       1 RES1    0.0000
    113 C13B       7.8566   19.4815   36.9255 C.2       1 RES1    0.0000
    114 H12B       7.1900   20.1298   36.7314 H         1 RES1    0.0000
    115 C14B       7.7892   18.7808   38.1123 C.2       1 RES1    0.0000
    116 H13B       7.0804   18.9491   38.7220 H         1 RES1    0.0000
    117 C15B       8.7649   17.8251   38.4170 C.2       1 RES1    0.0000
    118 C16B       9.7705   17.5702   37.5238 C.2       1 RES1    0.0000
    119 H14B      10.4270   16.9095   37.7153 H         1 RES1    0.0000
    120 C17B       9.8177   18.2982   36.3193 C.2       1 RES1    0.0000
    121 H15B      10.5186   18.1243   35.7020 H         1 RES1    0.0000
    122 C18B       9.6513   16.3063   40.0170 C.3       1 RES1    0.0000
    123 H16B       9.7671   15.6201   39.3275 H         1 RES1    0.0000
    124 H17B       9.4079   15.8801   40.8640 H         1 RES1    0.0000
    125 H18B      10.4899   16.8008   40.1298 H         1 RES1    0.0000
    126 C19B       7.8178   20.5092   31.2372 C.3       1 RES1    0.0000
    127 H19B       8.6682   20.0148   31.1267 H         1 RES1    0.0000
    128 H20B       7.0933   19.8592   31.0586 H         1 RES1    0.0000
    129 C20B       7.7734   21.4363   30.1882 C.3       1 RES1    0.0000
    130 H23B       7.9842   20.9696   29.3442 H         1 RES1    0.0000
    131 H24B       8.4726   22.1205   30.3395 H         1 RES1    0.0000
    132 C21B       6.5313   22.0842   30.0519 C.3       1 RES1    0.0000
    133 H25B       6.4228   22.7428   30.7823 H         1 RES1    0.0000
    134 H26B       5.8034   21.4150   30.1352 H         1 RES1    0.0000
    135 C22B       6.3907   22.8259   28.6555 C.3       1 RES1    0.0000
    136 C23B       5.0474   23.4930   28.5609 C.3       1 RES1    0.0000
    137 C24B       6.4188   24.3711   29.4313 C.3       1 RES1    0.0000
    138 H31B       7.3311   24.7249   29.4161 H         1 RES1    0.0000
    139 H32B       6.2839   23.8404   30.2411 H         1 RES1    0.0000
    140 H33B       5.7792   25.1170   29.4199 H         1 RES1    0.0000
@<TRIPOS>BOND
     1    1    2 1
     2    3   31 1
     3    4   38 1
     4    5   10 1
     5    6   10 1
     6    9   22 1
     7   10   17 1
     8   12    1 1
     9   13   12 1
    10   14   13 1
    11   15   13 1
    12   16   15 1
    13   17   15 1
    14   18   17 1
    15   20   12 1
    16   21   20 1
    17   22   12 1
    18   23   22 1
    19   24   23 1
    20   25   23 1
    21   26   25 1
    22   27   25 1
    23   28   27 1
    24   29    9 1
    25   30   29 1
    26   31   13 1
    27   32   31 1
    28   33   15 1
    29   34   33 1
    30   35   34 1
    31   36   34 1
    32   37   36 1
    33   38   36 1
    34   39   38 1
    35   40   39 1
    36   41   33 1
    37   42   41 1
    38   43    4 1
    39   44   43 1
    40   45   43 1
    41   46   43 1
    42   47   20 1
    43   48   47 1
    44   49   47 1
    45   52   47 1
    46   53   52 1
    47   54   52 1
    48   55   52 1
    49   56   55 1
    50   57   55 1
    51   58   55 1
    52   61   58 1
    53   64   58 1
    54   65   64 1
    55   66   64 1
    56   67   64 1
    57   84   85 1
    58   86  110 1
    59   87  117 1
    60   88   91 1
    61   89   91 1
    62   90  101 1
    63   91   97 1
    64   92   84 1
    65   93   92 1
    66   94   93 1
    67   95   93 1
    68   96   95 1
    69   97   95 1
    70   98   97 1
    71   99   92 1
    72  100   99 1
    73  101   92 1
    74  102  101 1
    75  103  102 1
    76  104  102 1
    77  105  104 1
    78  106  104 1
    79  107  106 1
    80  108   90 1
    81  109  108 1
    82  110   93 1
    83  111  110 1
    84  112   95 1
    85  113  112 1
    86  114  113 1
    87  115  113 1
    88  116  115 1
    89  117  115 1
    90  118  117 1
    91  119  118 1
    92  120  112 1
    93  121  120 1
    94  122   87 1
    95  123  122 1
    96  124  122 1
    97  125  122 1
    98  126   99 1
    99  127  126 1
   100  128  126 1
   101  129  126 1
   102  130  129 1
   103  131  129 1
   104  132  129 1
   105  133  132 1
   106  134  132 1
   107  135   58 1
   108  136   58 1
   109  137   61 1
   110  138  137 1
   111  139  137 1
   112  140  137 1
   113   17   20 1
   114   27   29 1
   115   39   41 1
   116   61  135 1
   117   61  136 1
   118   64  136 1
   119   97   99 1
   120  106  108 1
   121  118  120 1
   122  132  135 1
   123  135  136 1
   124  135  137 1
@<TRIPOS>SUBSTRUCTURE
     1 RES1 1
     2 SUP2 7

@<TRIPOS>CRYSIN
   5.6207   21.3127   37.8440  90.0000  90.0000  90.0000  20 1

