# MOL2 file generated by ConQuest
# Please check atom types

@<TRIPOS>MOLECULE
UVILAO
    20    21     1
SMALL
NO_CHARGES
****
Generated from CSD

@<TRIPOS>ATOM
      1 N1         8.2978    1.7958    5.9698 N.pl3     1 RES1    0.0000
      2 N2         7.8188    1.7212    8.3192 N.2       1 RES1    0.0000
      3 N3         8.1566    0.9458    9.3539 N.pl3     1 RES1    0.0000
      4 N4         7.5887    1.2171   10.6010 N.3       1 RES1    0.0000
      5 O1         7.6485    2.8159    5.8303 O.2       1 RES1    0.0000
      6 O2         8.8767    1.2182    5.0590 O.2       1 RES1    0.0000
      7 C1         8.4363    1.2100    7.2615 C.2       1 RES1    0.0000
      8 C2         8.9776   -0.0735    8.9634 C.2       1 RES1    0.0000
      9 H1         7.0749    0.5101   10.7903 H         1 RES1    0.0000
     10 H2         8.2101    1.2122   11.1699 H         1 RES1    0.0000
     11 N1D        9.8662   -1.7958   10.6052 N.pl3     1 RES1    0.0000
     12 N2D       10.3452   -1.7212    8.2558 N.2       1 RES1    0.0000
     13 N3D       10.0074   -0.9458    7.2211 N.pl3     1 RES1    0.0000
     14 N4D       10.5753   -1.2171    5.9740 N.3       1 RES1    0.0000
     15 O1D       10.5155   -2.8159   10.7447 O.2       1 RES1    0.0000
     16 O2D        9.2873   -1.2182   11.5160 O.2       1 RES1    0.0000
     17 C1D        9.7277   -1.2100    9.3135 C.2       1 RES1    0.0000
     18 C2D        9.1864    0.0735    7.6116 C.2       1 RES1    0.0000
     19 H1D       11.0891   -0.5101    5.7847 H         1 RES1    0.0000
     20 H2D        9.9539   -1.2122    5.4051 H         1 RES1    0.0000
@<TRIPOS>BOND
     1    1    5 2
     2    2    3 1
     3    3    4 1
     4    4    9 1
     5    6    1 2
     6    7    1 1
     7    8    3 1
     8   10    4 1
     9   11   15 2
    10   12   13 1
    11   13   14 1
    12   14   19 1
    13   16   11 2
    14   17    8 1
    15   18    7 1
    16   20   14 1
    17    2    7 2
    18    8   18 2
    19   11   17 1
    20   12   17 2
    21   13   18 1
@<TRIPOS>SUBSTRUCTURE
     1 RES1 1

@<TRIPOS>CRYSIN
   9.0820    5.4849   16.5750  90.0000  90.0000  90.0000  61 1

