# MOL2 file generated by ConQuest
# Please check atom types

@<TRIPOS>MOLECULE
UVIMIX
    42    44     1
SMALL
USER_CHARGES
****
Generated from CSD

@<TRIPOS>ATOM
      1 C1        -0.2501    7.3042    2.9477 C.ar      1 RES1    0.0000
      2 O1         0.4529    6.2222    7.4057 O.3       1 RES1    0.0000
      3 H1        -0.2639    6.1145    7.7876 H         1 RES1    0.0000
      4 N1        -0.3044    6.3341    5.1779 N.pl3     1 RES1    1.0000
      5 C2         0.3371    6.5362    4.0580 C.2       1 RES1    0.0000
      6 C3         0.0159    3.2282    7.4130 C.ar      1 RES1    0.0000
      7 O2        -0.8997    3.7995    5.3304 O.2       1 RES1    0.0000
      8 C4         0.4432    5.5362    6.2080 C.3       1 RES1    0.0000
      9 C5        -1.3329    8.1588    3.1158 C.ar      1 RES1    0.0000
     10 H2        -1.7059    8.2635    3.9612 H         1 RES1    0.0000
     11 C6        -0.2218    4.1482    6.2718 C.2       1 RES1    0.0000
     12 O3        -1.4961    6.7292    5.5006 O.2       1 RES1   -1.0000
     13 C7         1.6982    5.8759    4.1069 C.3       1 RES1    0.0000
     14 C8         0.2825    7.1896    1.6567 C.ar      1 RES1    0.0000
     15 H3         1.0201    6.6417    1.5120 H         1 RES1    0.0000
     16 C9         1.8293    5.4985    5.6037 C.3       1 RES1    0.0000
     17 H4         2.2101    4.6109    5.6924 H         1 RES1    0.0000
     18 H5         2.4106    6.1291    6.0578 H         1 RES1    0.0000
     19 C10        0.9034    3.4810    8.4357 C.ar      1 RES1    0.0000
     20 H6         1.3902    4.2736    8.4354 H         1 RES1    0.0000
     21 C11       -1.8630    8.8552    2.0479 C.ar      1 RES1    0.0000
     22 H7        -2.5819    9.4299    2.1841 H         1 RES1    0.0000
     23 C12       -0.2689    7.8775    0.5966 C.ar      1 RES1    0.0000
     24 H8         0.0915    7.7741   -0.2551 H         1 RES1    0.0000
     25 C13        0.3821    1.4075    9.4744 C.ar      1 RES1    0.0000
     26 H9         0.5100    0.7914   10.1595 H         1 RES1    0.0000
     27 C14       -1.3352    8.7055    0.7796 C.ar      1 RES1    0.0000
     28 H10       -1.7041    9.1645    0.0602 H         1 RES1    0.0000
     29 C15        1.0779    2.5739    9.4587 C.ar      1 RES1    0.0000
     30 H11        1.6785    2.7614   10.1437 H         1 RES1    0.0000
     31 C16        1.7534    4.6060    3.2403 C.3       1 RES1    0.0000
     32 H12        1.0344    4.0191    3.4854 H         1 RES1    0.0000
     33 H13        2.5924    4.1592    3.3793 H         1 RES1    0.0000
     34 H14        1.6692    4.8458    2.3145 H         1 RES1    0.0000
     35 C17       -0.5092    1.1506    8.4698 C.ar      1 RES1    0.0000
     36 H15       -1.0022    0.3616    8.4856 H         1 RES1    0.0000
     37 C18       -0.6883    2.0467    7.4336 C.ar      1 RES1    0.0000
     38 H16       -1.2861    1.8519    6.7486 H         1 RES1    0.0000
     39 C19        2.8343    6.8292    3.7304 C.3       1 RES1    0.0000
     40 H17        2.7659    7.0557    2.8003 H         1 RES1    0.0000
     41 H18        3.6779    6.4031    3.8952 H         1 RES1    0.0000
     42 H19        2.7706    7.6280    4.2593 H         1 RES1    0.0000
@<TRIPOS>BOND
     1    1    5 1
     2    2    3 1
     3    4    5 2
     4    5   13 1
     5    6   11 1
     6    7   11 2
     7    8    2 1
     8    9    1 ar
     9   10    9 1
    10   11    8 1
    11   12    4 1
    12   13   16 1
    13   14    1 ar
    14   15   14 1
    15   16    8 1
    16   17   16 1
    17   18   16 1
    18   19    6 ar
    19   20   19 1
    20   21    9 ar
    21   22   21 1
    22   23   14 ar
    23   24   23 1
    24   25   26 1
    25   27   21 ar
    26   28   27 1
    27   29   19 ar
    28   30   29 1
    29   31   13 1
    30   32   31 1
    31   33   31 1
    32   34   31 1
    33   35   25 ar
    34   36   35 1
    35   37    6 ar
    36   38   37 1
    37   39   13 1
    38   40   39 1
    39   41   39 1
    40   42   39 1
    41    4    8 1
    42   23   27 ar
    43   25   29 ar
    44   35   37 ar
@<TRIPOS>SUBSTRUCTURE
     1 RES1 1

@<TRIPOS>CRYSIN
   9.3432   12.1755   14.6611  90.0000 102.1760  90.0000 231 1

