# MOL2 file generated by ConQuest
# Please check atom types

@<TRIPOS>MOLECULE
UWOCAM
    56    60     1
SMALL
NO_CHARGES
****
Generated from CSD

@<TRIPOS>ATOM
      1 C1         3.9289    1.4145    4.2134 C.2       1 RES1    0.0000
      2 C2         4.2729    2.7908    3.7062 C.3       1 RES1    0.0000
      3 H1         3.7160    3.4575    4.1592 H         1 RES1    0.0000
      4 C3         3.8598    2.6874    2.2355 C.3       1 RES1    0.0000
      5 H2         4.6527    2.7912    1.6686 H         1 RES1    0.0000
      6 C4         4.0491    0.9776    5.6209 C.ar      1 RES1    0.0000
      7 C5         2.9937    1.2742    6.5018 C.ar      1 RES1    0.0000
      8 C6         3.1317    0.9319    7.8387 C.ar      1 RES1    0.0000
      9 H3         2.4419    1.1409    8.4268 H         1 RES1    0.0000
     10 C7         4.2416    0.3014    8.3245 C.ar      1 RES1    0.0000
     11 C8         5.2464   -0.0165    7.4391 C.ar      1 RES1    0.0000
     12 H4         5.9971   -0.4652    7.7550 H         1 RES1    0.0000
     13 C9         5.1799    0.3080    6.0886 C.ar      1 RES1    0.0000
     14 C10        1.7418    1.9520    6.0200 C.3       1 RES1    0.0000
     15 H5         1.1206    2.0309    6.7481 H         1 RES1    0.0000
     16 H6         1.3462    1.4313    5.3179 H         1 RES1    0.0000
     17 H7         1.9584    2.8266    5.6891 H         1 RES1    0.0000
     18 C11        4.3662   -0.0407    9.7919 C.3       1 RES1    0.0000
     19 H8         5.2029   -0.4847    9.9466 H         1 RES1    0.0000
     20 H9         3.6442   -0.6193   10.0477 H         1 RES1    0.0000
     21 H10        4.3303    0.7657   10.3121 H         1 RES1    0.0000
     22 C12        6.3013   -0.0744    5.1688 C.3       1 RES1    0.0000
     23 H11        6.7928   -0.8062    5.5504 H         1 RES1    0.0000
     24 H12        6.8879    0.6760    5.0491 H         1 RES1    0.0000
     25 H13        5.9423   -0.3388    4.3181 H         1 RES1    0.0000
     26 C13        5.7253    3.1377    3.8879 C.2       1 RES1    0.0000
     27 C14        7.2627    4.1800    5.3265 C.3       1 RES1    0.0000
     28 H14        7.2787    4.6563    6.1601 H         1 RES1    0.0000
     29 H15        7.6102    4.7424    4.6302 H         1 RES1    0.0000
     30 H16        7.8032    3.3896    5.3988 H         1 RES1    0.0000
     31 C15        2.8239    3.6988    1.8308 C.ar      1 RES1    0.0000
     32 C16        6.2759    6.9203    2.2628 C.ar      1 RES1    0.0000
     33 H17        6.8421    6.2459    2.5614 H         1 RES1    0.0000
     34 C17        6.7494    8.1800    2.1511 C.ar      1 RES1    0.0000
     35 H18        7.6352    8.3645    2.3664 H         1 RES1    0.0000
     36 C18        5.9020    9.2181    1.7076 C.ar      1 RES1    0.0000
     37 H19        6.2367   10.0813    1.6267 H         1 RES1    0.0000
     38 C19        4.6185    8.9741    1.4022 C.ar      1 RES1    0.0000
     39 H20        4.0712    9.6733    1.1240 H         1 RES1    0.0000
     40 C20        2.7759    7.3537    1.2101 C.ar      1 RES1    0.0000
     41 H21        2.1912    8.0288    0.9520 H         1 RES1    0.0000
     42 C21        0.9883    5.6535    1.0296 C.ar      1 RES1    0.0000
     43 H22        0.3706    6.2879    0.7426 H         1 RES1    0.0000
     44 C22        0.6028    4.3801    1.1797 C.ar      1 RES1    0.0000
     45 H23       -0.2836    4.1449    1.0272 H         1 RES1    0.0000
     46 C23        1.5342    3.3919    1.5694 C.ar      1 RES1    0.0000
     47 H24        1.2529    2.5088    1.6484 H         1 RES1    0.0000
     48 C24        3.2541    5.0528    1.7182 C.ar      1 RES1    0.0000
     49 C25        4.9440    6.6073    1.9366 C.ar      1 RES1    0.0000
     50 C26        4.0882    7.6648    1.4977 C.ar      1 RES1    0.0000
     51 C27        2.3191    6.0530    1.2995 C.ar      1 RES1    0.0000
     52 N1         3.4200    0.6530    3.3254 N.2       1 RES1    0.0000
     53 N2         4.5247    5.3317    2.0470 N.ar      1 RES1    0.0000
     54 O1         3.3381    1.3344    2.0896 O.3       1 RES1    0.0000
     55 O2         5.9077    3.8083    5.0120 O.3       1 RES1    0.0000
     56 O3         6.6083    2.8253    3.1396 O.2       1 RES1    0.0000
@<TRIPOS>BOND
     1    1    2 1
     2    2    3 1
     3    4    2 1
     4    5    4 1
     5    6    1 1
     6    7    6 ar
     7    8    7 ar
     8    9    8 1
     9   10    8 ar
    10   11   10 ar
    11   12   11 1
    12   13    6 ar
    13   14    7 1
    14   15   14 1
    15   16   14 1
    16   17   14 1
    17   18   10 1
    18   19   18 1
    19   20   18 1
    20   21   18 1
    21   22   13 1
    22   23   22 1
    23   24   22 1
    24   25   22 1
    25   26    2 1
    26   27   28 1
    27   29   27 1
    28   30   27 1
    29   31    4 1
    30   32   33 1
    31   34   32 ar
    32   35   34 1
    33   36   34 ar
    34   37   36 1
    35   38   36 ar
    36   39   38 1
    37   40   41 1
    38   42   43 1
    39   44   42 ar
    40   45   44 1
    41   46   31 ar
    42   47   46 1
    43   48   31 ar
    44   49   32 ar
    45   50   38 ar
    46   51   40 ar
    47   52    1 2
    48   53   48 ar
    49   54    4 1
    50   55   26 1
    51   56   26 2
    52   11   13 ar
    53   27   55 1
    54   40   50 ar
    55   42   51 ar
    56   44   46 ar
    57   48   51 ar
    58   49   50 ar
    59   49   53 ar
    60   52   54 1
@<TRIPOS>SUBSTRUCTURE
     1 RES1 1

@<TRIPOS>CRYSIN
   8.4830    9.4170   14.7150 100.0900  92.1800 101.2700   2 1

