# MOL2 file generated by ConQuest
# Please check atom types

@<TRIPOS>MOLECULE
UWOFAP
    34    35     1
SMALL
NO_CHARGES
****
Generated from CSD

@<TRIPOS>ATOM
      1 O1         1.0003   -0.0302    2.5368 O.2       1 RES1    0.0000
      2 O2         0.3369   -1.8176    1.5448 O.2       1 RES1    0.0000
      3 N1         3.4892    3.2728    2.4117 N.2       1 RES1    0.0000
      4 N2         3.5437    2.6314    1.3272 N.2       1 RES1    0.0000
      5 N3         2.6527    1.6156    1.3668 N.3       1 RES1    0.0000
      6 N4         0.9632   -0.7659    1.5436 N.pl3     1 RES1    0.0000
      7 C1         7.1738    7.5809    3.2358 C.3       1 RES1    0.0000
      8 H1         6.6758    8.4033    3.4265 H         1 RES1    0.0000
      9 H2         7.7423    7.7184    2.4493 H         1 RES1    0.0000
     10 H3         7.7323    7.3515    4.0060 H         1 RES1    0.0000
     11 C2         6.2019    6.4550    2.9642 C.ar      1 RES1    0.0000
     12 C3         5.1908    6.1691    3.8671 C.ar      1 RES1    0.0000
     13 H4         5.1044    6.6964    4.6521 H         1 RES1    0.0000
     14 C4         6.3119    5.6697    1.8142 C.ar      1 RES1    0.0000
     15 H5         6.9968    5.8552    1.1824 H         1 RES1    0.0000
     16 C5         4.3032    5.1298    3.6470 C.ar      1 RES1    0.0000
     17 H6         3.6145    4.9518    4.2760 H         1 RES1    0.0000
     18 C6         5.4298    4.6197    1.5844 C.ar      1 RES1    0.0000
     19 H7         5.5148    4.0895    0.8008 H         1 RES1    0.0000
     20 C7         4.4247    4.3474    2.5042 C.ar      1 RES1    0.0000
     21 C8         2.4943    0.7698    0.2863 C.ar      1 RES1    0.0000
     22 C9         1.6847   -0.3778    0.3362 C.ar      1 RES1    0.0000
     23 C10        1.5231   -1.2104   -0.7699 C.ar      1 RES1    0.0000
     24 H8         0.9740   -1.9820   -0.6983 H         1 RES1    0.0000
     25 C11        2.1477   -0.9342   -1.9656 C.ar      1 RES1    0.0000
     26 C12        1.9452   -1.7954   -3.1843 C.3       1 RES1    0.0000
     27 H9         1.8568   -2.7324   -2.9118 H         1 RES1    0.0000
     28 H10        2.7149   -1.7006   -3.7829 H         1 RES1    0.0000
     29 H11        1.1310   -1.5129   -3.6515 H         1 RES1    0.0000
     30 C13        2.9705    0.2015   -2.0192 C.ar      1 RES1    0.0000
     31 H12        3.4202    0.4063   -2.8308 H         1 RES1    0.0000
     32 C14        3.1481    1.0301   -0.9301 C.ar      1 RES1    0.0000
     33 H13        3.7181    1.7862   -1.0042 H         1 RES1    0.0000
     34 H14        2.1474    1.4210    2.1236 H         1 RES1    0.0000
@<TRIPOS>BOND
     1    1    6 2
     2    2    6 2
     3    3    4 2
     4    4    5 1
     5    5   21 1
     6    6   22 1
     7    7    8 1
     8    9    7 1
     9   10    7 1
    10   11    7 1
    11   12   11 ar
    12   13   12 1
    13   14   11 ar
    14   15   14 1
    15   16   12 ar
    16   17   16 1
    17   18   14 ar
    18   19   18 1
    19   20    3 1
    20   21   22 ar
    21   22   23 ar
    22   23   24 1
    23   25   23 ar
    24   26   25 1
    25   27   26 1
    26   28   26 1
    27   29   26 1
    28   30   25 ar
    29   31   30 1
    30   32   21 ar
    31   33   32 1
    32   34    5 1
    33   16   20 ar
    34   18   20 ar
    35   30   32 ar
@<TRIPOS>SUBSTRUCTURE
     1 RES1 1

@<TRIPOS>CRYSIN
  12.9940    5.7068   18.0040  90.0000  91.6600  90.0000 231 1

