# MOL2 file generated by ConQuest
# Please check atom types

@<TRIPOS>MOLECULE
UWOQII
    59    64     1
SMALL
NO_CHARGES
****
Generated from CSD

@<TRIPOS>ATOM
      1 O1         1.4586   -4.7588   12.6126 O.3       1 RES1    0.0000
      2 O2         2.1919    1.3058    7.8837 O.3       1 RES1    0.0000
      3 N1         2.0144   -0.0589    8.3071 N.2       1 RES1    0.0000
      4 N2         2.7575    1.1038   10.0743 N.3       1 RES1    0.0000
      5 N3         2.1791    5.5761    9.1458 N.pl3     1 RES1    0.0000
      6 N4         1.0729    5.1130    9.8168 N.2       1 RES1    0.0000
      7 N5         4.1241    4.7127    7.9709 N.pl3     1 RES1    0.0000
      8 N6         5.2498    5.2964    8.4683 N.2       1 RES1    0.0000
      9 N7         5.6259    4.5327    6.3792 N.2       1 RES1    0.0000
     10 C1         1.6930   -6.0513   12.0815 C.3       1 RES1    0.0000
     11 H1         2.6196   -6.1389   11.8483 H         1 RES1    0.0000
     12 H2         1.1513   -6.1794   11.2993 H         1 RES1    0.0000
     13 H3         1.4657   -6.7137   12.7403 H         1 RES1    0.0000
     14 C2         1.7250   -3.6799   11.8055 C.ar      1 RES1    0.0000
     15 C3         1.4624   -2.4410   12.3689 C.ar      1 RES1    0.0000
     16 H4         1.1262   -2.3872   13.2338 H         1 RES1    0.0000
     17 C4         1.6962   -1.2896   11.6532 C.ar      1 RES1    0.0000
     18 H5         1.5255   -0.4642   12.0462 H         1 RES1    0.0000
     19 C5         2.1873   -1.3421   10.3431 C.ar      1 RES1    0.0000
     20 C6         2.4488   -2.5926    9.7979 C.ar      1 RES1    0.0000
     21 H6         2.7811   -2.6498    8.9310 H         1 RES1    0.0000
     22 C7         2.2244   -3.7553   10.5168 C.ar      1 RES1    0.0000
     23 H7         2.4096   -4.5832   10.1348 H         1 RES1    0.0000
     24 C8         2.3609   -0.1139    9.5468 C.2       1 RES1    0.0000
     25 C9         2.8999    2.0085    8.9116 C.3       1 RES1    0.0000
     26 H8         3.8457    2.0819    8.6666 H         1 RES1    0.0000
     27 C10        3.7095    1.2336   11.1352 C.ar      1 RES1    0.0000
     28 C11        4.7702    0.3597   11.2792 C.ar      1 RES1    0.0000
     29 H9         4.8834   -0.3365   10.6730 H         1 RES1    0.0000
     30 C12        5.6632    0.5170   12.3228 C.ar      1 RES1    0.0000
     31 H10        6.3656   -0.0840   12.4285 H         1 RES1    0.0000
     32 C13        5.5132    1.5640   13.2026 C.ar      1 RES1    0.0000
     33 H11        6.1107    1.6675   13.9075 H         1 RES1    0.0000
     34 C14        4.4891    2.4510   13.0392 C.ar      1 RES1    0.0000
     35 H12        4.4075    3.1711   13.6215 H         1 RES1    0.0000
     36 C15        3.5727    2.2898   12.0199 C.ar      1 RES1    0.0000
     37 H13        2.8661    2.8879   11.9283 H         1 RES1    0.0000
     38 C16        2.3336    3.3676    9.1187 C.2       1 RES1    0.0000
     39 C17        1.1523    3.7850    9.7838 C.2       1 RES1    0.0000
     40 C18        2.9492    4.5411    8.7251 C.2       1 RES1    0.0000
     41 C19        0.0705    2.9453   10.4018 C.3       1 RES1    0.0000
     42 H14       -0.7678    3.4093   10.3422 H         1 RES1    0.0000
     43 H15        0.2805    2.7813   11.3250 H         1 RES1    0.0000
     44 H16        0.0078    2.1091    9.9355 H         1 RES1    0.0000
     45 C20        2.4122    6.9888    9.0115 C.ar      1 RES1    0.0000
     46 C21        2.7300    7.7154   10.1280 C.ar      1 RES1    0.0000
     47 H17        2.7879    7.3006   10.9590 H         1 RES1    0.0000
     48 C22        2.9658    9.0722   10.0033 C.ar      1 RES1    0.0000
     49 H18        3.2001    9.5703   10.7530 H         1 RES1    0.0000
     50 C23        2.8563    9.6844    8.7954 C.ar      1 RES1    0.0000
     51 H19        3.0015   10.6002    8.7181 H         1 RES1    0.0000
     52 C24        2.5324    8.9486    7.7041 C.ar      1 RES1    0.0000
     53 H20        2.4767    9.3634    6.8731 H         1 RES1    0.0000
     54 C25        2.2841    7.5888    7.8031 C.ar      1 RES1    0.0000
     55 H21        2.0341    7.0972    7.0548 H         1 RES1    0.0000
     56 C26        4.3907    4.2672    6.7355 C.2       1 RES1    0.0000
     57 H22        3.7765    3.8231    6.1966 H         1 RES1    0.0000
     58 C27        6.1005    5.1451    7.4791 C.2       1 RES1    0.0000
     59 H23        6.9801    5.4422    7.5360 H         1 RES1    0.0000
@<TRIPOS>BOND
     1    1   10 1
     2    2    3 1
     3    3   24 2
     4    4   24 1
     5    5    6 1
     6    6   39 2
     7    7    8 1
     8    8   58 2
     9    9   56 2
    10   10   11 1
    11   12   10 1
    12   13   10 1
    13   14    1 1
    14   15   14 ar
    15   16   15 1
    16   17   15 ar
    17   18   17 1
    18   19   17 ar
    19   20   19 ar
    20   21   20 1
    21   22   14 ar
    22   23   22 1
    23   24   19 1
    24   25    2 1
    25   26   25 1
    26   27    4 1
    27   28   27 ar
    28   29   28 1
    29   30   28 ar
    30   31   30 1
    31   32   30 ar
    32   33   32 1
    33   34   32 ar
    34   35   34 1
    35   36   27 ar
    36   37   36 1
    37   38   25 1
    38   39   38 1
    39   40    5 1
    40   41   39 1
    41   42   41 1
    42   43   41 1
    43   44   41 1
    44   45    5 1
    45   46   45 ar
    46   47   46 1
    47   48   46 ar
    48   49   48 1
    49   50   48 ar
    50   51   50 1
    51   52   50 ar
    52   53   52 1
    53   54   45 ar
    54   55   54 1
    55   56    7 1
    56   57   56 1
    57   58    9 1
    58   59   58 1
    59    4   25 1
    60    7   40 1
    61   20   22 ar
    62   34   36 ar
    63   38   40 2
    64   52   54 ar
@<TRIPOS>SUBSTRUCTURE
     1 RES1 1

@<TRIPOS>CRYSIN
   7.6070   12.4780   15.1280 114.3150  92.9630 105.2260   2 1

