# MOL2 file generated by ConQuest
# Please check atom types

@<TRIPOS>MOLECULE
UWUDAT
    46    48     1
SMALL
NO_CHARGES
****
Generated from CSD

@<TRIPOS>ATOM
      1 O1         5.7270    4.2851    3.7302 O.2       1 RES1    0.0000
      2 O2        -1.1382    2.0931    3.4965 O.2       1 RES1    0.0000
      3 O3         0.3775    4.9978    6.6718 O.2       1 RES1    0.0000
      4 O4        -2.6713    1.4714    5.8096 O.3       1 RES1    0.0000
      5 N1         4.5308    3.9870    4.0552 N.3       1 RES1    0.0000
      6 N2        -0.1209    3.6888    4.8366 N.am      1 RES1    0.0000
      7 C1         3.3574    4.6301    3.4325 C.3       1 RES1    0.0000
      8 C2         2.2438    3.9301    4.1855 C.2       1 RES1    0.0000
      9 C3         2.7314    3.0748    5.0789 C.2       1 RES1    0.0000
     10 H1         2.1749    2.5255    5.6192 H         1 RES1    0.0000
     11 C4         4.2202    3.0480    5.1657 C.3       1 RES1    0.0000
     12 C5         3.3329    4.3130    1.9365 C.3       1 RES1    0.0000
     13 H2         3.2962    3.3417    1.8088 H         1 RES1    0.0000
     14 H3         4.1430    4.6670    1.5137 H         1 RES1    0.0000
     15 H4         2.5434    4.7261    1.5290 H         1 RES1    0.0000
     16 C6         3.3873    6.1329    3.6687 C.3       1 RES1    0.0000
     17 H5         4.2418    6.4958    3.3582 H         1 RES1    0.0000
     18 H6         3.2832    6.3149    4.6267 H         1 RES1    0.0000
     19 H7         2.6542    6.5561    3.1743 H         1 RES1    0.0000
     20 C7         4.8512    1.6960    4.8822 C.3       1 RES1    0.0000
     21 H8         5.8241    1.7976    4.8157 H         1 RES1    0.0000
     22 H9         4.5008    1.3431    4.0378 H         1 RES1    0.0000
     23 H10        4.6365    1.0763    5.6103 H         1 RES1    0.0000
     24 C8         4.7459    3.6342    6.4802 C.3       1 RES1    0.0000
     25 H11        5.7133    3.7794    6.4086 H         1 RES1    0.0000
     26 H12        4.5634    3.0090    7.2121 H         1 RES1    0.0000
     27 H13        4.2995    4.4872    6.6590 H         1 RES1    0.0000
     28 C9         0.8322    4.2751    3.8956 C.3       1 RES1    0.0000
     29 H14        0.7342    5.2598    3.9139 H         1 RES1    0.0000
     30 H15        0.6100    3.9669    2.9814 H         1 RES1    0.0000
     31 C10       -0.9958    2.6841    4.5475 C.2       1 RES1    0.0000
     32 C11       -1.7549    2.4440    5.8338 C.2       1 RES1    0.0000
     33 C12       -1.3243    3.2769    6.7731 C.2       1 RES1    0.0000
     34 H16       -1.6392    3.3227    7.6681 H         1 RES1    0.0000
     35 C13       -0.2677    4.1210    6.1787 C.2       1 RES1    0.0000
     36 C14       -3.3385    1.2482    7.0493 C.ar      1 RES1    0.0000
     37 C15       -4.5458    1.8579    7.2607 C.ar      1 RES1    0.0000
     38 H17       -4.9174    2.4418    6.6105 H         1 RES1    0.0000
     39 C16       -5.2156    1.5999    8.4525 C.ar      1 RES1    0.0000
     40 H18       -6.0614    1.9985    8.6211 H         1 RES1    0.0000
     41 C17       -4.6449    0.7581    9.3939 C.ar      1 RES1    0.0000
     42 H19       -5.0976    0.5951   10.2127 H         1 RES1    0.0000
     43 C18       -3.4321    0.1530    9.1576 C.ar      1 RES1    0.0000
     44 H20       -3.0544   -0.4265    9.8090 H         1 RES1    0.0000
     45 C19       -2.7613    0.3941    7.9594 C.ar      1 RES1    0.0000
     46 H21       -1.9270   -0.0212    7.7767 H         1 RES1    0.0000
@<TRIPOS>BOND
     1    1    5 1
     2    2   31 2
     3    3   35 2
     4    4   32 1
     5    5    7 1
     6    6   28 1
     7    7    8 1
     8    8    9 2
     9    9   10 1
    10   11    5 1
    11   12    7 1
    12   13   12 1
    13   14   12 1
    14   15   12 1
    15   16    7 1
    16   17   16 1
    17   18   16 1
    18   19   16 1
    19   20   11 1
    20   21   20 1
    21   22   20 1
    22   23   20 1
    23   24   11 1
    24   25   24 1
    25   26   24 1
    26   27   24 1
    27   28    8 1
    28   29   28 1
    29   30   28 1
    30   31    6 1
    31   32   31 1
    32   33   32 2
    33   34   33 1
    34   35    6 1
    35   36    4 1
    36   37   36 ar
    37   38   37 1
    38   39   37 ar
    39   40   39 1
    40   41   39 ar
    41   42   41 1
    42   43   41 ar
    43   44   43 1
    44   45   36 ar
    45   46   45 1
    46    9   11 1
    47   33   35 1
    48   43   45 ar
@<TRIPOS>SUBSTRUCTURE
     1 RES1 1

@<TRIPOS>CRYSIN
  12.6544   11.1650   12.9530  90.0000  99.5400  90.0000  14 1

