# MOL2 file generated by ConQuest
# Please check atom types

@<TRIPOS>MOLECULE
UWUGEA
    35    38     1
SMALL
NO_CHARGES
****
Generated from CSD

@<TRIPOS>ATOM
      1 O1        -0.1810   10.0032    3.2394 O.3       1 RES1    0.0000
      2 C1         0.1087   10.8234    2.0744 C.3       1 RES1    0.0000
      3 H1         0.9357   10.4937    1.6617 H         1 RES1    0.0000
      4 C2        -1.6973   11.7542    0.6845 C.2       1 RES1    0.0000
      5 H2        -2.3898   11.6360    0.0759 H         1 RES1    0.0000
      6 C3        -0.9938   10.6940    1.0839 C.2       1 RES1    0.0000
      7 O2        -3.0134   13.8970   -0.2003 O.2       1 RES1    0.0000
      8 C4        -1.4185   13.0546    1.1632 C.2       1 RES1    0.0000
      9 C5        -0.3601   13.2350    2.1272 C.2       1 RES1    0.0000
     10 N1         0.3385   12.1611    2.5365 N.pl3     1 RES1    0.0000
     11 N2        -2.1341   14.1135    0.6570 N.pl3     1 RES1    0.0000
     12 C6        -1.3012    9.3190    0.6856 C.2       1 RES1    0.0000
     13 C7        -0.3253    8.6757    2.8920 C.ar      1 RES1    0.0000
     14 O3        -1.9588    9.0378   -0.3136 O.2       1 RES1    0.0000
     15 O4        -1.9102   15.3031    1.0113 O.2       1 RES1    0.0000
     16 N3        -0.0558   14.4184    2.5916 N.3       1 RES1    0.0000
     17 H3        -0.5449   15.0767    2.3352 H         1 RES1    0.0000
     18 C8        -0.8121    8.3011    1.6353 C.ar      1 RES1    0.0000
     19 C9         0.0055    7.7275    3.8472 C.ar      1 RES1    0.0000
     20 H4         0.3070    7.9826    4.6890 H         1 RES1    0.0000
     21 C10       -0.9285    6.9398    1.3481 C.ar      1 RES1    0.0000
     22 H5        -1.2525    6.6673    0.5194 H         1 RES1    0.0000
     23 C11        1.4997   12.3154    3.4389 C.3       1 RES1    0.0000
     24 H6         1.2830   11.9235    4.2984 H         1 RES1    0.0000
     25 H7         2.2482   11.8189    3.0714 H         1 RES1    0.0000
     26 C12       -0.1253    6.3923    3.5116 C.ar      1 RES1    0.0000
     27 H8         0.0957    5.7440    4.1410 H         1 RES1    0.0000
     28 C13       -0.5665    5.9991    2.2867 C.ar      1 RES1    0.0000
     29 H9        -0.6254    5.0932    2.0832 H         1 RES1    0.0000
     30 C14        1.0338   14.7220    3.5005 C.3       1 RES1    0.0000
     31 H10        1.5235   15.4910    3.1682 H         1 RES1    0.0000
     32 H11        0.6699   14.9535    4.3699 H         1 RES1    0.0000
     33 C15        1.8999   13.6556    3.6381 C.3       1 RES1    0.0000
     34 H12        2.2628   13.7066    4.5361 H         1 RES1    0.0000
     35 H13        2.6389   13.8186    3.0307 H         1 RES1    0.0000
@<TRIPOS>BOND
     1    1    2 1
     2    2    3 1
     3    4    5 1
     4    6    2 1
     5    7   11 2
     6    8    4 1
     7    9    8 2
     8   10    2 1
     9   11    8 1
    10   12    6 1
    11   13    1 1
    12   14   12 2
    13   15   11 2
    14   16    9 1
    15   17   16 1
    16   18   12 1
    17   19   13 ar
    18   20   19 1
    19   21   18 ar
    20   22   21 1
    21   23   10 1
    22   24   23 1
    23   25   23 1
    24   26   19 ar
    25   27   26 1
    26   28   21 ar
    27   29   28 1
    28   30   16 1
    29   31   30 1
    30   32   30 1
    31   33   23 1
    32   34   33 1
    33   35   33 1
    34    4    6 2
    35    9   10 1
    36   13   18 ar
    37   26   28 ar
    38   30   33 1
@<TRIPOS>SUBSTRUCTURE
     1 RES1 1

@<TRIPOS>CRYSIN
  19.2939   12.4436   14.2947  90.0000 129.6610  90.0000  15 1

