# MOL2 file generated by ConQuest
# Please check atom types

@<TRIPOS>MOLECULE
UWUHOL
    46    49     1
SMALL
NO_CHARGES
****
Generated from CSD

@<TRIPOS>ATOM
      1 C1         1.0343    6.1957    2.5910 C.2       1 RES1    0.0000
      2 O1         0.6167    7.1071    1.8951 O.2       1 RES1    0.0000
      3 O2         3.7412    7.2394    7.3815 O.3       1 RES1    0.0000
      4 O3         1.2840    2.1082    4.8879 O.2       1 RES1    0.0000
      5 O4        -0.6765    2.2475    5.7628 O.2       1 RES1    0.0000
      6 N1         0.7503    2.9915    0.8122 N.2       1 RES1    0.0000
      7 N2         0.3016    2.7942    2.0535 N.pl3     1 RES1    0.0000
      8 N3         0.3652    3.8497    2.8617 N.2       1 RES1    0.0000
      9 N4         0.0851    1.9197    4.8716 N.pl3     1 RES1    0.0000
     10 C2         1.6910    6.4356    3.8843 C.ar      1 RES1    0.0000
     11 C3         1.1382    4.2648    0.8068 C.2       1 RES1    0.0000
     12 C4         0.8954    4.7990    2.0859 C.2       1 RES1    0.0000
     13 C5         2.3238    8.0303    5.5829 C.ar      1 RES1    0.0000
     14 H1         2.2933    8.8957    5.9238 H         1 RES1    0.0000
     15 C6         1.6658    7.7174    4.4152 C.ar      1 RES1    0.0000
     16 H2         1.1921    8.3828    3.9696 H         1 RES1    0.0000
     17 C7         1.7121    4.8551   -0.4122 C.ar      1 RES1    0.0000
     18 C8         2.3815    5.4458    4.5870 C.ar      1 RES1    0.0000
     19 H3         2.3897    4.5732    4.2651 H         1 RES1    0.0000
     20 C9         1.4110    4.2937   -1.6390 C.ar      1 RES1    0.0000
     21 H4         0.8598    3.5454   -1.6824 H         1 RES1    0.0000
     22 C10        3.0463    5.7486    5.7465 C.ar      1 RES1    0.0000
     23 H5         3.5101    5.0827    6.2026 H         1 RES1    0.0000
     24 C11        2.5575    5.9574   -0.3670 C.ar      1 RES1    0.0000
     25 H6         2.7815    6.3353    0.4530 H         1 RES1    0.0000
     26 C12        3.0667    6.4942   -1.5336 C.ar      1 RES1    0.0000
     27 H7         3.6271    7.2355   -1.4970 H         1 RES1    0.0000
     28 C13        2.7489    5.9356   -2.7456 C.ar      1 RES1    0.0000
     29 H8         3.0900    6.3007   -3.5292 H         1 RES1    0.0000
     30 C14        1.9251    4.8378   -2.7999 C.ar      1 RES1    0.0000
     31 H9         1.7126    4.4587   -3.6226 H         1 RES1    0.0000
     32 C15        3.0297    7.0433    6.2426 C.ar      1 RES1    0.0000
     33 C16       -0.3262    1.5728    2.4159 C.ar      1 RES1    0.0000
     34 C17       -0.4953    1.1816    3.7367 C.ar      1 RES1    0.0000
     35 C18       -0.8429    0.7782    1.4149 C.ar      1 RES1    0.0000
     36 H10       -0.7523    1.0348    0.5255 H         1 RES1    0.0000
     37 C19       -1.1866    0.0318    4.0522 C.ar      1 RES1    0.0000
     38 H11       -1.3208   -0.2063    4.9411 H         1 RES1    0.0000
     39 C20       -1.4937   -0.3955    1.7299 C.ar      1 RES1    0.0000
     40 H12       -1.8119   -0.9434    1.0496 H         1 RES1    0.0000
     41 C21       -1.6763   -0.7617    3.0409 C.ar      1 RES1    0.0000
     42 H13       -2.1319   -1.5460    3.2448 H         1 RES1    0.0000
     43 C22        3.8111    8.5631    7.9106 C.3       1 RES1    0.0000
     44 H14        4.2076    9.1470    7.2605 H         1 RES1    0.0000
     45 H15        4.3464    8.5612    8.7073 H         1 RES1    0.0000
     46 H16        2.9262    8.8710    8.1205 H         1 RES1    0.0000
@<TRIPOS>BOND
     1    1    2 2
     2    3   32 1
     3    4    9 2
     4    5    9 2
     5    6    7 1
     6    7    8 1
     7    8   12 2
     8    9   34 1
     9   10    1 1
    10   11    6 2
    11   12    1 1
    12   13   14 1
    13   15   10 ar
    14   16   15 1
    15   17   11 1
    16   18   10 ar
    17   19   18 1
    18   20   17 ar
    19   21   20 1
    20   22   18 ar
    21   23   22 1
    22   24   17 ar
    23   25   24 1
    24   26   24 ar
    25   27   26 1
    26   28   26 ar
    27   29   28 1
    28   30   20 ar
    29   31   30 1
    30   32   13 ar
    31   33    7 1
    32   34   33 ar
    33   35   33 ar
    34   36   35 1
    35   37   34 ar
    36   38   37 1
    37   39   35 ar
    38   40   39 1
    39   41   37 ar
    40   42   41 1
    41   43    3 1
    42   44   43 1
    43   45   43 1
    44   46   43 1
    45   11   12 1
    46   13   15 ar
    47   22   32 ar
    48   28   30 ar
    49   39   41 ar
@<TRIPOS>SUBSTRUCTURE
     1 RES1 1

@<TRIPOS>CRYSIN
   8.1753    8.4886   14.5040  98.9576 101.6764  98.6971   2 1

