# MOL2 file generated by ConQuest
# Please check atom types

@<TRIPOS>MOLECULE
UWUJED01
    34    36     1
SMALL
NO_CHARGES
****
Generated from CSD

@<TRIPOS>ATOM
      1 O1         5.8210    9.7871    8.0001 O.3       1 RES1    0.0000
      2 O2         7.6785    9.2364    6.2252 O.2       1 RES1    0.0000
      3 O3         6.7847   10.5628    4.7549 O.2       1 RES1    0.0000
      4 N1         7.9044   13.5423   10.0955 N.1       1 RES1    0.0000
      5 N2         6.8582   10.0642    5.8725 N.pl3     1 RES1    0.0000
      6 C1         6.4001   10.4632    9.0626 C.2       1 RES1    0.0000
      7 C2         6.7178   11.7238    8.7258 C.2       1 RES1    0.0000
      8 C3         6.3137   12.0278    7.2996 C.3       1 RES1    0.0000
      9 H1         7.1212   12.2889    6.7710 H         1 RES1    0.0000
     10 C4         5.8491   10.6147    6.8717 C.3       1 RES1    0.0000
     11 H2         4.9410   10.6615    6.4556 H         1 RES1    0.0000
     12 C5         6.5318    9.6847   10.2871 C.ar      1 RES1    0.0000
     13 C6         6.6911   10.3132   11.5226 C.ar      1 RES1    0.0000
     14 H3         6.6938   11.2621   11.5745 H         1 RES1    0.0000
     15 C7         6.8454    9.5600   12.6711 C.ar      1 RES1    0.0000
     16 H4         6.9570    9.9919   13.5097 H         1 RES1    0.0000
     17 C8         6.8377    8.1777   12.6017 C.ar      1 RES1    0.0000
     18 H5         6.9540    7.6628   13.3913 H         1 RES1    0.0000
     19 C9         6.6617    7.5464   11.3870 C.ar      1 RES1    0.0000
     20 H6         6.6480    6.5975   11.3442 H         1 RES1    0.0000
     21 C10        6.5052    8.2929   10.2316 C.ar      1 RES1    0.0000
     22 H7         6.3793    7.8542    9.3982 H         1 RES1    0.0000
     23 C11        7.3717   12.7004    9.5228 C.1       1 RES1    0.0000
     24 C12        5.2387   13.0828    7.1365 C.ar      1 RES1    0.0000
     25 C13        4.2722   13.2874    8.1169 C.ar      1 RES1    0.0000
     26 H8         4.2910   12.7721    8.9150 H         1 RES1    0.0000
     27 C14        3.2815   14.2408    7.9339 C.ar      1 RES1    0.0000
     28 H9         2.6240   14.3755    8.6061 H         1 RES1    0.0000
     29 C15        3.2475   14.9943    6.7768 C.ar      1 RES1    0.0000
     30 H10        2.5687   15.6484    6.6558 H         1 RES1    0.0000
     31 C16        4.2028   14.7973    5.7936 C.ar      1 RES1    0.0000
     32 H11        4.1778   15.3129    4.9962 H         1 RES1    0.0000
     33 C17        5.1973   13.8463    5.9749 C.ar      1 RES1    0.0000
     34 H12        5.8540   13.7157    5.3008 H         1 RES1    0.0000
@<TRIPOS>BOND
     1    1    6 1
     2    2    5 2
     3    3    5 2
     4    4   23 3
     5    5   10 1
     6    6    7 2
     7    7    8 1
     8    8    9 1
     9   10    1 1
    10   11   10 1
    11   12    6 1
    12   13   12 ar
    13   14   13 1
    14   15   13 ar
    15   16   15 1
    16   17   15 ar
    17   18   17 1
    18   19   17 ar
    19   20   19 1
    20   21   12 ar
    21   22   21 1
    22   23    7 1
    23   24    8 1
    24   25   24 ar
    25   26   25 1
    26   27   25 ar
    27   28   27 1
    28   29   27 ar
    29   30   29 1
    30   31   29 ar
    31   32   31 1
    32   33   24 ar
    33   34   33 1
    34    8   10 1
    35   19   21 ar
    36   31   33 ar
@<TRIPOS>SUBSTRUCTURE
     1 RES1 1

@<TRIPOS>CRYSIN
   7.3388    9.3749   12.1210  64.3320  73.9640  72.7290   2 1

