# MOL2 file generated by ConQuest
# Please check atom types

@<TRIPOS>MOLECULE
UWUPUZ
    46    50     1
SMALL
NO_CHARGES
****
Generated from CSD

@<TRIPOS>ATOM
      1 O1        -2.1159    1.4979   -0.3902 O.2       1 RES1    0.0000
      2 O2         1.6342    5.5906    8.3262 O.2       1 RES1    0.0000
      3 O3         3.4789    4.5498    8.6158 O.2       1 RES1    0.0000
      4 N1        -0.1270    1.5964    0.7984 N.am      1 RES1    0.0000
      5 N2         2.4787    4.7833    7.9863 N.pl3     1 RES1    0.0000
      6 C1        -0.9789    1.8943   -0.2443 C.2       1 RES1    0.0000
      7 C2        -0.2200    2.8149   -1.1298 C.ar      1 RES1    0.0000
      8 C3        -0.6240    3.4122   -2.3183 C.ar      1 RES1    0.0000
      9 C4         0.2831    4.2358   -2.9617 C.ar      1 RES1    0.0000
     10 C5         1.5522    4.4377   -2.4411 C.ar      1 RES1    0.0000
     11 C6         1.9479    3.8289   -1.2645 C.ar      1 RES1    0.0000
     12 C7         1.0364    3.0233   -0.6057 C.ar      1 RES1    0.0000
     13 C8         1.2101    2.2010    0.6331 C.3       1 RES1    0.0000
     14 C9         1.5935    2.9352    1.8953 C.3       1 RES1    0.0000
     15 C10        1.6603    1.9320    3.0524 C.3       1 RES1    0.0000
     16 C11        0.4382    1.0158    3.0777 C.ar      1 RES1    0.0000
     17 C12       -0.4190    0.8885    1.9796 C.ar      1 RES1    0.0000
     18 C13       -1.5360    0.0491    2.0699 C.ar      1 RES1    0.0000
     19 C14       -1.7622   -0.6752    3.2283 C.ar      1 RES1    0.0000
     20 C15       -0.9132   -0.5992    4.3114 C.ar      1 RES1    0.0000
     21 C16        0.1726    0.2627    4.2081 C.ar      1 RES1    0.0000
     22 C17        1.8801    2.6580    4.3648 C.ar      1 RES1    0.0000
     23 C18        0.8822    3.4572    4.9143 C.ar      1 RES1    0.0000
     24 C19        1.0785    4.1620    6.0756 C.ar      1 RES1    0.0000
     25 C20        2.2862    4.0486    6.7065 C.ar      1 RES1    0.0000
     26 C21        3.2936    3.2739    6.2124 C.ar      1 RES1    0.0000
     27 C22        3.0906    2.5715    5.0316 C.ar      1 RES1    0.0000
     28 C23       -1.1320   -1.4434    5.5480 C.3       1 RES1    0.0000
     29 H1        -1.4916    3.2611   -2.6756 H         1 RES1    0.0000
     30 H2         0.0340    4.6677   -3.7698 H         1 RES1    0.0000
     31 H3         2.1592    5.0053   -2.9017 H         1 RES1    0.0000
     32 H4         2.8227    3.9579   -0.9170 H         1 RES1    0.0000
     33 H5         1.8447    1.5126    0.4662 H         1 RES1    0.0000
     34 H6         2.4429    3.3455    1.7795 H         1 RES1    0.0000
     35 H7         0.9434    3.6009    2.0880 H         1 RES1    0.0000
     36 H8         2.4207    1.3806    2.9031 H         1 RES1    0.0000
     37 H9        -2.1367   -0.0238    1.3385 H         1 RES1    0.0000
     38 H10       -2.5247   -1.2400    3.2786 H         1 RES1    0.0000
     39 H11        0.7604    0.3376    4.9506 H         1 RES1    0.0000
     40 H12        0.0424    3.5165    4.4733 H         1 RES1    0.0000
     41 H13        0.3935    4.7131    6.4315 H         1 RES1    0.0000
     42 H14        4.1246    3.2157    6.6688 H         1 RES1    0.0000
     43 H15        3.7854    2.0276    4.6799 H         1 RES1    0.0000
     44 H16       -1.2182   -2.3566    5.2982 H         1 RES1    0.0000
     45 H17       -0.3925   -1.3438    6.1356 H         1 RES1    0.0000
     46 H18       -1.9259   -1.1599    5.9891 H         1 RES1    0.0000
@<TRIPOS>BOND
     1    1    6 2
     2    2    5 2
     3    3    5 2
     4    4    6 1
     5    5   25 1
     6    6    7 1
     7    7    8 ar
     8    8    9 ar
     9    9   10 ar
    10   10   11 ar
    11   11   12 ar
    12   12    7 ar
    13   13    4 1
    14   14   13 1
    15   15   14 1
    16   16   15 1
    17   17    4 1
    18   18   17 ar
    19   19   18 ar
    20   20   19 ar
    21   21   16 ar
    22   22   15 1
    23   23   22 ar
    24   24   23 ar
    25   25   24 ar
    26   26   25 ar
    27   27   22 ar
    28   28   20 1
    29   29    8 1
    30   30    9 1
    31   31   10 1
    32   32   11 1
    33   33   13 1
    34   34   14 1
    35   35   14 1
    36   36   15 1
    37   37   18 1
    38   38   19 1
    39   39   21 1
    40   40   23 1
    41   41   24 1
    42   42   26 1
    43   43   27 1
    44   44   28 1
    45   45   28 1
    46   46   28 1
    47   12   13 1
    48   16   17 ar
    49   20   21 ar
    50   26   27 ar
@<TRIPOS>SUBSTRUCTURE
     1 RES1 1

@<TRIPOS>CRYSIN
   6.2330   21.6398   13.9695  90.0000  92.4010  90.0000 231 1

