# MOL2 file generated by ConQuest
# Please check atom types

@<TRIPOS>MOLECULE
UWUREL
    78    75     2
SMALL
NO_CHARGES
****
Generated from CSD

@<TRIPOS>ATOM
      1 O1         4.9250    9.2082    9.8244 O.3       1 RES1    0.0000
      2 H1         5.4664    9.4121    9.0898 H         1 RES1    0.0000
      3 O2         7.3941    7.5348    9.5885 O.2       1 RES1    0.0000
      4 O3         2.0952    3.7213   10.1807 O.2       1 RES1    0.0000
      5 O4         2.5921    3.7319    8.0832 O.2       1 RES1    0.0000
      6 O5         9.3090    9.6620    8.2961 O.2       1 RES1    0.0000
      7 O6         7.4238   10.6982    8.9270 O.3       1 RES1    0.0000
      8 O7         6.2224   10.7471    5.3531 O.2       1 RES1    0.0000
      9 O8         8.4325   10.9116    5.6104 O.3       1 RES1    0.0000
     10 N1         5.9271    9.0798    7.4305 N.3       1 RES1    0.0000
     11 H2         5.3745    9.5103    6.8792 H         1 RES1    0.0000
     12 N2         2.5946    4.2505    9.1911 N.pl3     1 RES1    0.0000
     13 C1         7.2871    9.3621    6.9957 C.3       1 RES1    0.0000
     14 C2         5.6679    7.6290    7.3948 C.3       1 RES1    0.0000
     15 H3         5.1933    7.4433    6.5346 H         1 RES1    0.0000
     16 C3         4.7354    7.1930    8.5102 C.ar      1 RES1    0.0000
     17 C4         4.0911    5.9819    8.3738 C.ar      1 RES1    0.0000
     18 H4         4.2504    5.4451    7.6064 H         1 RES1    0.0000
     19 C5         3.2129    5.5428    9.3506 C.ar      1 RES1    0.0000
     20 C6         2.8893    6.3198   10.4463 C.ar      1 RES1    0.0000
     21 H5         2.2874    6.0025   11.1096 H         1 RES1    0.0000
     22 C7         3.4589    7.5607   10.5509 C.ar      1 RES1    0.0000
     23 H6         3.2114    8.1284   11.2713 H         1 RES1    0.0000
     24 C8         4.3975    8.0039    9.6158 C.ar      1 RES1    0.0000
     25 C9         7.0595    6.9693    7.2846 C.3       1 RES1    0.0000
     26 C10        7.7564    6.8719    8.6404 C.2       1 RES1    0.0000
     27 C11        8.9213    5.9566    8.7363 C.ar      1 RES1    0.0000
     28 C12        9.7223    6.0269    9.8754 C.ar      1 RES1    0.0000
     29 H7         9.5336    6.6739   10.5441 H         1 RES1    0.0000
     30 C13       10.7843    5.1673   10.0408 C.ar      1 RES1    0.0000
     31 H8        11.3311    5.2213   10.8151 H         1 RES1    0.0000
     32 C14       11.0468    4.2191    9.0610 C.ar      1 RES1    0.0000
     33 H9        11.7621    3.6039    9.1767 H         1 RES1    0.0000
     34 C15       10.2770    4.1670    7.9259 C.ar      1 RES1    0.0000
     35 H10       10.4800    3.5254    7.2562 H         1 RES1    0.0000
     36 C16        9.2081    5.0331    7.7345 C.ar      1 RES1    0.0000
     37 C17        8.3896    4.9754    6.4765 C.3       1 RES1    0.0000
     38 H11        8.3024    4.0318    6.1866 H         1 RES1    0.0000
     39 H12        8.8573    5.4726    5.7594 H         1 RES1    0.0000
     40 C18        7.0066    5.5670    6.6752 C.3       1 RES1    0.0000
     41 H13        6.4824    4.9740    7.2696 H         1 RES1    0.0000
     42 H14        6.5429    5.6100    5.8018 H         1 RES1    0.0000
     43 C19        7.8739    8.0190    6.4561 C.3       1 RES1    0.0000
     44 H15        8.8316    7.9635    6.7387 H         1 RES1    0.0000
     45 C20        7.8210    7.9201    4.9424 C.ar      1 RES1    0.0000
     46 C21        9.0075    8.0846    4.2434 C.ar      1 RES1    0.0000
     47 H16        9.8230    8.1657    4.7233 H         1 RES1    0.0000
     48 C22        9.0253    8.1323    2.8603 C.ar      1 RES1    0.0000
     49 H17        9.8464    8.2638    2.4013 H         1 RES1    0.0000
     50 C23        7.8525    7.9908    2.1473 C.ar      1 RES1    0.0000
     51 H18        7.8624    8.0145    1.1978 H         1 RES1    0.0000
     52 C24        6.6652    7.8135    2.8289 C.ar      1 RES1    0.0000
     53 H19        5.8557    7.7044    2.3433 H         1 RES1    0.0000
     54 C25        6.6427    7.7927    4.2129 C.ar      1 RES1    0.0000
     55 H20        5.8150    7.6906    4.6687 H         1 RES1    0.0000
     56 C26        8.1476    9.9036    8.1552 C.2       1 RES1    0.0000
     57 C27        8.0800   11.2472   10.1003 C.3       1 RES1    0.0000
     58 H21        7.7467   12.1641   10.2675 H         1 RES1    0.0000
     59 H22        9.0552   11.2985    9.9407 H         1 RES1    0.0000
     60 C28        7.8134   10.3951   11.2944 C.3       1 RES1    0.0000
     61 H23        6.8508   10.3798   11.4754 H         1 RES1    0.0000
     62 H24        8.2859   10.7626   12.0699 H         1 RES1    0.0000
     63 H25        8.1288    9.4828   11.1218 H         1 RES1    0.0000
     64 C29        7.2414   10.4309    5.8986 C.2       1 RES1    0.0000
     65 C30        8.4304   11.7807    4.4267 C.3       1 RES1    0.0000
     66 H26        7.9260   12.6116    4.6107 H         1 RES1    0.0000
     67 H27        8.0069   11.3181    3.6604 H         1 RES1    0.0000
     68 C31        9.8554   12.0954    4.1197 C.3       1 RES1    0.0000
     69 H28       10.2603   12.5567    4.8839 H         1 RES1    0.0000
     70 H29        9.9000   12.6725    3.3292 H         1 RES1    0.0000
     71 H30       10.3428   11.2631    3.9437 H         1 RES1    0.0000
     72 C32        8.8614   12.0306    4.6731 Du        2 SUP2    0.0000
     73 H31        8.1964   12.7647    4.6798 Du        2 SUP2    0.0000
     74 H32        9.7392   12.3977    4.9475 Du        2 SUP2    0.0000
     75 C33        8.9507   11.4771    3.3972 Du        2 SUP2    0.0000
     76 H33        9.8213   11.0393    3.2924 Du        2 SUP2    0.0000
     77 H34        8.8570   12.1837    2.7258 Du        2 SUP2    0.0000
     78 H35        8.2367   10.8156    3.2779 Du        2 SUP2    0.0000
@<TRIPOS>BOND
     1    1    2 1
     2    3   26 2
     3    4   12 2
     4    5   12 2
     5    6   56 2
     6    7   56 1
     7    8   64 2
     8    9   64 1
     9   10   11 1
    10   12   19 1
    11   13   10 1
    12   14   10 1
    13   15   14 1
    14   16   14 1
    15   17   16 ar
    16   18   17 1
    17   19   17 ar
    18   20   19 ar
    19   21   20 1
    20   22   20 ar
    21   23   22 1
    22   24    1 1
    23   25   14 1
    24   26   25 1
    25   27   26 1
    26   28   27 ar
    27   29   28 1
    28   30   28 ar
    29   31   30 1
    30   32   30 ar
    31   33   32 1
    32   34   32 ar
    33   35   34 1
    34   36   27 ar
    35   37   36 1
    36   38   37 1
    37   39   37 1
    38   40   25 1
    39   41   40 1
    40   42   40 1
    41   43   13 1
    42   44   43 1
    43   45   43 1
    44   46   45 ar
    45   47   46 1
    46   48   46 ar
    47   49   48 1
    48   50   48 ar
    49   51   50 1
    50   52   50 ar
    51   53   52 1
    52   54   45 ar
    53   55   54 1
    54   56   13 1
    55   57    7 1
    56   58   57 1
    57   59   57 1
    58   60   57 1
    59   61   60 1
    60   62   60 1
    61   63   60 1
    62   64   13 1
    63   65    9 1
    64   66   65 1
    65   67   65 1
    66   68   65 1
    67   69   68 1
    68   70   68 1
    69   71   68 1
    70   16   24 ar
    71   22   24 ar
    72   25   43 1
    73   34   36 ar
    74   37   40 1
    75   52   54 ar
@<TRIPOS>SUBSTRUCTURE
     1 RES1 1
     2 SUP2 72

@<TRIPOS>CRYSIN
  11.9360   19.6290   11.3700  90.0000 101.2100  90.0000  14 1

