# MOL2 file generated by ConQuest
# Please check atom types

@<TRIPOS>MOLECULE
UWUSOV
    33    36     1
SMALL
NO_CHARGES
****
Generated from CSD

@<TRIPOS>ATOM
      1 O1        -2.0702    2.6264    6.2308 O.2       1 RES1    0.0000
      2 O2        -1.5140    3.3684    8.3523 O.3       1 RES1    0.0000
      3 O3        -0.1951    5.7884    3.3625 O.3       1 RES1    0.0000
      4 O4         0.6741    7.8936    3.6772 O.2       1 RES1    0.0000
      5 O5         2.2714    5.0957    8.7638 O.2       1 RES1    0.0000
      6 O6         2.5540    5.9891    6.8160 O.2       1 RES1    0.0000
      7 O7        -1.2137   10.0535    8.4708 O.2       1 RES1    0.0000
      8 O8         1.5399    7.9462    9.2740 O.3       1 RES1    0.0000
      9 N1        -1.5451    3.5047    6.8975 N.pl3     1 RES1    0.0000
     10 N2        -0.7063    4.7984    4.1618 N.2       1 RES1    0.0000
     11 N3        -0.8082    4.4247    8.8697 N.2       1 RES1    0.0000
     12 N4         0.2540    6.8845    4.2236 N.pl3     1 RES1    0.0000
     13 N5         1.9025    5.7611    7.8209 N.pl3     1 RES1    0.0000
     14 C1         0.4579    6.3607    7.9161 C.3       1 RES1    0.0000
     15 C2         0.2529    7.3166    6.7119 C.3       1 RES1    0.0000
     16 H1         1.0777    7.8711    6.5962 H         1 RES1    0.0000
     17 C3         0.0350    6.5129    5.4644 C.2       1 RES1    0.0000
     18 C4        -0.5729    5.2447    5.3902 C.2       1 RES1    0.0000
     19 C5        -0.9108    4.6283    6.6335 C.2       1 RES1    0.0000
     20 C6        -0.4525    5.1656    7.8518 C.2       1 RES1    0.0000
     21 C7         0.4132    7.0864    9.2687 C.3       1 RES1    0.0000
     22 H2         0.4927    6.4218   10.0123 H         1 RES1    0.0000
     23 C8        -0.8896    7.8821    9.4218 C.3       1 RES1    0.0000
     24 H3        -1.6604    7.2605    9.4164 H         1 RES1    0.0000
     25 H4        -0.8866    8.3605   10.2875 H         1 RES1    0.0000
     26 C9        -1.0306    8.8690    8.3028 C.2       1 RES1    0.0000
     27 C10       -0.9606    8.2634    6.9213 C.3       1 RES1    0.0000
     28 H5        -0.9135    8.9941    6.2548 H         1 RES1    0.0000
     29 H6        -1.7939    7.7560    6.7535 H         1 RES1    0.0000
     30 C11        1.9712    8.2644   10.6096 C.3       1 RES1    0.0000
     31 H7         2.7434    8.8660   10.5689 H         1 RES1    0.0000
     32 H8         2.2229    7.4397   11.0758 H         1 RES1    0.0000
     33 H9         1.2406    8.7028   11.0923 H         1 RES1    0.0000
@<TRIPOS>BOND
     1    1    9 1
     2    2    9 1
     3    3   10 1
     4    4   12 1
     5    5   13 2
     6    6   13 2
     7    7   26 2
     8    8   21 1
     9    9   19 2
    10   10   18 2
    11   11    2 1
    12   12    3 1
    13   13   14 1
    14   14   15 1
    15   15   16 1
    16   17   12 2
    17   18   17 1
    18   19   18 1
    19   20   11 2
    20   21   14 1
    21   22   21 1
    22   23   21 1
    23   24   23 1
    24   25   23 1
    25   26   23 1
    26   27   15 1
    27   28   27 1
    28   29   27 1
    29   30    8 1
    30   31   30 1
    31   32   30 1
    32   33   30 1
    33   14   20 1
    34   15   17 1
    35   19   20 1
    36   26   27 1
@<TRIPOS>SUBSTRUCTURE
     1 RES1 1

@<TRIPOS>CRYSIN
   6.3441   10.0090   20.8567  90.0000  97.2310  90.0000 231 1

