# MOL2 file generated by ConQuest
# Please check atom types

@<TRIPOS>MOLECULE
UWUXUH
    48    51     1
SMALL
NO_CHARGES
****
Generated from CSD

@<TRIPOS>ATOM
      1 O1         5.4469    3.9659    0.8111 O.2       1 RES1    0.0000
      2 O2         7.3855    3.6308   -0.0580 O.2       1 RES1    0.0000
      3 O3        10.9926    6.5835    0.5740 O.2       1 RES1    0.0000
      4 O4        10.7122    8.4822    1.5591 O.2       1 RES1    0.0000
      5 N1         4.1411    7.0605    2.7953 N.2       1 RES1    0.0000
      6 N2         4.9443    6.1234    2.1674 N.pl3     1 RES1    0.0000
      7 H1         4.6128    5.3435    1.9313 H         1 RES1    0.0000
      8 N3         6.6214    4.3069    0.6128 N.pl3     1 RES1    0.0000
      9 N4        10.3000    7.3968    1.1669 N.pl3     1 RES1    0.0000
     10 C1         3.0061    6.6216    3.2347 C.2       1 RES1    0.0000
     11 C2         2.6060    5.2070    3.1578 C.3       1 RES1    0.0000
     12 H2         3.3660    4.5590    3.1258 H         1 RES1    0.0000
     13 C3         1.4087    4.8311    2.2857 C.3       1 RES1    0.0000
     14 H3         1.5226    3.9769    1.7782 H         1 RES1    0.0000
     15 C4         0.6370    5.9016    1.5395 C.3       1 RES1    0.0000
     16 H4         1.2407    6.2914    0.8576 H         1 RES1    0.0000
     17 H5        -0.1045    5.4594    1.0553 H         1 RES1    0.0000
     18 C5         0.0494    7.0428    2.3459 C.3       1 RES1    0.0000
     19 H6        -0.4166    6.6515    3.1267 H         1 RES1    0.0000
     20 H7        -0.6379    7.4835    1.7869 H         1 RES1    0.0000
     21 C6         0.9926    8.1246    2.8620 C.3       1 RES1    0.0000
     22 H8         1.4384    8.5402    2.0687 H         1 RES1    0.0000
     23 C7         2.1032    7.6722    3.8361 C.3       1 RES1    0.0000
     24 H9         1.6586    7.2671    4.6344 H         1 RES1    0.0000
     25 C8         1.3325    4.6587    3.7640 C.3       1 RES1    0.0000
     26 H10        1.3546    3.7355    4.1207 H         1 RES1    0.0000
     27 H11        0.7581    5.2863    4.2704 H         1 RES1    0.0000
     28 C9         0.1291    9.2148    3.5365 C.3       1 RES1    0.0000
     29 H12       -0.5201    9.5592    2.8738 H         1 RES1    0.0000
     30 H13       -0.3860    8.7998    4.2730 H         1 RES1    0.0000
     31 C10        0.9185   10.3803    4.0934 C.3       1 RES1    0.0000
     32 H14        1.3178   10.8923    3.3472 H         1 RES1    0.0000
     33 H15        0.3082   10.9844    4.5872 H         1 RES1    0.0000
     34 C11        2.0130    9.9076    5.0193 C.3       1 RES1    0.0000
     35 H16        1.6125    9.4978    5.8263 H         1 RES1    0.0000
     36 H17        2.5623   10.6801    5.3065 H         1 RES1    0.0000
     37 C12        2.8925    8.8915    4.3152 C.3       1 RES1    0.0000
     38 H18        3.6042    8.5946    4.9354 H         1 RES1    0.0000
     39 H19        3.3272    9.3219    3.5371 H         1 RES1    0.0000
     40 C13        6.2320    6.4121    1.9216 C.ar      1 RES1    0.0000
     41 C14        7.0883    5.5528    1.1772 C.ar      1 RES1    0.0000
     42 C15        8.4154    5.8806    0.9291 C.ar      1 RES1    0.0000
     43 H20        8.9722    5.2975    0.4262 H         1 RES1    0.0000
     44 C16        8.9080    7.0625    1.4247 C.ar      1 RES1    0.0000
     45 C17        8.1134    7.9357    2.1684 C.ar      1 RES1    0.0000
     46 H21        8.4781    8.7468    2.5018 H         1 RES1    0.0000
     47 C18        6.8057    7.6164    2.4142 C.ar      1 RES1    0.0000
     48 H22        6.2697    8.2121    2.9245 H         1 RES1    0.0000
@<TRIPOS>BOND
     1    1    8 2
     2    2    8 2
     3    3    9 2
     4    4    9 2
     5    5    6 1
     6    6    7 1
     7    8   41 1
     8    9   44 1
     9   10    5 2
    10   11   10 1
    11   12   11 1
    12   13   11 1
    13   14   13 1
    14   15   13 1
    15   16   15 1
    16   17   15 1
    17   18   15 1
    18   19   18 1
    19   20   18 1
    20   21   18 1
    21   22   21 1
    22   23   10 1
    23   24   23 1
    24   25   11 1
    25   26   25 1
    26   27   25 1
    27   28   21 1
    28   29   28 1
    29   30   28 1
    30   31   28 1
    31   32   31 1
    32   33   31 1
    33   34   31 1
    34   35   34 1
    35   36   34 1
    36   37   23 1
    37   38   37 1
    38   39   37 1
    39   40    6 1
    40   41   40 ar
    41   42   41 ar
    42   43   42 1
    43   44   42 ar
    44   45   44 ar
    45   46   45 1
    46   47   40 ar
    47   48   47 1
    48   13   25 1
    49   21   23 1
    50   34   37 1
    51   45   47 ar
@<TRIPOS>SUBSTRUCTURE
     1 RES1 1

@<TRIPOS>CRYSIN
  14.1341   13.9591    9.0324  90.0000 104.3450  90.0000  14 1

