# MOL2 file generated by ConQuest
# Please check atom types

@<TRIPOS>MOLECULE
UWUZET
    78    82     2
SMALL
NO_CHARGES
****
Generated from CSD

@<TRIPOS>ATOM
      1 O1         2.7584    9.8380   -1.9308 O.2       1 RES1    0.0000
      2 O2        -0.7193    9.4531    1.0042 O.2       1 RES1    0.0000
      3 O3         3.4541    9.5768    2.7417 O.3       1 RES1    0.0000
      4 O4         4.0121    6.5855   -0.4984 O.2       1 RES1    0.0000
      5 O5         5.4386    6.9044    1.0689 O.2       1 RES1    0.0000
      6 N1         1.0015    9.6640   -0.4683 N.am      1 RES1    0.0000
      7 N2         1.3953    9.4938    1.8486 N.am      1 RES1    0.0000
      8 N3         4.8947    7.2380    0.0295 N.pl3     1 RES1    0.0000
      9 C1         6.8258   10.0959    4.1080 C.ar      1 RES1    0.0000
     10 H1         7.3367   10.2510    3.3462 H         1 RES1    0.0000
     11 C2         7.4320   10.1124    5.3567 C.ar      1 RES1    0.0000
     12 H2         8.3429   10.2851    5.4295 H         1 RES1    0.0000
     13 C3         6.6762    9.8695    6.5013 C.ar      1 RES1    0.0000
     14 H3         7.0821    9.8696    7.3378 H         1 RES1    0.0000
     15 C4         5.3239    9.6294    6.3885 C.ar      1 RES1    0.0000
     16 H4         4.8194    9.4699    7.1533 H         1 RES1    0.0000
     17 C5         4.7029    9.6240    5.1364 C.ar      1 RES1    0.0000
     18 H5         3.7879    9.4699    5.0724 H         1 RES1    0.0000
     19 C6         5.4556    9.8493    3.9819 C.ar      1 RES1    0.0000
     20 C7         4.8387    9.7975    2.6424 C.2       1 RES1    0.0000
     21 C8         5.4444    9.9086    1.4679 C.2       1 RES1    0.0000
     22 H6         6.3527   10.1063    1.4612 H         1 RES1    0.0000
     23 C9         4.7504    9.7350    0.1494 C.3       1 RES1    0.0000
     24 H7         4.9348   10.5337   -0.3875 H         1 RES1    0.0000
     25 C10        3.2618    9.6652    0.3599 C.2       1 RES1    0.0000
     26 C11        2.3734    9.7274   -0.7697 C.2       1 RES1    0.0000
     27 C12        0.4839    9.5303    0.8049 C.2       1 RES1    0.0000
     28 C13        2.7376    9.5779    1.6033 C.2       1 RES1    0.0000
     29 C14        0.8751    9.4702    3.2179 C.3       1 RES1    0.0000
     30 H8         0.8013   10.3693    3.5481 H         1 RES1    0.0000
     31 H9         1.4733    8.9716    3.7792 H         1 RES1    0.0000
     32 H10        0.0090    9.0544    3.2248 H         1 RES1    0.0000
     33 C15        0.0175    9.7679   -1.5530 C.3       1 RES1    0.0000
     34 H11       -0.4753    8.9466   -1.6176 H         1 RES1    0.0000
     35 H12        0.4717    9.9341   -2.3821 H         1 RES1    0.0000
     36 H13       -0.5867   10.4903   -1.3690 H         1 RES1    0.0000
     37 C16        5.3133    8.5181   -0.6186 C.3       1 RES1    0.0000
     38 H14        4.9929    8.5376   -1.5336 H         1 RES1    0.0000
     39 H15        6.2818    8.5679   -0.6384 H         1 RES1    0.0000
     40 O6         1.4435    6.2761    2.3383 O.2       2 RES2    0.0000
     41 O7        -1.9593    6.6759    5.3499 O.2       2 RES2    0.0000
     42 O8         2.2274    6.4203    7.0034 O.3       2 RES2    0.0000
     43 O9         2.7132    3.0387    3.3946 O.2       2 RES2    0.0000
     44 O10        3.9250    3.3397    5.1569 O.2       2 RES2    0.0000
     45 N4        -0.2723    6.3920    3.8422 N.am      2 RES2    0.0000
     46 N5         0.1773    6.5980    6.1353 N.am      2 RES2    0.0000
     47 N6         3.5060    3.6971    4.0602 N.pl3     2 RES2    0.0000
     48 C17        5.6356    6.5011    8.3483 C.ar      2 RES2    0.0000
     49 H16        6.1617    6.6047    7.5887 H         2 RES2    0.0000
     50 C18        6.2342    6.4526    9.6050 C.ar      2 RES2    0.0000
     51 H17        7.1592    6.5166    9.6779 H         2 RES2    0.0000
     52 C19        5.4582    6.3090   10.7537 C.ar      2 RES2    0.0000
     53 H18        5.8610    6.2694   11.5908 H         2 RES2    0.0000
     54 C20        4.0796    6.2270   10.6327 C.ar      2 RES2    0.0000
     55 H19        3.5550    6.1445   11.3959 H         2 RES2    0.0000
     56 C21        3.4734    6.2663    9.3814 C.ar      2 RES2    0.0000
     57 H20        2.5475    6.2063    9.3137 H         2 RES2    0.0000
     58 C22        4.2459    6.3948    8.2268 C.ar      2 RES2    0.0000
     59 C23        3.6236    6.3610    6.8864 C.2       2 RES2    0.0000
     60 C24        4.2235    6.2616    5.7047 C.2       2 RES2    0.0000
     61 H21        5.1522    6.2339    5.6909 H         2 RES2    0.0000
     62 C25        3.4991    6.1908    4.3897 C.3       2 RES2    0.0000
     63 H22        3.7354    7.0058    3.8994 H         2 RES2    0.0000
     64 C26        2.0083    6.2537    4.6248 C.2       2 RES2    0.0000
     65 C27        1.0895    6.3047    3.5146 C.2       2 RES2    0.0000
     66 C28       -0.7698    6.5549    5.1228 C.2       2 RES2    0.0000
     67 C29        1.5052    6.4093    5.8750 C.2       2 RES2    0.0000
     68 C30       -0.2794    6.9251    7.4950 C.3       2 RES2    0.0000
     69 H23       -0.4303    6.1143    7.9855 H         2 RES2    0.0000
     70 H24       -1.0974    7.4252    7.4463 H         2 RES2    0.0000
     71 H25        0.3904    7.4489    7.9400 H         2 RES2    0.0000
     72 C31       -1.2668    6.4416    2.7612 C.3       2 RES2    0.0000
     73 H26       -0.8183    6.5285    1.9164 H         2 RES2    0.0000
     74 H27       -1.8473    7.1951    2.8945 H         2 RES2    0.0000
     75 H28       -1.7863    5.6343    2.7661 H         2 RES2    0.0000
     76 C32        3.9620    5.0085    3.5152 C.3       2 RES2    0.0000
     77 H29        3.6121    5.1202    2.6167 H         2 RES2    0.0000
     78 H30        4.9306    5.0124    3.4605 H         2 RES2    0.0000
@<TRIPOS>BOND
     1    1   26 2
     2    2   27 2
     3    3   20 1
     4    4    8 2
     5    5    8 2
     6    6   26 1
     7    7   27 1
     8    8   37 1
     9    9   10 1
    10   11    9 ar
    11   12   11 1
    12   13   11 ar
    13   14   13 1
    14   15   13 ar
    15   16   15 1
    16   17   15 ar
    17   18   17 1
    18   19    9 ar
    19   20   19 1
    20   21   20 2
    21   22   21 1
    22   23   21 1
    23   24   23 1
    24   25   23 1
    25   26   25 1
    26   27    6 1
    27   28    3 1
    28   29    7 1
    29   30   29 1
    30   31   29 1
    31   32   29 1
    32   33    6 1
    33   34   33 1
    34   35   33 1
    35   36   33 1
    36   37   23 1
    37   38   37 1
    38   39   37 1
    39   40   65 2
    40   41   66 2
    41   42   59 1
    42   43   47 2
    43   44   47 2
    44   45   65 1
    45   46   66 1
    46   47   76 1
    47   48   49 1
    48   50   48 ar
    49   51   50 1
    50   52   50 ar
    51   53   52 1
    52   54   52 ar
    53   55   54 1
    54   56   54 ar
    55   57   56 1
    56   58   48 ar
    57   59   58 1
    58   60   59 2
    59   61   60 1
    60   62   60 1
    61   63   62 1
    62   64   62 1
    63   65   64 1
    64   66   45 1
    65   67   42 1
    66   68   46 1
    67   69   68 1
    68   70   68 1
    69   71   68 1
    70   72   45 1
    71   73   72 1
    72   74   72 1
    73   75   72 1
    74   76   62 1
    75   77   76 1
    76   78   76 1
    77    7   28 1
    78   17   19 ar
    79   25   28 2
    80   46   67 1
    81   56   58 ar
    82   64   67 2
@<TRIPOS>SUBSTRUCTURE
     1 RES1 1
     2 RES2 40

@<TRIPOS>CRYSIN
   9.3971   13.1490   12.3942  90.0000 109.6655  90.0000   4 1

