# MOL2 file generated by ConQuest
# Please check atom types

@<TRIPOS>MOLECULE
UWUZAP
    36    38     1
SMALL
NO_CHARGES
****
Generated from CSD

@<TRIPOS>ATOM
      1 O1         2.7782    4.7242    3.4291 O.3       1 RES1    0.0000
      2 O2         3.9064    5.0051    7.8881 O.2       1 RES1    0.0000
      3 N1         4.7174    8.3359    4.8480 N.pl3     1 RES1    0.0000
      4 O3         5.9230    8.0853    4.8645 O.2       1 RES1    0.0000
      5 C1         3.2663    4.8870    5.6373 C.2       1 RES1    0.0000
      6 C2         4.1819    5.8876    4.9712 C.3       1 RES1    0.0000
      7 C3         5.2310    6.1973    0.0757 C.ar      1 RES1    0.0000
      8 C4         4.3118    5.6873    0.9983 C.ar      1 RES1    0.0000
      9 C5         3.7745    7.3009    5.3879 C.3       1 RES1    0.0000
     10 C6         4.5694    5.9682    2.4202 C.2       1 RES1    0.0000
     11 O4         4.2474    9.3837    4.4362 O.2       1 RES1    0.0000
     12 C7         1.4339    3.3093    4.9156 C.3       1 RES1    0.0000
     13 C8         2.4997    4.3108    4.7035 C.2       1 RES1    0.0000
     14 C9         3.9082    5.5748    3.5036 C.2       1 RES1    0.0000
     15 C10        3.1933    4.4951    7.0288 C.2       1 RES1    0.0000
     16 C11        3.2110    4.9811    0.5208 C.ar      1 RES1    0.0000
     17 C12        3.9557    5.2923   -1.7495 C.ar      1 RES1    0.0000
     18 C13        2.2207    3.3907    7.3246 C.3       1 RES1    0.0000
     19 C14        5.0561    5.9914   -1.2903 C.ar      1 RES1    0.0000
     20 C15        3.0319    4.7968   -0.8399 C.ar      1 RES1    0.0000
     21 C16        1.0400    3.3356    6.3923 C.3       1 RES1    0.0000
     22 H1         2.5739    4.6364    1.1376 H         1 RES1    0.0000
     23 H2         3.7994    5.1471   -2.7347 H         1 RES1    0.0000
     24 H3         2.2103    4.3730   -1.1170 H         1 RES1    0.0000
     25 H4         0.5100    2.5057    6.6086 H         1 RES1    0.0000
     26 H5         2.9118    7.5730    5.0669 H         1 RES1    0.0000
     27 H6         5.1295    5.7616    5.1937 H         1 RES1    0.0000
     28 H7         2.0285    3.4713    8.2849 H         1 RES1    0.0000
     29 H8         0.6712    3.5032    4.3365 H         1 RES1    0.0000
     30 H9         5.3772    6.5037    2.6079 H         1 RES1    0.0000
     31 H10        1.7749    2.3222    4.7025 H         1 RES1    0.0000
     32 H11        3.8222    7.3815    6.4074 H         1 RES1    0.0000
     33 H12        0.4195    4.2932    6.6609 H         1 RES1    0.0000
     34 H13        5.7249    6.3361   -1.8854 H         1 RES1    0.0000
     35 H14        5.9542    6.7271    0.3850 H         1 RES1    0.0000
     36 H15        2.7316    2.5297    7.1758 H         1 RES1    0.0000
@<TRIPOS>BOND
     1    1   13 1
     2    2   15 2
     3    3    4 2
     4    5    6 1
     5    6    9 1
     6    7    8 ar
     7    8   10 1
     8    9    3 1
     9   10   14 2
    10   11    3 2
    11   12   13 1
    12   13    5 2
    13   14    1 1
    14   15    5 1
    15   16    8 ar
    16   17   19 ar
    17   18   15 1
    18   19    7 ar
    19   20   16 ar
    20   21   12 1
    21   22   16 1
    22   23   17 1
    23   24   20 1
    24   25   21 1
    25   26    9 1
    26   27    6 1
    27   28   18 1
    28   29   12 1
    29   30   10 1
    30   31   12 1
    31   32    9 1
    32   33   21 1
    33   34   19 1
    34   35    7 1
    35   36   18 1
    36    6   14 1
    37   17   20 ar
    38   18   21 1
@<TRIPOS>SUBSTRUCTURE
     1 RES1 1

@<TRIPOS>CRYSIN
   5.4965    7.9800   16.0290  90.0000  98.7110  90.0000   4 1

