# MOL2 file generated by ConQuest
# Please check atom types

@<TRIPOS>MOLECULE
UXAFIK
    56    59     1
SMALL
NO_CHARGES
****
Generated from CSD

@<TRIPOS>ATOM
      1 O1        11.1457    9.8124    1.6234 O.2       1 RES1    0.0000
      2 O2         8.9702   13.8541    0.2595 O.3       1 RES1    0.0000
      3 H1         9.3487   14.4472    0.7188 H         1 RES1    0.0000
      4 O3         6.8512    8.4868    1.2440 O.2       1 RES1    0.0000
      5 O4         5.7121    9.9703    0.1590 O.2       1 RES1    0.0000
      6 O5         8.3430   13.3662   -2.5313 O.2       1 RES1    0.0000
      7 O6        10.3548   12.6898   -2.9219 O.2       1 RES1    0.0000
      8 O7         8.6303    9.8077    4.5574 O.2       1 RES1    0.0000
      9 O8         6.8336    8.6136    4.4063 O.2       1 RES1    0.0000
     10 O9         5.5894   12.8176   -1.4889 O.2       1 RES1    0.0000
     11 O10        4.0342   11.7811   -2.5086 O.2       1 RES1    0.0000
     12 N1         6.7599    9.5030    0.5713 N.pl3     1 RES1    0.0000
     13 N2         9.3315   12.7100   -2.2535 N.pl3     1 RES1    0.0000
     14 N3         7.4739    9.6329    4.2031 N.pl3     1 RES1    0.0000
     15 N4         5.2016   11.9052   -2.1939 N.pl3     1 RES1    0.0000
     16 C1        11.0132   10.9483    1.2484 C.2       1 RES1    0.0000
     17 C2        12.0198   11.7567    0.4637 C.3       1 RES1    0.0000
     18 H2        12.3181   11.2588   -0.3377 H         1 RES1    0.0000
     19 H3        12.8110   11.9645    1.0209 H         1 RES1    0.0000
     20 C3        11.2953   13.0380    0.0608 C.3       1 RES1    0.0000
     21 H4        11.5145   13.2865   -0.8728 H         1 RES1    0.0000
     22 H5        11.5474   13.7856    0.6576 H         1 RES1    0.0000
     23 C4         9.7928   12.7082    0.2014 C.3       1 RES1    0.0000
     24 C5         9.7377   11.7873    1.4662 C.3       1 RES1    0.0000
     25 C6         8.5169   10.8507    1.6706 C.3       1 RES1    0.0000
     26 H6         8.8530   10.0807    2.2136 H         1 RES1    0.0000
     27 C7         8.0596   10.2404    0.3077 C.3       1 RES1    0.0000
     28 H7         8.7450    9.5700    0.0217 H         1 RES1    0.0000
     29 C8         7.9060   11.2752   -0.8171 C.3       1 RES1    0.0000
     30 H8         7.2758   11.9947   -0.5272 H         1 RES1    0.0000
     31 C9         9.3100   11.8648   -1.0004 C.3       1 RES1    0.0000
     32 H9         9.9504   11.1079   -1.1256 H         1 RES1    0.0000
     33 C10        9.9983   12.6068    2.7495 C.3       1 RES1    0.0000
     34 H10        9.9523   12.0156    3.5307 H         1 RES1    0.0000
     35 H11        9.3196   13.3097    2.8317 H         1 RES1    0.0000
     36 H12       10.8874   13.0149    2.7014 H         1 RES1    0.0000
     37 C11        7.3330   11.4166    2.4429 C.ar      1 RES1    0.0000
     38 C12        6.7829   10.7588    3.5489 C.ar      1 RES1    0.0000
     39 C13        5.5840   11.1257    4.1437 C.ar      1 RES1    0.0000
     40 H13        5.2423   10.6355    4.8814 H         1 RES1    0.0000
     41 C14        4.8968   12.2123    3.6470 C.ar      1 RES1    0.0000
     42 H14        4.0697   12.4740    4.0362 H         1 RES1    0.0000
     43 C15        5.4198   12.9168    2.5799 C.ar      1 RES1    0.0000
     44 H15        4.9550   13.6742    2.2432 H         1 RES1    0.0000
     45 C16        6.6149   12.5298    1.9962 C.ar      1 RES1    0.0000
     46 H16        6.9575   13.0370    1.2697 H         1 RES1    0.0000
     47 C17        7.4051   10.6505   -2.1174 C.ar      1 RES1    0.0000
     48 C18        6.1590   10.9019   -2.7089 C.ar      1 RES1    0.0000
     49 C19        5.7333   10.2274   -3.8459 C.ar      1 RES1    0.0000
     50 H17        4.8677   10.3917   -4.2021 H         1 RES1    0.0000
     51 C20        6.5698    9.3182   -4.4569 C.ar      1 RES1    0.0000
     52 H18        6.2872    8.8585   -5.2388 H         1 RES1    0.0000
     53 C21        7.8184    9.0813   -3.9270 C.ar      1 RES1    0.0000
     54 H19        8.4080    8.4743   -4.3601 H         1 RES1    0.0000
     55 C22        8.2202    9.7241   -2.7665 C.ar      1 RES1    0.0000
     56 H20        9.0755    9.5282   -2.4032 H         1 RES1    0.0000
@<TRIPOS>BOND
     1    1   16 2
     2    2    3 1
     3    4   12 2
     4    5   12 2
     5    6   13 2
     6    7   13 2
     7    8   14 2
     8    9   14 2
     9   10   15 2
    10   11   15 2
    11   12   27 1
    12   13   31 1
    13   14   38 1
    14   15   48 1
    15   16   17 1
    16   17   18 1
    17   19   17 1
    18   20   17 1
    19   21   20 1
    20   22   20 1
    21   23    2 1
    22   24   16 1
    23   25   24 1
    24   26   25 1
    25   27   25 1
    26   28   27 1
    27   29   27 1
    28   30   29 1
    29   31   23 1
    30   32   31 1
    31   33   24 1
    32   34   33 1
    33   35   33 1
    34   36   33 1
    35   37   25 1
    36   38   37 ar
    37   39   38 ar
    38   40   39 1
    39   41   39 ar
    40   42   41 1
    41   43   41 ar
    42   44   43 1
    43   45   37 ar
    44   46   45 1
    45   47   29 1
    46   48   47 ar
    47   49   48 ar
    48   50   49 1
    49   51   49 ar
    50   52   51 1
    51   53   51 ar
    52   54   53 1
    53   55   47 ar
    54   56   55 1
    55   20   23 1
    56   23   24 1
    57   29   31 1
    58   43   45 ar
    59   53   55 ar
@<TRIPOS>SUBSTRUCTURE
     1 RES1 1

@<TRIPOS>CRYSIN
   9.3881   11.6070   19.7468  90.0000  90.0000  90.0000  19 1

