# MOL2 file generated by ConQuest
# Please check atom types

@<TRIPOS>MOLECULE
UXAFUW
    52    55     1
SMALL
NO_CHARGES
****
Generated from CSD

@<TRIPOS>ATOM
      1 O1         2.6269   15.1375    3.6346 O.2       1 RES1    0.0000
      2 O2         7.0935   16.5057    4.7649 O.3       1 RES1    0.0000
      3 H1         7.5670   16.0580    4.2352 H         1 RES1    0.0000
      4 O3         3.6303   16.5666    1.3397 O.2       1 RES1    0.0000
      5 O4         4.3370   15.6423   -0.4808 O.2       1 RES1    0.0000
      6 O5         6.0016   19.8009    3.6932 O.2       1 RES1    0.0000
      7 O6         7.8656   18.8433    3.1233 O.2       1 RES1    0.0000
      8 N1         4.4784   15.9678    0.6871 N.pl3     1 RES1    0.0000
      9 N2         6.6595   18.8451    3.2748 N.pl3     1 RES1    0.0000
     10 C1         3.5873   15.7628    4.0144 C.2       1 RES1    0.0000
     11 C2         3.5021   17.0277    4.8475 C.3       1 RES1    0.0000
     12 H2         2.9275   16.8822    5.6396 H         1 RES1    0.0000
     13 H3         3.1236   17.7701    4.3126 H         1 RES1    0.0000
     14 C3         4.9262   17.3506    5.2738 C.3       1 RES1    0.0000
     15 H4         5.1171   16.9769    6.1704 H         1 RES1    0.0000
     16 H5         5.0715   18.3299    5.2987 H         1 RES1    0.0000
     17 C4         5.8186   16.6950    4.2087 C.3       1 RES1    0.0000
     18 C5         5.0616   15.3634    3.8705 C.3       1 RES1    0.0000
     19 C6         5.5967   14.6985    2.5752 C.3       1 RES1    0.0000
     20 H6         6.5392   14.4700    2.8180 H         1 RES1    0.0000
     21 C7         5.7763   15.6298    1.3653 C.3       1 RES1    0.0000
     22 H7         6.3378   15.1408    0.6985 H         1 RES1    0.0000
     23 C8         6.5201   16.9340    1.7127 C.3       1 RES1    0.0000
     24 H8         7.4514   16.6782    1.9720 H         1 RES1    0.0000
     25 C9         5.8833   17.5941    2.9365 C.3       1 RES1    0.0000
     26 H9         4.9507   17.8615    2.6963 H         1 RES1    0.0000
     27 C10        5.2644   14.3533    5.0240 C.3       1 RES1    0.0000
     28 H10        4.9916   14.7654    5.8700 H         1 RES1    0.0000
     29 H11        6.2103   14.0995    5.0738 H         1 RES1    0.0000
     30 H12        4.7208   13.5544    4.8582 H         1 RES1    0.0000
     31 C11        5.0075   13.3398    2.1969 C.ar      1 RES1    0.0000
     32 C12        3.7346   13.1696    1.6576 C.ar      1 RES1    0.0000
     33 H13        3.1818   13.9282    1.5076 H         1 RES1    0.0000
     34 C13        3.2643   11.9015    1.3358 C.ar      1 RES1    0.0000
     35 H14        2.3971   11.7967    0.9621 H         1 RES1    0.0000
     36 C14        4.0616   10.7885    1.5601 C.ar      1 RES1    0.0000
     37 H15        3.7333    9.9214    1.3565 H         1 RES1    0.0000
     38 C15        5.3278   10.9400    2.0778 C.ar      1 RES1    0.0000
     39 H16        5.8761   10.1777    2.2245 H         1 RES1    0.0000
     40 C16        5.8034   12.2098    2.3854 C.ar      1 RES1    0.0000
     41 H17        6.6839   12.3091    2.7295 H         1 RES1    0.0000
     42 C17        6.6324   17.8426    0.4926 C.ar      1 RES1    0.0000
     43 C18        7.6430   17.6026   -0.4267 C.ar      1 RES1    0.0000
     44 H18        8.2573   16.8937   -0.2765 H         1 RES1    0.0000
     45 C19        7.7645   18.3939   -1.5675 C.ar      1 RES1    0.0000
     46 H19        8.4587   18.2205   -2.1932 H         1 RES1    0.0000
     47 C20        6.8761   19.4296   -1.7905 C.ar      1 RES1    0.0000
     48 H20        6.9620   19.9734   -2.5655 H         1 RES1    0.0000
     49 C21        5.8721   19.6697   -0.8900 C.ar      1 RES1    0.0000
     50 H21        5.2611   20.3798   -1.0431 H         1 RES1    0.0000
     51 C22        5.7433   18.8791    0.2455 C.ar      1 RES1    0.0000
     52 H22        5.0392   19.0496    0.8588 H         1 RES1    0.0000
@<TRIPOS>BOND
     1    1   10 2
     2    2    3 1
     3    4    8 2
     4    5    8 2
     5    6    9 2
     6    7    9 2
     7    8   21 1
     8    9   25 1
     9   10   11 1
    10   11   12 1
    11   13   11 1
    12   14   11 1
    13   15   14 1
    14   16   14 1
    15   17    2 1
    16   18   10 1
    17   19   18 1
    18   20   19 1
    19   21   19 1
    20   22   21 1
    21   23   21 1
    22   24   23 1
    23   25   17 1
    24   26   25 1
    25   27   18 1
    26   28   27 1
    27   29   27 1
    28   30   27 1
    29   31   19 1
    30   32   31 ar
    31   33   32 1
    32   34   32 ar
    33   35   34 1
    34   36   34 ar
    35   37   36 1
    36   38   36 ar
    37   39   38 1
    38   40   31 ar
    39   41   40 1
    40   42   23 1
    41   43   42 ar
    42   44   43 1
    43   45   43 ar
    44   46   45 1
    45   47   45 ar
    46   48   47 1
    47   49   47 ar
    48   50   49 1
    49   51   42 ar
    50   52   51 1
    51   14   17 1
    52   17   18 1
    53   23   25 1
    54   38   40 ar
    55   49   51 ar
@<TRIPOS>SUBSTRUCTURE
     1 RES1 1

@<TRIPOS>CRYSIN
   6.6053   16.3208   18.4301  90.0000  90.0000  90.0000  19 1

