# MOL2 file generated by ConQuest
# Please check atom types

@<TRIPOS>MOLECULE
UXAFEG
    52    55     1
SMALL
NO_CHARGES
****
Generated from CSD

@<TRIPOS>ATOM
      1 O1         5.9864   -0.3379    3.1172 O.2       1 RES1    0.0000
      2 O2         4.7335    4.1495    2.2072 O.3       1 RES1    0.0000
      3 H1         5.0798    4.8656    2.4772 H         1 RES1    0.0000
      4 O3         1.3018   -0.4218    3.0256 O.2       1 RES1    0.0000
      5 O4         0.5512    1.6020    3.0112 O.2       1 RES1    0.0000
      6 O5         5.1840    4.1967    6.0678 O.2       1 RES1    0.0000
      7 O6         3.7786    5.1940    4.7678 O.2       1 RES1    0.0000
      8 N1         1.4416    0.7841    3.1458 N.pl3     1 RES1    0.0000
      9 N2         4.4295    4.2244    5.1076 N.pl3     1 RES1    0.0000
     10 C1         6.0209    0.8599    3.0632 C.2       1 RES1    0.0000
     11 C2         7.0663    1.7320    3.7130 C.3       1 RES1    0.0000
     12 H2         7.9641    1.5336    3.3444 H         1 RES1    0.0000
     13 H3         7.0840    1.5851    4.6907 H         1 RES1    0.0000
     14 C3         6.6574    3.1709    3.3913 C.3       1 RES1    0.0000
     15 H4         7.1898    3.5263    2.6370 H         1 RES1    0.0000
     16 H5         6.7882    3.7566    4.1786 H         1 RES1    0.0000
     17 C4         5.1684    3.0862    3.0153 C.3       1 RES1    0.0000
     18 C5         5.0521    1.7401    2.2571 C.3       1 RES1    0.0000
     19 C6         3.6468    1.1165    2.1063 C.3       1 RES1    0.0000
     20 H6         3.8029    0.1341    2.0056 H         1 RES1    0.0000
     21 C7         2.8470    1.2682    3.4192 C.3       1 RES1    0.0000
     22 H7         3.2518    0.6460    4.0898 H         1 RES1    0.0000
     23 C8         2.8303    2.6536    4.0386 C.3       1 RES1    0.0000
     24 H8         2.4603    3.3110    3.3824 H         1 RES1    0.0000
     25 C9         4.3114    2.9603    4.2987 C.3       1 RES1    0.0000
     26 H9         4.6874    2.2121    4.8454 H         1 RES1    0.0000
     27 C10        2.8425    1.5262    0.8753 C.ar      1 RES1    0.0000
     28 C11        2.3651    0.5078    0.0611 C.ar      1 RES1    0.0000
     29 H10        2.5916   -0.3934    0.2561 H         1 RES1    0.0000
     30 C12        1.5626    0.7875   -1.0320 C.ar      1 RES1    0.0000
     31 H11        1.2329    0.0779   -1.5695 H         1 RES1    0.0000
     32 C13        1.2429    2.0794   -1.3408 C.ar      1 RES1    0.0000
     33 H12        0.7009    2.2696   -2.0969 H         1 RES1    0.0000
     34 C14        1.7114    3.1045   -0.5487 C.ar      1 RES1    0.0000
     35 H13        1.4907    4.0037   -0.7607 H         1 RES1    0.0000
     36 C15        2.5023    2.8323    0.5548 C.ar      1 RES1    0.0000
     37 H14        2.8151    3.5466    1.0979 H         1 RES1    0.0000
     38 C16        2.0359    2.7213    5.3386 C.ar      1 RES1    0.0000
     39 C17        1.1718    3.7802    5.5559 C.ar      1 RES1    0.0000
     40 H15        1.0357    4.4228    4.8708 H         1 RES1    0.0000
     41 C18        0.5032    3.9150    6.7607 C.ar      1 RES1    0.0000
     42 H16       -0.0780    4.6530    6.9043 H         1 RES1    0.0000
     43 C19        0.6834    2.9738    7.7501 C.ar      1 RES1    0.0000
     44 H17        0.2265    3.0625    8.5777 H         1 RES1    0.0000
     45 C20        1.5214    1.9101    7.5402 C.ar      1 RES1    0.0000
     46 H18        1.6331    1.2567    8.2202 H         1 RES1    0.0000
     47 C21        2.2087    1.7794    6.3429 C.ar      1 RES1    0.0000
     48 H19        2.7979    1.0461    6.2095 H         1 RES1    0.0000
     49 C22        5.7249    1.8282    0.8753 C.3       1 RES1    0.0000
     50 H20        6.6548    2.1207    0.9838 H         1 RES1    0.0000
     51 H21        5.2419    2.4721    0.3169 H         1 RES1    0.0000
     52 H22        5.7076    0.9466    0.4463 H         1 RES1    0.0000
@<TRIPOS>BOND
     1    1   10 2
     2    2    3 1
     3    4    8 2
     4    5    8 2
     5    6    9 2
     6    7    9 2
     7    8   21 1
     8    9   25 1
     9   10   11 1
    10   11   12 1
    11   13   11 1
    12   14   11 1
    13   15   14 1
    14   16   14 1
    15   17    2 1
    16   18   10 1
    17   19   18 1
    18   20   19 1
    19   21   19 1
    20   22   21 1
    21   23   21 1
    22   24   23 1
    23   25   17 1
    24   26   25 1
    25   27   19 1
    26   28   27 ar
    27   29   28 1
    28   30   28 ar
    29   31   30 1
    30   32   30 ar
    31   33   32 1
    32   34   32 ar
    33   35   34 1
    34   36   27 ar
    35   37   36 1
    36   38   23 1
    37   39   38 ar
    38   40   39 1
    39   41   39 ar
    40   42   41 1
    41   43   41 ar
    42   44   43 1
    43   45   43 ar
    44   46   45 1
    45   47   38 ar
    46   48   47 1
    47   49   18 1
    48   50   49 1
    49   51   49 1
    50   52   49 1
    51   14   17 1
    52   17   18 1
    53   23   25 1
    54   34   36 ar
    55   45   47 ar
@<TRIPOS>SUBSTRUCTURE
     1 RES1 1

@<TRIPOS>CRYSIN
  11.4563    6.7710   25.4114  90.0000  93.8075  90.0000  14 1

