# MOL2 file generated by ConQuest
# Please check atom types

@<TRIPOS>MOLECULE
UXAYEY
    81    84     1
SMALL
NO_CHARGES
****
Generated from CSD

@<TRIPOS>ATOM
      1 O1         2.0762    1.7833   14.4202 O.3       1 RES1    0.0000
      2 O2         7.5490   -1.8575   11.3382 O.3       1 RES1    0.0000
      3 O3         1.5708    0.1732   12.8018 O.3       1 RES1    0.0000
      4 O4         5.0959    2.5608   14.2748 O.2       1 RES1    0.0000
      5 O5         5.0081    0.6090   15.1920 O.2       1 RES1    0.0000
      6 O6         4.9750    2.0583   11.4110 O.3       1 RES1    0.0000
      7 O7         0.1165    1.4579    9.7901 O.3       1 RES1    0.0000
      8 O8         5.6501   -2.8891   11.9293 O.2       1 RES1    0.0000
      9 O9         3.0505    0.4891   10.2211 O.3       1 RES1    0.0000
     10 N1         4.7350    1.3941   14.2925 N.pl3     1 RES1    0.0000
     11 C1         6.3178   -1.8965   11.8523 C.2       1 RES1    0.0000
     12 C2         5.2679    3.3953   10.9884 C.3       1 RES1    0.0000
     13 H1         5.4284    3.9663   11.7563 H         1 RES1    0.0000
     14 H2         4.5261    3.7607   10.4806 H         1 RES1    0.0000
     15 C3         2.6275    1.5530   11.0667 C.3       1 RES1    0.0000
     16 H3         2.4489    2.3371   10.5072 H         1 RES1    0.0000
     17 C4         3.7269    1.9213   12.0759 C.3       1 RES1    0.0000
     18 H4         3.4959    2.7730   12.5028 H         1 RES1    0.0000
     19 C5        -0.8331    1.8413    7.6300 C.ar      1 RES1    0.0000
     20 C6         3.8655    0.8460   13.1507 C.3       1 RES1    0.0000
     21 C7         4.1233   -0.2113    8.2362 C.ar      1 RES1    0.0000
     22 C8         3.3970    0.9145    8.8943 C.3       1 RES1    0.0000
     23 H5         3.9627    1.7024    8.9322 H         1 RES1    0.0000
     24 H6         2.5957    1.1353    8.3941 H         1 RES1    0.0000
     25 C9         0.8995    0.6794   16.2022 C.1       1 RES1    0.0000
     26 C10        8.0755   -3.1251   10.8722 C.3       1 RES1    0.0000
     27 H7         8.0527   -3.7636   11.5896 H         1 RES1    0.0000
     28 H8         8.9814   -3.0061   10.5792 H         1 RES1    0.0000
     29 H9         7.5413   -3.4438   10.1422 H         1 RES1    0.0000
     30 C11        4.4337   -0.5110   12.7263 C.3       1 RES1    0.0000
     31 H10        4.3198   -1.1305   13.4652 H         1 RES1    0.0000
     32 H11        3.9021   -0.8431   11.9862 H         1 RES1    0.0000
     33 C12        5.8998   -0.5338   12.3070 C.3       1 RES1    0.0000
     34 H12        6.0380    0.1018   11.5871 H         1 RES1    0.0000
     35 H13        6.4512   -0.2617   13.0572 H         1 RES1    0.0000
     36 C13       -0.5707    3.1841    7.7449 C.ar      1 RES1    0.0000
     37 H14       -0.2715    3.5266    8.5558 H         1 RES1    0.0000
     38 C14        0.8279    1.6567   15.1172 C.3       1 RES1    0.0000
     39 H15        0.1386    1.3874   14.4895 H         1 RES1    0.0000
     40 H16        0.5777    2.5198   15.4810 H         1 RES1    0.0000
     41 C15        7.6917    2.8320   10.6587 C.ar      1 RES1    0.0000
     42 H17        7.7268    2.5836   11.5542 H         1 RES1    0.0000
     43 C16       -0.7152    0.8983    8.7932 C.3       1 RES1    0.0000
     44 H18       -1.5949    0.7242    9.1620 H         1 RES1    0.0000
     45 H19       -0.3406    0.0552    8.4926 H         1 RES1    0.0000
     46 C17        2.4752    0.5957   13.7873 C.3       1 RES1    0.0000
     47 H20        2.5579   -0.1094   14.4630 H         1 RES1    0.0000
     48 C18        8.8267    2.7244    9.8820 C.ar      1 RES1    0.0000
     49 H21        9.6165    2.4037   10.2546 H         1 RES1    0.0000
     50 C19        1.3349    1.1762   11.7879 C.3       1 RES1    0.0000
     51 H22        0.9581    1.9765   12.2110 H         1 RES1    0.0000
     52 C20       -1.4745    2.1925    5.3388 C.ar      1 RES1    0.0000
     53 H23       -1.7826    1.8528    4.5305 H         1 RES1    0.0000
     54 C21       -0.7446    4.0357    6.6625 C.ar      1 RES1    0.0000
     55 H24       -0.5516    4.9417    6.7459 H         1 RES1    0.0000
     56 C22        0.3033    0.5672   10.8836 C.3       1 RES1    0.0000
     57 H25        0.6062   -0.2979   10.5640 H         1 RES1    0.0000
     58 H26       -0.5318    0.4425   11.3622 H         1 RES1    0.0000
     59 C23        5.4411   -0.4463    8.5255 C.ar      1 RES1    0.0000
     60 H27        5.9207    0.1370    9.0686 H         1 RES1    0.0000
     61 C24        6.5006    3.3030   10.1320 C.ar      1 RES1    0.0000
     62 C25        6.4650    3.6627    8.7920 C.ar      1 RES1    0.0000
     63 H28        5.6750    3.9729    8.4131 H         1 RES1    0.0000
     64 C26        8.7920    3.0917    8.5533 C.ar      1 RES1    0.0000
     65 H29        9.5539    3.0251    8.0253 H         1 RES1    0.0000
     66 C27       -1.2066    3.5333    5.4601 C.ar      1 RES1    0.0000
     67 H30       -1.3354    4.1023    4.7364 H         1 RES1    0.0000
     68 C28        3.4342   -1.0734    7.3887 C.ar      1 RES1    0.0000
     69 H31        2.5409   -0.9050    7.1968 H         1 RES1    0.0000
     70 C29       -1.2900    1.3522    6.4074 C.ar      1 RES1    0.0000
     71 H32       -1.4704    0.4444    6.3152 H         1 RES1    0.0000
     72 C30        4.0398   -2.1544    6.8393 C.ar      1 RES1    0.0000
     73 H33        3.5721   -2.7006    6.2482 H         1 RES1    0.0000
     74 C31        0.9637   -0.1123   17.0699 C.1       1 RES1    0.0000
     75 H34        1.0154   -0.7384   17.7544 H         1 RES1    0.0000
     76 C32        5.2982   -2.4313    7.1462 C.ar      1 RES1    0.0000
     77 H35        5.6865   -3.2012    6.7964 H         1 RES1    0.0000
     78 C33        6.0612   -1.6082    7.9761 C.ar      1 RES1    0.0000
     79 H36        6.9489   -1.8118    8.1655 H         1 RES1    0.0000
     80 C34        7.6104    3.5580    8.0190 C.ar      1 RES1    0.0000
     81 H37        7.5813    3.8083    7.1248 H         1 RES1    0.0000
@<TRIPOS>BOND
     1    1   38 1
     2    2   11 1
     3    3   46 1
     4    4   10 2
     5    5   10 2
     6    6   12 1
     7    7   43 1
     8    8   11 2
     9    9   15 1
    10   10   20 1
    11   11   33 1
    12   12   13 1
    13   14   12 1
    14   15   16 1
    15   17    6 1
    16   18   17 1
    17   19   36 ar
    18   20   17 1
    19   21   22 1
    20   22    9 1
    21   23   22 1
    22   24   22 1
    23   25   38 1
    24   26    2 1
    25   27   26 1
    26   28   26 1
    27   29   26 1
    28   30   20 1
    29   31   30 1
    30   32   30 1
    31   33   30 1
    32   34   33 1
    33   35   33 1
    34   36   37 1
    35   38   39 1
    36   40   38 1
    37   41   42 1
    38   43   19 1
    39   44   43 1
    40   45   43 1
    41   46    1 1
    42   47   46 1
    43   48   41 ar
    44   49   48 1
    45   50    3 1
    46   51   50 1
    47   52   53 1
    48   54   36 ar
    49   55   54 1
    50   56    7 1
    51   57   56 1
    52   58   56 1
    53   59   21 ar
    54   60   59 1
    55   61   12 1
    56   62   61 ar
    57   63   62 1
    58   64   48 ar
    59   65   64 1
    60   66   52 ar
    61   67   66 1
    62   68   21 ar
    63   69   68 1
    64   70   19 ar
    65   71   70 1
    66   72   68 ar
    67   73   72 1
    68   74   25 3
    69   75   74 1
    70   76   72 ar
    71   77   76 1
    72   78   59 ar
    73   79   78 1
    74   80   62 ar
    75   81   80 1
    76   15   17 1
    77   15   50 1
    78   20   46 1
    79   41   61 ar
    80   50   56 1
    81   52   70 ar
    82   54   66 ar
    83   64   80 ar
    84   76   78 ar
@<TRIPOS>SUBSTRUCTURE
     1 RES1 1

@<TRIPOS>CRYSIN
  13.1570    9.5160   13.5290  90.0000 111.0010  90.0000   4 1

