# MOL2 file generated by ConQuest
# Please check atom types

@<TRIPOS>MOLECULE
UXOQUU
    45    47     1
SMALL
NO_CHARGES
****
Generated from CSD

@<TRIPOS>ATOM
      1 C1        -4.3599   -3.8053   -6.3873 C.2       1 RES1    0.0000
      2 C2        -3.7342   -2.5483   -6.9013 C.ar      1 RES1    0.0000
      3 C3        -3.3223   -2.2093   -8.1758 C.ar      1 RES1    0.0000
      4 C4        -2.8009   -0.9321   -8.3730 C.ar      1 RES1    0.0000
      5 C5        -2.7092   -0.0439   -7.3253 C.ar      1 RES1    0.0000
      6 C6        -3.1147   -0.3846   -6.0409 C.ar      1 RES1    0.0000
      7 C7        -3.6221   -1.6536   -5.8585 C.ar      1 RES1    0.0000
      8 C8        -4.1491   -2.3134   -4.6284 C.2       1 RES1    0.0000
      9 C9        -5.2109   -4.5206   -4.0897 C.3       1 RES1    0.0000
     10 C10       -4.2719   -5.4981   -3.3366 C.3       1 RES1    0.0000
     11 C11       -3.6869   -6.4922   -4.3387 C.3       1 RES1    0.0000
     12 C12       -3.2185   -4.7406   -2.5552 C.2       1 RES1    0.0000
     13 C13       -1.9120   -4.9856   -2.5737 C.2       1 RES1    0.0000
     14 C14       -5.2301   -6.2390   -2.3493 C.3       1 RES1    0.0000
     15 H1        -6.0062   -6.5931   -2.8719 H         1 RES1    0.0000
     16 C15       -4.5721   -7.4029   -1.6246 C.ar      1 RES1    0.0000
     17 C16       -3.8566   -7.2177   -0.4314 C.ar      1 RES1    0.0000
     18 C17       -3.3257   -8.3165    0.2305 C.ar      1 RES1    0.0000
     19 C18       -3.4691   -9.5661   -0.3303 C.ar      1 RES1    0.0000
     20 C19       -4.1553   -9.7768   -1.5050 C.ar      1 RES1    0.0000
     21 C20       -4.7173   -8.6751   -2.1361 C.ar      1 RES1    0.0000
     22 N1        -4.5046   -3.6156   -5.0068 N.am      1 RES1    0.0000
     23 N2        -2.9623  -10.7555    0.3735 N.pl3     1 RES1    0.0000
     24 O1        -4.6927   -4.8038   -6.9888 O.2       1 RES1    0.0000
     25 O2        -4.2940   -1.8388   -3.5277 O.2       1 RES1    0.0000
     26 O3        -5.7175   -5.2550   -1.4335 O.3       1 RES1    0.0000
     27 H2        -6.3574   -5.5754   -0.9935 H         1 RES1    0.0000
     28 O4        -3.0185  -11.8503   -0.2132 O.2       1 RES1    0.0000
     29 O5        -2.5243  -10.6206    1.5136 O.2       1 RES1    0.0000
     30 H3        -3.3837   -2.8592   -8.9117 H         1 RES1    0.0000
     31 H4        -2.5159   -0.7052   -9.3061 H         1 RES1    0.0000
     32 H5        -2.2551    0.8245   -7.5435 H         1 RES1    0.0000
     33 H6        -3.0363    0.2391   -5.2509 H         1 RES1    0.0000
     34 H7        -5.6963   -3.9467   -3.3280 H         1 RES1    0.0000
     35 H8        -5.8774   -5.0969   -4.6962 H         1 RES1    0.0000
     36 H9        -2.9907   -7.0677   -3.9813 H         1 RES1    0.0000
     37 H10       -4.4708   -6.9167   -4.9057 H         1 RES1    0.0000
     38 H11       -3.0755   -6.0704   -5.0290 H         1 RES1    0.0000
     39 H12       -3.5581   -3.9215   -1.9845 H         1 RES1    0.0000
     40 H13       -1.3455   -4.4437   -1.8982 H         1 RES1    0.0000
     41 H14       -1.5370   -5.8056   -3.1924 H         1 RES1    0.0000
     42 H15       -3.7645   -6.2597   -0.0740 H         1 RES1    0.0000
     43 H16       -2.9097   -8.2263    1.0107 H         1 RES1    0.0000
     44 H17       -4.3363  -10.7470   -1.9105 H         1 RES1    0.0000
     45 H18       -5.2159   -8.7955   -2.9336 H         1 RES1    0.0000
@<TRIPOS>BOND
     1    1    2 1
     2    2    3 ar
     3    3    4 ar
     4    4    5 ar
     5    5    6 ar
     6    6    7 ar
     7    7    2 ar
     8    8    7 1
     9    9   10 1
    10   10   11 1
    11   11   36 1
    12   12   10 1
    13   13   12 2
    14   14   10 1
    15   15   14 1
    16   16   14 1
    17   17   16 ar
    18   18   17 ar
    19   19   18 ar
    20   20   19 ar
    21   21   16 ar
    22   22    1 1
    23   23   19 1
    24   24    1 2
    25   25    8 2
    26   26   14 1
    27   27   26 1
    28   28   23 2
    29   29   23 2
    30   30    3 1
    31   31    4 1
    32   32    5 1
    33   33    6 1
    34   34    9 1
    35   35    9 1
    36   37   11 1
    37   38   11 1
    38   39   12 1
    39   40   13 1
    40   41   13 1
    41   42   17 1
    42   43   18 1
    43   44   20 1
    44   45   21 1
    45    8   22 1
    46    9   22 1
    47   20   21 ar
@<TRIPOS>SUBSTRUCTURE
     1 RES1 1

@<TRIPOS>CRYSIN
   7.3019    9.6150   13.0280  75.9580  75.4730  80.7100   2 1

