# MOL2 file generated by ConQuest
# Please check atom types

@<TRIPOS>MOLECULE
UXUFUP
    32    32     1
SMALL
NO_CHARGES
****
Generated from CSD

@<TRIPOS>ATOM
      1 O1         8.8073    9.4101    3.6114 O.2       1 RES1    0.0000
      2 O2         3.6488   11.0029    9.9763 O.3       1 RES1    0.0000
      3 H1         3.4546   11.8649   10.2950 H         1 RES1    0.0000
      4 N1         6.2985   11.0766    6.5267 N.3       1 RES1    0.0000
      5 N2         6.2314    8.8850    6.8011 N.2       1 RES1    0.0000
      6 N3         7.6743    8.1452    5.0726 N.am      1 RES1    0.0000
      7 H2         7.5140    7.3332    5.3470 H         1 RES1    0.0000
      8 N4         4.5025   11.2367    8.8904 N.2       1 RES1    0.0000
      9 C1         5.8031   10.0586    7.2636 C.2       1 RES1    0.0000
     10 C2         7.0286    9.1880    5.7434 C.2       1 RES1    0.0000
     11 C3         7.0785   10.5301    5.5392 C.2       1 RES1    0.0000
     12 H3         7.5174   11.0409    4.8630 H         1 RES1    0.0000
     13 C4         6.1066   12.5149    6.7325 C.3       1 RES1    0.0000
     14 H4         5.1476   12.7200    6.7342 H         1 RES1    0.0000
     15 H5         6.5443   13.0102    6.0093 H         1 RES1    0.0000
     16 H6         6.4977   12.7776    7.5914 H         1 RES1    0.0000
     17 C5         4.9088   10.1328    8.4027 C.2       1 RES1    0.0000
     18 C6         8.5876    8.3027    4.0830 C.2       1 RES1    0.0000
     19 C7         9.3593    7.0539    3.6496 C.3       1 RES1    0.0000
     20 C8         8.6526    5.7448    4.0116 C.3       1 RES1    0.0000
     21 H7         8.6234    5.6477    4.9869 H         1 RES1    0.0000
     22 H8         9.1435    4.9904    3.6233 H         1 RES1    0.0000
     23 H9         7.7399    5.7576    3.6564 H         1 RES1    0.0000
     24 C9        10.7185    7.1235    4.3588 C.3       1 RES1    0.0000
     25 H10       11.1532    7.9768    4.1499 H         1 RES1    0.0000
     26 H11       11.2849    6.3847    4.0519 H         1 RES1    0.0000
     27 H12       10.5862    7.0530    5.3269 H         1 RES1    0.0000
     28 C10        9.5633    7.1263    2.1323 C.3       1 RES1    0.0000
     29 H13        8.6932    7.0924    1.6836 H         1 RES1    0.0000
     30 H14       10.1121    6.3691    1.8394 H         1 RES1    0.0000
     31 H15       10.0161    7.9648    1.9032 H         1 RES1    0.0000
     32 H16        4.6142    9.2740    8.7519 H         1 RES1    0.0000
@<TRIPOS>BOND
     1    1   18 2
     2    2    3 1
     3    4    9 1
     4    5    9 2
     5    6    7 1
     6    8    2 1
     7    9   17 1
     8   10    5 1
     9   11    4 1
    10   12   11 1
    11   13    4 1
    12   14   13 1
    13   15   13 1
    14   16   13 1
    15   17    8 2
    16   18    6 1
    17   19   18 1
    18   20   19 1
    19   21   20 1
    20   22   20 1
    21   23   20 1
    22   24   19 1
    23   25   24 1
    24   26   24 1
    25   27   24 1
    26   28   19 1
    27   29   28 1
    28   30   28 1
    29   31   28 1
    30   32   17 1
    31    6   10 1
    32   10   11 2
@<TRIPOS>SUBSTRUCTURE
     1 RES1 1

@<TRIPOS>CRYSIN
  10.8220    9.1550   11.8610  90.0000  95.5110  90.0000  14 1

