# MOL2 file generated by ConQuest
# Please check atom types

@<TRIPOS>MOLECULE
UXUFOJ
    32    32     2
SMALL
NO_CHARGES
****
Generated from CSD

@<TRIPOS>ATOM
      1 O1         0.3935   11.6801    8.0741 O.2       1 RES1    0.0000
      2 O2        -1.7089   11.2429    8.4431 O.2       1 RES1    0.0000
      3 O3         0.9863    6.6072    4.4121 O.2       1 RES1    0.0000
      4 N1        -1.0543    8.0949    5.9209 N.3       1 RES1    0.0000
      5 N2         0.6249    9.4546    6.5130 N.2       1 RES1    0.0000
      6 N3        -0.6144   10.9936    7.9262 N.pl3     1 RES1    0.0000
      7 C1         0.2855    8.3825    5.8099 C.2       1 RES1    0.0000
      8 C2        -0.5365    9.8317    7.0865 C.2       1 RES1    0.0000
      9 C3        -1.5884    9.0198    6.7434 C.2       1 RES1    0.0000
     10 H1        -2.4929    9.0933    7.0231 H         1 RES1    0.0000
     11 C4        -1.8002    6.9887    5.3052 C.3       1 RES1    0.0000
     12 H2        -2.7548    7.0904    5.5008 H         1 RES1    0.0000
     13 H3        -1.4811    6.1365    5.6694 H         1 RES1    0.0000
     14 H4        -1.6615    7.0015    4.3356 H         1 RES1    0.0000
     15 C5         1.2595    7.6159    5.0227 C.2       1 RES1    0.0000
     16 H5         2.1552    7.9302    4.9904 H         1 RES1    0.0000
     17 O4         6.0553   -0.7215    9.8336 O.2       2 RES2    0.0000
     18 O5         5.6590    2.7595    4.6325 O.2       2 RES2    0.0000
     19 O6         3.5462    2.3058    4.3816 O.2       2 RES2    0.0000
     20 N4         4.0501    0.2394    7.8905 N.3       2 RES2    0.0000
     21 N5         5.7803    1.2420    6.8829 N.2       2 RES2    0.0000
     22 N6         4.6136    2.2314    4.9983 N.pl3     2 RES2    0.0000
     23 C6         5.3980    0.4905    7.9047 C.2       2 RES2    0.0000
     24 C7         4.6283    1.4653    6.2126 C.2       2 RES2    0.0000
     25 C8         3.5421    0.8626    6.8039 C.2       2 RES2    0.0000
     26 H6         2.6376    0.8807    6.5139 H         2 RES2    0.0000
     27 C9         6.3429    0.0052    8.9112 C.2       2 RES2    0.0000
     28 H7         7.2488    0.2814    8.8343 H         2 RES2    0.0000
     29 C10        3.2612   -0.5117    8.8771 C.3       2 RES2    0.0000
     30 H8         2.3160   -0.4989    8.6172 H         2 RES2    0.0000
     31 H9         3.3627   -0.0983    9.7603 H         2 RES2    0.0000
     32 H10        3.5777   -1.4382    8.9115 H         2 RES2    0.0000
@<TRIPOS>BOND
     1    1    6 2
     2    2    6 2
     3    3   15 2
     4    4    7 1
     5    5    7 2
     6    6    8 1
     7    7   15 1
     8    8    5 1
     9    9    4 1
    10   10    9 1
    11   11    4 1
    12   12   11 1
    13   13   11 1
    14   14   11 1
    15   15   16 1
    16   17   27 2
    17   18   22 2
    18   19   22 2
    19   20   23 1
    20   21   23 2
    21   22   24 1
    22   23   27 1
    23   24   21 1
    24   25   20 1
    25   26   25 1
    26   27   28 1
    27   29   20 1
    28   30   29 1
    29   31   29 1
    30   32   29 1
    31    8    9 2
    32   24   25 2
@<TRIPOS>SUBSTRUCTURE
     1 RES1 1
     2 RES2 17

@<TRIPOS>CRYSIN
  11.4305   10.4593   11.0941  90.0000  96.4620  90.0000  14 1

