# MOL2 file generated by ConQuest
# Please check atom types

@<TRIPOS>MOLECULE
UXUHUS
    36    38     1
SMALL
NO_CHARGES
****
Generated from CSD

@<TRIPOS>ATOM
      1 C1         1.1017    7.3863    8.3624 C.2       1 RES1    0.0000
      2 C2         0.8042    6.0934    8.6174 C.2       1 RES1    0.0000
      3 C3        -0.5357    5.4716    8.3045 C.3       1 RES1    0.0000
      4 H1        -0.9032    5.1080    9.1383 H         1 RES1    0.0000
      5 C4        -1.4691    6.5279    7.8119 C.2       1 RES1    0.0000
      6 C5        -1.0915    7.7845    7.5588 C.2       1 RES1    0.0000
      7 C6        -1.9483    8.8649    7.0326 C.3       1 RES1    0.0000
      8 H2        -1.4531    9.3785    6.3751 H         1 RES1    0.0000
      9 H3        -2.1957    9.4616    7.7547 H         1 RES1    0.0000
     10 C7        -3.1970    8.2992    6.3949 C.3       1 RES1    0.0000
     11 H4        -3.8309    9.0168    6.2356 H         1 RES1    0.0000
     12 H5        -2.9714    7.9043    5.5380 H         1 RES1    0.0000
     13 C8        -3.8354    7.2576    7.2723 C.3       1 RES1    0.0000
     14 H6        -4.1904    7.6880    8.0648 H         1 RES1    0.0000
     15 H7        -4.5792    6.8561    6.7956 H         1 RES1    0.0000
     16 C9        -2.8910    6.1828    7.6871 C.2       1 RES1    0.0000
     17 C10        1.7941    5.2555    9.1451 C.1       1 RES1    0.0000
     18 C11       -0.3955    4.3213    7.3106 C.ar      1 RES1    0.0000
     19 C12       -0.7081    3.0389    7.6941 C.ar      1 RES1    0.0000
     20 H8        -1.0512    2.8884    8.5453 H         1 RES1    0.0000
     21 C13       -0.5237    1.9766    6.8432 C.ar      1 RES1    0.0000
     22 H9        -0.7365    1.1125    7.1153 H         1 RES1    0.0000
     23 C14       -0.0286    2.2062    5.6035 C.ar      1 RES1    0.0000
     24 C15        0.2668    3.4730    5.1675 C.ar      1 RES1    0.0000
     25 H10        0.5890    3.6161    4.3075 H         1 RES1    0.0000
     26 C16        0.0769    4.5256    6.0333 C.ar      1 RES1    0.0000
     27 H11        0.2697    5.3897    5.7511 H         1 RES1    0.0000
     28 O1         0.1955    8.2364    7.7929 O.3       1 RES1    0.0000
     29 O2        -3.2784    5.0623    7.9851 O.2       1 RES1    0.0000
     30 O3         0.6722    1.2268    3.6611 O.2       1 RES1    0.0000
     31 O4         0.0349   -0.0133    5.1235 O.2       1 RES1    0.0000
     32 N1         2.2482    8.0265    8.6273 N.3       1 RES1    0.0000
     33 H12        2.8979    7.6070    9.0026 H         1 RES1    0.0000
     34 H13        2.3345    8.8571    8.4213 H         1 RES1    0.0000
     35 N2         2.5736    4.5212    9.5768 N.1       1 RES1    0.0000
     36 N3         0.2286    1.0604    4.7183 N.pl3     1 RES1    0.0000
@<TRIPOS>BOND
     1    1    2 2
     2    2    3 1
     3    3    4 1
     4    5    3 1
     5    6    5 2
     6    7    6 1
     7    8    7 1
     8    9    7 1
     9   10    7 1
    10   11   10 1
    11   12   10 1
    12   13   10 1
    13   14   13 1
    14   15   13 1
    15   16    5 1
    16   17    2 1
    17   18    3 1
    18   19   18 ar
    19   20   19 1
    20   21   19 ar
    21   22   21 1
    22   23   21 ar
    23   24   23 ar
    24   25   24 1
    25   26   18 ar
    26   27   26 1
    27   28    1 1
    28   29   16 2
    29   30   36 2
    30   31   36 2
    31   32    1 1
    32   33   32 1
    33   34   32 1
    34   35   17 3
    35   36   23 1
    36    6   28 1
    37   13   16 1
    38   24   26 ar
@<TRIPOS>SUBSTRUCTURE
     1 RES1 1

@<TRIPOS>CRYSIN
  13.8536   11.0922   20.4320  90.0000 108.4910  90.0000  15 1

