# MOL2 file generated by ConQuest
# Please check atom types

@<TRIPOS>MOLECULE
UXUKUV
    26    26     2
SMALL
NO_CHARGES
****
Generated from CSD

@<TRIPOS>ATOM
      1 O1         9.4885    0.5042    1.4816 O.2       1 RES1    0.0000
      2 O2        12.7445    0.1538    4.8065 O.2       1 RES1    0.0000
      3 N1        11.7617    0.7216    5.2565 N.pl3     1 RES1    0.0000
      4 O3        11.2602    0.5047    6.3511 O.2       1 RES1    0.0000
      5 O4        10.5041   -0.6399    3.0365 O.2       1 RES1    0.0000
      6 N2        10.1199    0.4166    2.5439 N.pl3     1 RES1    0.0000
      7 N3        10.5554    3.6839    3.8435 N.pl3     1 RES1    0.0000
      8 H1        10.4617    4.5589    3.8406 H         1 RES1    0.0000
      9 N4        11.2278    3.0206    4.8198 N.2       1 RES1    0.0000
     10 C1        10.0527    2.9071    2.8963 C.2       1 RES1    0.0000
     11 H2         9.5423    3.1770    2.1418 H         1 RES1    0.0000
     12 C2        10.4273    1.6227    3.2363 C.2       1 RES1    0.0000
     13 C3        11.1421    1.7621    4.4381 C.2       1 RES1    0.0000
     14 O5         6.7755    2.1806    1.6514 O.2       2 RES2    0.0000
     15 N5         7.1813    2.1532    0.4984 N.pl3     2 RES2    0.0000
     16 O6         5.1359    3.4942   -1.0135 O.2       2 RES2    0.0000
     17 O7         4.2846    2.5260   -2.7673 O.2       2 RES2    0.0000
     18 N6         6.9969   -0.1126   -0.2821 N.2       2 RES2    0.0000
     19 N7         4.9870    2.5245   -1.7479 N.pl3     2 RES2    0.0000
     20 O8         8.0327    2.8906    0.0174 O.2       2 RES2    0.0000
     21 N8         6.2841   -0.7451   -1.2594 N.pl3     2 RES2    0.0000
     22 H3         6.3509   -1.6078   -1.4204 H         2 RES2    0.0000
     23 C4         5.6572    1.3125   -1.4064 C.2       2 RES2    0.0000
     24 C5         5.4774    0.0615   -1.9480 C.2       2 RES2    0.0000
     25 H4         4.8992   -0.1776   -2.6626 H         2 RES2    0.0000
     26 C6         6.6091    1.1441   -0.3864 C.2       2 RES2    0.0000
@<TRIPOS>BOND
     1    1    6 2
     2    2    3 2
     3    3    4 2
     4    5    6 2
     5    6   12 1
     6    7    8 1
     7    9    7 1
     8   10    7 1
     9   11   10 1
    10   12   10 2
    11   13    3 1
    12   14   15 2
    13   15   20 2
    14   16   19 2
    15   17   19 2
    16   18   21 1
    17   19   23 1
    18   21   22 1
    19   23   24 2
    20   24   21 1
    21   25   24 1
    22   26   15 1
    23    9   13 2
    24   12   13 1
    25   18   26 2
    26   23   26 1
@<TRIPOS>SUBSTRUCTURE
     1 RES1 1
     2 RES2 14

@<TRIPOS>CRYSIN
   9.7013   12.0797    9.7587  90.0000  93.9620  90.0000  14 1

