# MOL2 file generated by ConQuest
# Please check atom types

@<TRIPOS>MOLECULE
UXUKUV01
    26    26     2
SMALL
NO_CHARGES
****
Generated from CSD

@<TRIPOS>ATOM
      1 O1         6.2520   -3.1812    4.8424 O.2       1 RES1    0.0000
      2 C1         8.6756   -4.7215    6.2356 C.2       1 RES1    0.0000
      3 C2         7.7107   -4.8914    5.2385 C.2       1 RES1    0.0000
      4 N1         9.3482   -3.5148    6.5772 N.pl3     1 RES1    0.0000
      5 N2         8.0449   -6.7761    6.0977 N.pl3     1 RES1    0.0000
      6 N3         7.1229   -3.8795    4.3687 N.pl3     1 RES1    0.0000
      7 C3         8.8630   -5.9729    6.7746 C.2       1 RES1    0.0000
      8 N4         7.3159   -6.1409    5.1395 N.2       1 RES1    0.0000
      9 O2         9.1799   -2.5442    5.8580 O.2       1 RES1    0.0000
     10 O3        10.0706   -3.5171    7.5717 O.2       1 RES1    0.0000
     11 O4         7.5319   -3.8250    3.2269 O.2       1 RES1    0.0000
     12 H1         9.4107   -6.2859    7.4881 H         1 RES1    0.0000
     13 H2         7.9481   -7.6012    6.1597 H         1 RES1    0.0000
     14 N5         7.0268    0.7018    5.2378 N.pl3     2 RES2    0.0000
     15 O5         4.7052    0.4779    1.5066 O.2       2 RES2    0.0000
     16 N6         6.4955    2.9979    4.8008 N.2       2 RES2    0.0000
     17 N7         5.8065    3.6654    3.8399 N.3       2 RES2    0.0000
     18 C4         6.3926    1.7382    4.4328 C.2       2 RES2    0.0000
     19 C5         5.2852    2.8806    2.9044 C.2       2 RES2    0.0000
     20 C6         5.6565    1.5985    3.2502 C.2       2 RES2    0.0000
     21 N8         5.3242    0.3970    2.5674 N.pl3     2 RES2    0.0000
     22 O6         7.9933    0.1437    4.7761 O.2       2 RES2    0.0000
     23 O7         5.6868   -0.6561    3.0734 O.2       2 RES2    0.0000
     24 O8         6.5471    0.4815    6.3328 O.2       2 RES2    0.0000
     25 H3         4.7957    3.2020    2.1971 H         2 RES2    0.0000
     26 H4         5.7628    4.5366    3.8938 H         2 RES2    0.0000
@<TRIPOS>BOND
     1    1    6 2
     2    2    3 1
     3    3    6 1
     4    4    2 1
     5    5    7 1
     6    6   11 2
     7    7    2 2
     8    8    3 2
     9    9    4 2
    10   10    4 2
    11   12    7 1
    12   13    5 1
    13   14   18 1
    14   15   21 2
    15   16   17 1
    16   17   19 1
    17   18   16 2
    18   19   20 2
    19   20   18 1
    20   21   20 1
    21   22   14 2
    22   23   21 2
    23   24   14 2
    24   25   19 1
    25   26   17 1
    26    5    8 1
@<TRIPOS>SUBSTRUCTURE
     1 RES1 1
     2 RES2 14

@<TRIPOS>CRYSIN
   9.8326   12.0559    9.7190  90.0000  93.9590  90.0000  14 1

