# MOL2 file generated by ConQuest
# Please check atom types

@<TRIPOS>MOLECULE
UXULEF
    96    98     2
SMALL
NO_CHARGES
****
Generated from CSD

@<TRIPOS>ATOM
      1 O1         2.4654    9.4687    1.7824 O.3       1 RES1    0.0000
      2 N1         3.3501    8.5779    2.4210 N.am      1 RES1    0.0000
      3 C1         4.6920    8.8538    2.2370 C.2       1 RES1    0.0000
      4 O2         5.5338    8.2411    2.8963 O.2       1 RES1    0.0000
      5 C2         5.0661    9.8834    1.2441 C.2       1 RES1    0.0000
      6 C3         6.3359   10.1961    1.0479 C.2       1 RES1    0.0000
      7 C4         6.8417   11.2939    0.1800 C.3       1 RES1    0.0000
      8 C5         2.9014    8.1855    3.7872 C.3       1 RES1    0.0000
      9 C6         1.8727    7.0682    3.7603 C.ar      1 RES1    0.0000
     10 C7         2.2264    5.7600    3.2977 C.ar      1 RES1    0.0000
     11 C8         1.2218    4.7459    3.2655 C.ar      1 RES1    0.0000
     12 C9        -0.0802    5.0391    3.7307 C.ar      1 RES1    0.0000
     13 C10       -0.3788    6.2694    4.2073 C.ar      1 RES1    0.0000
     14 C11        0.5956    7.2923    4.2204 C.ar      1 RES1    0.0000
     15 C12        1.5586    3.4533    2.8054 C.ar      1 RES1    0.0000
     16 C13        2.8221    3.1503    2.4094 C.ar      1 RES1    0.0000
     17 C14        3.8246    4.1468    2.4476 C.ar      1 RES1    0.0000
     18 C15        3.5379    5.4151    2.8687 C.ar      1 RES1    0.0000
     19 C16        2.4701    9.4217    4.5550 C.3       1 RES1    0.0000
     20 C17        1.7157    8.9434    0.6089 C.3       1 RES1    0.0000
     21 C18        2.3698    7.7267    0.0099 C.3       1 RES1    0.0000
     22 C19        1.7487   10.1007   -0.3657 C.3       1 RES1    0.0000
     23 C20        0.3013    8.6492    1.0615 C.3       1 RES1    0.0000
     24 O3        -0.4278    7.5590   10.7702 O.2       2 RES2    0.0000
     25 C21        0.7162    7.1802   10.5163 C.2       2 RES2    0.0000
     26 N2         1.6133    8.0745    9.9425 N.am      2 RES2    0.0000
     27 O4         2.9537    7.6237    9.9209 O.3       2 RES2    0.0000
     28 C22        3.4864    7.2962    8.5745 C.3       2 RES2    0.0000
     29 C23        2.4453    6.6474    7.6925 C.3       2 RES2    0.0000
     30 C24        4.0527    8.5469    7.9339 C.3       2 RES2    0.0000
     31 C25        4.6111    6.3454    8.9359 C.3       2 RES2    0.0000
     32 C26        1.4641    9.5094   10.3162 C.3       2 RES2    0.0000
     33 C27        1.6652   10.4796    9.1657 C.ar      2 RES2    0.0000
     34 C28        0.7774   10.4523    8.0429 C.ar      2 RES2    0.0000
     35 C29       -0.2592    9.4821    7.8964 C.ar      2 RES2    0.0000
     36 C30       -1.1107    9.5220    6.8212 C.ar      2 RES2    0.0000
     37 C31       -0.9930   10.5195    5.8413 C.ar      2 RES2    0.0000
     38 C32       -0.0157   11.4479    5.9394 C.ar      2 RES2    0.0000
     39 C33        0.9046   11.4459    7.0246 C.ar      2 RES2    0.0000
     40 C34        1.9385   12.4074    7.1346 C.ar      2 RES2    0.0000
     41 C35        2.7741   12.4103    8.1975 C.ar      2 RES2    0.0000
     42 C36        2.6308   11.4508    9.2282 C.ar      2 RES2    0.0000
     43 C37        2.3115    9.7948   11.5559 C.3       2 RES2    0.0000
     44 C38        1.1543    5.7950   10.7831 C.2       2 RES2    0.0000
     45 C39        0.3365    4.9690   11.4276 C.2       2 RES2    0.0000
     46 C40        0.6577    3.5682   11.8215 C.3       2 RES2    0.0000
     47 H1         4.3722   10.3286    0.7469 H         1 RES1    0.0000
     48 H2         6.9952    9.6526    1.5377 H         1 RES1    0.0000
     49 H3         7.4959   10.9491   -0.4748 H         1 RES1    0.0000
     50 H4         7.2829   11.9973    0.7256 H         1 RES1    0.0000
     51 H5         6.0992   11.6933   -0.3203 H         1 RES1    0.0000
     52 H6         3.7179    7.8280    4.2362 H         1 RES1    0.0000
     53 H7        -0.7603    4.3514    3.6892 H         1 RES1    0.0000
     54 H8        -1.2884    6.4535    4.5438 H         1 RES1    0.0000
     55 H9         0.3538    8.1797    4.5679 H         1 RES1    0.0000
     56 H10        0.8837    2.7948    2.7665 H         1 RES1    0.0000
     57 H11        3.0326    2.2376    2.1075 H         1 RES1    0.0000
     58 H12        4.7462    3.9393    2.1741 H         1 RES1    0.0000
     59 H13        4.2088    6.0970    2.8927 H         1 RES1    0.0000
     60 H14        2.2006    9.1655    5.4650 H         1 RES1    0.0000
     61 H15        3.2139   10.0490    4.5509 H         1 RES1    0.0000
     62 H16        1.6901    9.8035    4.0775 H         1 RES1    0.0000
     63 H17        1.9280    7.5290   -0.8433 H         1 RES1    0.0000
     64 H18        3.3429    7.9176   -0.1431 H         1 RES1    0.0000
     65 H19        2.2400    6.9776    0.6250 H         1 RES1    0.0000
     66 H20        1.1580    9.8756   -1.1239 H         1 RES1    0.0000
     67 H21        1.4029   10.8994    0.0865 H         1 RES1    0.0000
     68 H22        2.7018   10.2312   -0.6718 H         1 RES1    0.0000
     69 H23       -0.2411    8.5236    0.2523 H         1 RES1    0.0000
     70 H24       -0.0318    9.3905    1.5675 H         1 RES1    0.0000
     71 H25        0.3127    7.8300    1.6072 H         1 RES1    0.0000
     72 H26        2.8641    6.3620    6.8667 H         2 RES2    0.0000
     73 H27        1.7073    7.2533    7.5059 H         2 RES2    0.0000
     74 H28        2.0963    5.8720    8.1734 H         2 RES2    0.0000
     75 H29        4.5327    8.2898    7.1105 H         2 RES2    0.0000
     76 H30        4.6441    8.9658    8.5660 H         2 RES2    0.0000
     77 H31        3.3011    9.1577    7.7114 H         2 RES2    0.0000
     78 H32        5.0913    6.1009    8.1111 H         2 RES2    0.0000
     79 H33        5.2113    6.7847    9.5567 H         2 RES2    0.0000
     80 H34        4.2123    5.5330    9.3328 H         2 RES2    0.0000
     81 H35        0.4789    9.6165   10.5757 H         2 RES2    0.0000
     82 H36       -0.3324    8.8070    8.5901 H         2 RES2    0.0000
     83 H37       -1.8223    8.8499    6.7335 H         2 RES2    0.0000
     84 H38       -1.5939   10.5624    5.0880 H         2 RES2    0.0000
     85 H39        0.0859   12.1229    5.2694 H         2 RES2    0.0000
     86 H40        2.0159   13.0756    6.4415 H         2 RES2    0.0000
     87 H41        3.4818   13.0620    8.2684 H         2 RES2    0.0000
     88 H42        3.2140   11.4888    9.9918 H         2 RES2    0.0000
     89 H43        2.1560   10.7319   11.8640 H         2 RES2    0.0000
     90 H44        2.1133    9.1616   12.2694 H         2 RES2    0.0000
     91 H45        3.2730    9.7120   11.3311 H         2 RES2    0.0000
     92 H46        2.0343    5.5223   10.5176 H         2 RES2    0.0000
     93 H47       -0.5409    5.3099   11.6514 H         2 RES2    0.0000
     94 H48       -0.1053    3.1230   12.2438 H         2 RES2    0.0000
     95 H49        1.3688    3.6003   12.4706 H         2 RES2    0.0000
     96 H50        0.9979    3.0373   11.1058 H         2 RES2    0.0000
@<TRIPOS>BOND
     1    1    2 1
     2    2    3 1
     3    3    4 2
     4    5    3 1
     5    6    5 2
     6    7    6 1
     7    8    2 1
     8    9    8 1
     9   10    9 ar
    10   11   10 ar
    11   12   11 ar
    12   13   12 ar
    13   14    9 ar
    14   15   11 ar
    15   16   15 ar
    16   17   16 ar
    17   18   10 ar
    18   19    8 1
    19   20    1 1
    20   21   20 1
    21   22   20 1
    22   23   20 1
    23   24   25 2
    24   25   26 1
    25   26   27 1
    26   27   28 1
    27   28   29 1
    28   29   72 1
    29   30   28 1
    30   31   28 1
    31   32   26 1
    32   33   32 1
    33   34   33 ar
    34   35   34 ar
    35   36   35 ar
    36   37   36 ar
    37   38   37 ar
    38   39   34 ar
    39   40   39 ar
    40   41   40 ar
    41   42   33 ar
    42   43   32 1
    43   44   25 1
    44   45   44 2
    45   46   45 1
    46   47    5 1
    47   48    6 1
    48   49    7 1
    49   50    7 1
    50   51    7 1
    51   52    8 1
    52   53   12 1
    53   54   13 1
    54   55   14 1
    55   56   15 1
    56   57   16 1
    57   58   17 1
    58   59   18 1
    59   60   19 1
    60   61   19 1
    61   62   19 1
    62   63   21 1
    63   64   21 1
    64   65   21 1
    65   66   22 1
    66   67   22 1
    67   68   22 1
    68   69   23 1
    69   70   23 1
    70   71   23 1
    71   73   29 1
    72   74   29 1
    73   75   30 1
    74   76   30 1
    75   77   30 1
    76   78   31 1
    77   79   31 1
    78   80   31 1
    79   81   32 1
    80   82   35 1
    81   83   36 1
    82   84   37 1
    83   85   38 1
    84   86   40 1
    85   87   41 1
    86   88   42 1
    87   89   43 1
    88   90   43 1
    89   91   43 1
    90   92   44 1
    91   93   45 1
    92   94   46 1
    93   95   46 1
    94   96   46 1
    95   13   14 ar
    96   17   18 ar
    97   38   39 ar
    98   41   42 ar
@<TRIPOS>SUBSTRUCTURE
     1 RES1 1
     2 RES2 24

@<TRIPOS>CRYSIN
  13.1038    9.7412   14.4605  90.0000 101.4490  90.0000   4 1

