# MOL2 file generated by ConQuest
# Please check atom types

@<TRIPOS>MOLECULE
UXULOP
    81    84     1
SMALL
NO_CHARGES
****
Generated from CSD

@<TRIPOS>ATOM
      1 O1         1.4550    3.8503    3.8939 O.3       1 RES1    0.0000
      2 N1         1.6541    2.4518    3.8746 N.am      1 RES1    0.0000
      3 C1         0.9083    1.7684    2.9351 C.2       1 RES1    0.0000
      4 O2         1.1731    0.5836    2.7021 O.2       1 RES1    0.0000
      5 C2        -0.2084    2.4741    2.2065 C.3       1 RES1    0.0000
      6 C3        -1.3506    1.5015    1.8533 C.3       1 RES1    0.0000
      7 N2        -2.1930    1.9001    0.7130 N.3       1 RES1    0.0000
      8 C4        -2.4859    3.3299    0.6425 C.3       1 RES1    0.0000
      9 C5        -3.8043    3.6204   -0.0417 C.ar      1 RES1    0.0000
     10 C6        -4.9345    2.8581    0.2496 C.ar      1 RES1    0.0000
     11 C7        -6.1568    3.1565   -0.3421 C.ar      1 RES1    0.0000
     12 C8        -6.2566    4.2090   -1.2365 C.ar      1 RES1    0.0000
     13 C9        -5.1353    4.9588   -1.5443 C.ar      1 RES1    0.0000
     14 C10       -3.9176    4.6667   -0.9518 C.ar      1 RES1    0.0000
     15 C11       -1.8251    1.3485   -0.6093 C.3       1 RES1    0.0000
     16 C12       -0.4687    1.7888   -1.1560 C.ar      1 RES1    0.0000
     17 C13       -0.3953    2.8526   -2.0540 C.ar      1 RES1    0.0000
     18 C14        0.8124    3.2324   -2.6176 C.ar      1 RES1    0.0000
     19 C15        1.9729    2.5629   -2.2915 C.ar      1 RES1    0.0000
     20 C16        1.9247    1.5158   -1.3738 C.ar      1 RES1    0.0000
     21 C17        0.7175    1.1447   -0.8094 C.ar      1 RES1    0.0000
     22 C18       -2.0246   -0.1633   -0.6482 C.3       1 RES1    0.0000
     23 C19       -2.2380    1.2598    3.0770 C.3       1 RES1    0.0000
     24 C20        3.0714    2.0335    4.0414 C.3       1 RES1    0.0000
     25 C21        3.5016    2.0262    5.4957 C.ar      1 RES1    0.0000
     26 C22        2.8315    1.1488    6.4176 C.ar      1 RES1    0.0000
     27 C23        3.2046    1.2012    7.7981 C.ar      1 RES1    0.0000
     28 C24        4.2301    2.0757    8.2086 C.ar      1 RES1    0.0000
     29 C25        4.8821    2.8537    7.3054 C.ar      1 RES1    0.0000
     30 C26        4.5164    2.8223    5.9431 C.ar      1 RES1    0.0000
     31 C27        2.5415    0.3461    8.7130 C.ar      1 RES1    0.0000
     32 C28        1.5781   -0.5078    8.3070 C.ar      1 RES1    0.0000
     33 C29        1.2072   -0.5697    6.9472 C.ar      1 RES1    0.0000
     34 C30        1.8185    0.2477    6.0294 C.ar      1 RES1    0.0000
     35 C31        3.9532    2.8548    3.1033 C.3       1 RES1    0.0000
     36 C32        0.7781    4.4051    5.0982 C.3       1 RES1    0.0000
     37 C33        1.8146    4.8112    6.1365 C.3       1 RES1    0.0000
     38 C34        0.1042    5.6369    4.5292 C.3       1 RES1    0.0000
     39 C35       -0.2196    3.4418    5.6890 C.3       1 RES1    0.0000
     40 H1        -0.5243    3.2726    2.7101 H         1 RES1    0.0000
     41 H2         0.1728    2.7843    1.3480 H         1 RES1    0.0000
     42 H3        -0.9280    0.6402    1.5931 H         1 RES1    0.0000
     43 H4        -2.5353    3.6892    1.5789 H         1 RES1    0.0000
     44 H5        -1.7458    3.7652    0.1709 H         1 RES1    0.0000
     45 H6        -4.8815    2.1257    0.8389 H         1 RES1    0.0000
     46 H7        -6.9156    2.6031   -0.1249 H         1 RES1    0.0000
     47 H8        -7.0952    4.4141   -1.6425 H         1 RES1    0.0000
     48 H9        -5.1913    5.6597   -2.1798 H         1 RES1    0.0000
     49 H10       -3.1505    5.1942   -1.1830 H         1 RES1    0.0000
     50 H11       -2.5226    1.7274   -1.1924 H         1 RES1    0.0000
     51 H12       -1.1893    3.3507   -2.2953 H         1 RES1    0.0000
     52 H13        0.8374    3.9735   -3.2391 H         1 RES1    0.0000
     53 H14        2.8033    2.8255   -2.6759 H         1 RES1    0.0000
     54 H15        2.7310    1.0601   -1.1147 H         1 RES1    0.0000
     55 H16        0.6941    0.4460   -0.1815 H         1 RES1    0.0000
     56 H17       -1.9132   -0.4818   -1.6001 H         1 RES1    0.0000
     57 H18       -2.9257   -0.3364   -0.3075 H         1 RES1    0.0000
     58 H19       -1.3516   -0.5360   -0.0813 H         1 RES1    0.0000
     59 H20       -2.9077    0.5371    2.8691 H         1 RES1    0.0000
     60 H21       -1.6816    0.9581    3.8424 H         1 RES1    0.0000
     61 H22       -2.6956    2.1105    3.3193 H         1 RES1    0.0000
     62 H23        3.1170    1.0742    3.7387 H         1 RES1    0.0000
     63 H24        4.4306    2.1430    9.1377 H         1 RES1    0.0000
     64 H25        5.5868    3.4201    7.5894 H         1 RES1    0.0000
     65 H26        5.0001    3.3398    5.3059 H         1 RES1    0.0000
     66 H27        2.7828    0.3700    9.6243 H         1 RES1    0.0000
     67 H28        1.1584   -1.0872    8.9326 H         1 RES1    0.0000
     68 H29        0.5311   -1.1838    6.7021 H         1 RES1    0.0000
     69 H30        1.5734    0.2376    5.1197 H         1 RES1    0.0000
     70 H31        4.8706    2.5770    3.1767 H         1 RES1    0.0000
     71 H32        3.8962    3.8097    3.3617 H         1 RES1    0.0000
     72 H33        3.6341    2.7572    2.1798 H         1 RES1    0.0000
     73 H34        1.3683    5.3863    6.7976 H         1 RES1    0.0000
     74 H35        2.1869    4.0017    6.5725 H         1 RES1    0.0000
     75 H36        2.4989    5.3375    5.6782 H         1 RES1    0.0000
     76 H37       -0.3542    6.1231    5.2422 H         1 RES1    0.0000
     77 H38        0.8186    6.1751    4.1499 H         1 RES1    0.0000
     78 H39       -0.5188    5.3396    3.8577 H         1 RES1    0.0000
     79 H40       -0.6707    3.8249    6.4559 H         1 RES1    0.0000
     80 H41        0.2443    2.6031    5.9822 H         1 RES1    0.0000
     81 H42       -0.9092    3.1836    5.0313 H         1 RES1    0.0000
@<TRIPOS>BOND
     1    1    2 1
     2    2    3 1
     3    3    4 2
     4    5    3 1
     5    6    5 1
     6    7    6 1
     7    8    7 1
     8    9    8 1
     9   10    9 ar
    10   11   10 ar
    11   12   11 ar
    12   13   12 ar
    13   14    9 ar
    14   15    7 1
    15   16   15 1
    16   17   16 ar
    17   18   17 ar
    18   19   18 ar
    19   20   19 ar
    20   21   16 ar
    21   22   15 1
    22   23    6 1
    23   24    2 1
    24   25   24 1
    25   26   25 ar
    26   27   26 ar
    27   28   27 ar
    28   29   28 ar
    29   30   25 ar
    30   31   27 ar
    31   32   31 ar
    32   33   32 ar
    33   34   26 ar
    34   35   24 1
    35   36    1 1
    36   37   36 1
    37   38   36 1
    38   39   36 1
    39   40    5 1
    40   41    5 1
    41   42    6 1
    42   43    8 1
    43   44    8 1
    44   45   10 1
    45   46   11 1
    46   47   12 1
    47   48   13 1
    48   49   14 1
    49   50   15 1
    50   51   17 1
    51   52   18 1
    52   53   19 1
    53   54   20 1
    54   55   21 1
    55   56   22 1
    56   57   22 1
    57   58   22 1
    58   59   23 1
    59   60   23 1
    60   61   23 1
    61   62   24 1
    62   63   28 1
    63   64   29 1
    64   65   30 1
    65   66   31 1
    66   67   32 1
    67   68   33 1
    68   69   34 1
    69   70   35 1
    70   71   35 1
    71   72   35 1
    72   73   37 1
    73   74   37 1
    74   75   37 1
    75   76   38 1
    76   77   38 1
    77   78   38 1
    78   79   39 1
    79   80   39 1
    80   81   39 1
    81   13   14 ar
    82   20   21 ar
    83   29   30 ar
    84   33   34 ar
@<TRIPOS>SUBSTRUCTURE
     1 RES1 1

@<TRIPOS>CRYSIN
  11.6903   10.8507   12.1629  90.0000 104.3593  90.0000   4 1

