# MOL2 file generated by ConQuest
# Please check atom types

@<TRIPOS>MOLECULE
UXUNAD
    62    64     2
SMALL
NO_CHARGES
****
Generated from CSD

@<TRIPOS>ATOM
      1 C1         4.7205   10.9585    2.8983 C.2       1 RES1    0.0000
      2 C2         6.1038   10.4838    2.9003 C.2       1 RES1    0.0000
      3 C3         6.2416    9.4058    3.9238 C.3       1 RES1    0.0000
      4 H1         6.7121    9.7491    4.7110 H         1 RES1    0.0000
      5 C4         6.9181    8.1392    3.4263 C.3       1 RES1    0.0000
      6 H2         7.8241    8.3369    3.1777 H         1 RES1    0.0000
      7 H3         6.4433    7.7998    2.6636 H         1 RES1    0.0000
      8 H4         6.9144    7.4799    4.1243 H         1 RES1    0.0000
      9 C5         7.0140   10.9936    2.0953 C.2       1 RES1    0.0000
     10 H5         6.7840   11.6750    1.5039 H         1 RES1    0.0000
     11 H6         7.8865   10.6724    2.1170 H         1 RES1    0.0000
     12 C6         4.4874    8.7192    5.5417 C.2       1 RES1    0.0000
     13 C7         2.6868    8.4474    7.0766 C.3       1 RES1    0.0000
     14 H7         3.2874    7.7582    7.4024 H         1 RES1    0.0000
     15 H8         1.8266    8.0352    6.9006 H         1 RES1    0.0000
     16 C8         2.5273    9.5020    8.1219 C.ar      1 RES1    0.0000
     17 C9         1.3674    9.5501    8.8554 C.ar      1 RES1    0.0000
     18 H9         0.6817    8.9507    8.6685 H         1 RES1    0.0000
     19 C10        1.1999   10.4864    9.8745 C.ar      1 RES1    0.0000
     20 H10        0.4093   10.5124   10.3624 H         1 RES1    0.0000
     21 C11        2.2048   11.3590   10.1493 C.ar      1 RES1    0.0000
     22 H11        2.1045   11.9754   10.8380 H         1 RES1    0.0000
     23 C12        3.3738   11.3408    9.4128 C.ar      1 RES1    0.0000
     24 H12        4.0451   11.9598    9.5904 H         1 RES1    0.0000
     25 C13        3.5400   10.4123    8.4246 C.ar      1 RES1    0.0000
     26 H13        4.3384   10.3876    7.9490 H         1 RES1    0.0000
     27 C14        4.7374   -0.6606   -0.7994 C.2       2 RES2    0.0000
     28 C15        3.3149   -0.3342   -0.7262 C.2       2 RES2    0.0000
     29 C16        3.1509    0.8791    0.1393 C.3       2 RES2    0.0000
     30 H14        2.7365    0.6242    0.9898 H         2 RES2    0.0000
     31 C17        2.4093   -1.0221   -1.3804 C.2       2 RES2    0.0000
     32 H15        2.6656   -1.7412   -1.9100 H         2 RES2    0.0000
     33 H16        1.5116   -0.7893   -1.3140 H         2 RES2    0.0000
     34 C18        2.3680    2.0091   -0.4895 C.3       2 RES2    0.0000
     35 H17        1.4530    1.7412   -0.6007 H         2 RES2    0.0000
     36 H18        2.7452    2.2211   -1.3464 H         2 RES2    0.0000
     37 H19        2.4092    2.7816    0.0772 H         2 RES2    0.0000
     38 C19        4.9425    1.7217    1.6454 C.2       2 RES2    0.0000
     39 C20        6.7585    2.1197    3.1158 C.3       2 RES2    0.0000
     40 H20        6.2120    2.8765    3.3785 H         2 RES2    0.0000
     41 H21        7.6635    2.4356    2.9708 H         2 RES2    0.0000
     42 C21        6.7544    1.0897    4.2086 C.ar      2 RES2    0.0000
     43 C22        5.6119    0.8687    4.9675 C.ar      2 RES2    0.0000
     44 H22        4.8415    1.3628    4.8006 H         2 RES2    0.0000
     45 C23        5.6175   -0.0858    5.9726 C.ar      2 RES2    0.0000
     46 H23        4.8493   -0.2341    6.4759 H         2 RES2    0.0000
     47 C24        6.7559   -0.8154    6.2258 C.ar      2 RES2    0.0000
     48 H24        6.7572   -1.4525    6.9036 H         2 RES2    0.0000
     49 C25        7.8914   -0.6021    5.4831 C.ar      2 RES2    0.0000
     50 H25        8.6586   -1.0975    5.6560 H         2 RES2    0.0000
     51 C26        7.8941    0.3537    4.4717 C.ar      2 RES2    0.0000
     52 H26        8.6655    0.4981    3.9730 H         2 RES2    0.0000
     53 N1         4.8260    9.1379    4.2578 N.am      1 RES1    0.0000
     54 N2         4.5696    1.2821    0.3732 N.am      2 RES2    0.0000
     55 O1         3.9785   10.1856    3.7583 O.3       1 RES1    0.0000
     56 O2         4.1753   11.8310    2.2812 O.2       1 RES1    0.0000
     57 O3         3.2226    9.0105    5.8303 O.3       1 RES1    0.0000
     58 O4         5.2698    8.1080    6.2094 O.2       1 RES1    0.0000
     59 O5         5.4671    0.2801   -0.1584 O.3       2 RES2    0.0000
     60 O6         5.2986   -1.5852   -1.3418 O.2       2 RES2    0.0000
     61 O7         4.1378    2.2780    2.3527 O.2       2 RES2    0.0000
     62 O8         6.2311    1.5388    1.8680 O.3       2 RES2    0.0000
@<TRIPOS>BOND
     1    1    2 1
     2    2    3 1
     3    3    4 1
     4    5    3 1
     5    6    5 1
     6    7    5 1
     7    8    5 1
     8    9    2 2
     9   10    9 1
    10   11    9 1
    11   12   53 1
    12   13   14 1
    13   15   13 1
    14   16   13 1
    15   17   16 ar
    16   18   17 1
    17   19   17 ar
    18   20   19 1
    19   21   19 ar
    20   22   21 1
    21   23   21 ar
    22   24   23 1
    23   25   16 ar
    24   26   25 1
    25   27   28 1
    26   28   29 1
    27   29   30 1
    28   31   28 2
    29   32   31 1
    30   33   31 1
    31   34   29 1
    32   35   34 1
    33   36   34 1
    34   37   34 1
    35   38   54 1
    36   39   40 1
    37   41   39 1
    38   42   39 1
    39   43   42 ar
    40   44   43 1
    41   45   43 ar
    42   46   45 1
    43   47   45 ar
    44   48   47 1
    45   49   47 ar
    46   50   49 1
    47   51   42 ar
    48   52   51 1
    49   53    3 1
    50   54   29 1
    51   55    1 1
    52   56    1 2
    53   57   12 1
    54   58   12 2
    55   59   27 1
    56   60   27 2
    57   61   38 2
    58   62   38 1
    59   13   57 1
    60   23   25 ar
    61   39   62 1
    62   49   51 ar
    63   53   55 1
    64   54   59 1
@<TRIPOS>SUBSTRUCTURE
     1 RES1 1
     2 RES2 27

@<TRIPOS>CRYSIN
   6.2292   13.0040   15.5592  90.0000  97.0690  90.0000   4 1

