# MOL2 file generated by ConQuest
# Please check atom types

@<TRIPOS>MOLECULE
UYADAA
    52    56     1
SMALL
NO_CHARGES
****
Generated from CSD

@<TRIPOS>ATOM
      1 O1         0.1839    3.9297    4.8937 O.3       1 RES1    0.0000
      2 O2        -3.8514    8.9937    7.4852 O.2       1 RES1    0.0000
      3 O3        -5.0403    7.1938    7.5740 O.2       1 RES1    0.0000
      4 O4         1.2860    7.9518    2.9550 O.2       1 RES1    0.0000
      5 N1        -3.9604    7.7748    7.4892 N.pl3     1 RES1    0.0000
      6 C1         1.2602    4.5476    5.6775 C.3       1 RES1    0.0000
      7 C2         2.6105    3.9052    5.3145 C.3       1 RES1    0.0000
      8 H1         2.5264    3.0731    4.7845 H         1 RES1    0.0000
      9 H2         3.2090    3.7712    6.0923 H         1 RES1    0.0000
     10 C3         2.9608    5.1528    4.4654 C.3       1 RES1    0.0000
     11 H3         3.0120    4.9696    3.4930 H         1 RES1    0.0000
     12 H4         3.7706    5.6295    4.7772 H         1 RES1    0.0000
     13 C4         1.6269    5.8340    4.9042 C.3       1 RES1    0.0000
     14 H5         1.7449    6.6438    5.4802 H         1 RES1    0.0000
     15 C5         0.5357    5.9493    3.8894 C.2       1 RES1    0.0000
     16 C6        -0.1803    4.7926    3.9132 C.2       1 RES1    0.0000
     17 C7         0.8115    4.6122    7.1219 C.3       1 RES1    0.0000
     18 H6         0.6471    3.6948    7.4547 H         1 RES1    0.0000
     19 H7         1.5314    5.0119    7.6708 H         1 RES1    0.0000
     20 C8        -0.4479    5.4325    7.2730 C.ar      1 RES1    0.0000
     21 C9        -0.3784    6.8136    7.3766 C.ar      1 RES1    0.0000
     22 H8         0.4724    7.2342    7.4129 H         1 RES1    0.0000
     23 C10       -1.5177    7.5913    7.4289 C.ar      1 RES1    0.0000
     24 H9        -1.4587    8.5376    7.4819 H         1 RES1    0.0000
     25 C11       -2.7409    6.9617    7.4016 C.ar      1 RES1    0.0000
     26 C12       -2.8505    5.5854    7.3290 C.ar      1 RES1    0.0000
     27 H10       -3.7041    5.1686    7.3312 H         1 RES1    0.0000
     28 C13       -1.7044    4.8293    7.2534 C.ar      1 RES1    0.0000
     29 H11       -1.7698    3.8843    7.1877 H         1 RES1    0.0000
     30 C14        0.3576    7.1493    3.0849 C.2       1 RES1    0.0000
     31 C15       -0.9672    7.4418    2.4484 C.ar      1 RES1    0.0000
     32 C16       -0.9794    7.8687    1.1313 C.ar      1 RES1    0.0000
     33 H12       -0.1578    8.0182    0.6793 H         1 RES1    0.0000
     34 C17       -2.1659    8.0777    0.4717 C.ar      1 RES1    0.0000
     35 H13       -2.1631    8.3440   -0.4396 H         1 RES1    0.0000
     36 C18       -3.3603    7.9010    1.1338 C.ar      1 RES1    0.0000
     37 H14       -4.1806    8.0332    0.6739 H         1 RES1    0.0000
     38 C19       -3.3653    7.5314    2.4653 C.ar      1 RES1    0.0000
     39 H15       -4.1897    7.4455    2.9299 H         1 RES1    0.0000
     40 C20       -2.1711    7.2849    3.1237 C.ar      1 RES1    0.0000
     41 H16       -2.1759    7.0092    4.0325 H         1 RES1    0.0000
     42 C21       -1.2294    4.2565    3.0315 C.ar      1 RES1    0.0000
     43 C22       -1.1470    4.4612    1.6588 C.ar      1 RES1    0.0000
     44 H17       -0.4086    4.9355    1.2969 H         1 RES1    0.0000
     45 C23       -2.1343    3.9796    0.8138 C.ar      1 RES1    0.0000
     46 H18       -2.0754    4.1297   -0.1217 H         1 RES1    0.0000
     47 C24       -3.2033    3.2807    1.3385 C.ar      1 RES1    0.0000
     48 H19       -3.8928    2.9668    0.7647 H         1 RES1    0.0000
     49 C25       -3.2730    3.0377    2.6947 C.ar      1 RES1    0.0000
     50 H20       -4.0011    2.5400    3.0480 H         1 RES1    0.0000
     51 C26       -2.2882    3.5142    3.5473 C.ar      1 RES1    0.0000
     52 H21       -2.3363    3.3349    4.4793 H         1 RES1    0.0000
@<TRIPOS>BOND
     1    1    6 1
     2    2    5 2
     3    3    5 2
     4    4   30 2
     5    5   25 1
     6    6    7 1
     7    7    8 1
     8    9    7 1
     9   10    7 1
    10   11   10 1
    11   12   10 1
    12   13    6 1
    13   14   13 1
    14   15   13 1
    15   16    1 1
    16   17    6 1
    17   18   17 1
    18   19   17 1
    19   20   17 1
    20   21   20 ar
    21   22   21 1
    22   23   21 ar
    23   24   23 1
    24   25   23 ar
    25   26   25 ar
    26   27   26 1
    27   28   20 ar
    28   29   28 1
    29   30   15 1
    30   31   30 1
    31   32   31 ar
    32   33   32 1
    33   34   32 ar
    34   35   34 1
    35   36   34 ar
    36   37   36 1
    37   38   36 ar
    38   39   38 1
    39   40   31 ar
    40   41   40 1
    41   42   16 1
    42   43   42 ar
    43   44   43 1
    44   45   43 ar
    45   46   45 1
    46   47   45 ar
    47   48   47 1
    48   49   47 ar
    49   50   49 1
    50   51   42 ar
    51   52   51 1
    52   10   13 1
    53   15   16 2
    54   26   28 ar
    55   38   40 ar
    56   49   51 ar
@<TRIPOS>SUBSTRUCTURE
     1 RES1 1

@<TRIPOS>CRYSIN
   8.3226   13.6340   18.6040  90.0000 102.4800  90.0000  14 1

