# MOL2 file generated by ConQuest
# Please check atom types

@<TRIPOS>MOLECULE
UYENES
    16    15     1
SMALL
NO_CHARGES
****
Generated from CSD

@<TRIPOS>ATOM
      1 O1         0.2482    1.0621    2.1754 O.2       1 RES1    0.0000
      2 N1        -0.3510    1.3709    1.0785 N.pl3     1 RES1    0.0000
      3 C1        -0.3392    0.6200    0.0094 C.2       1 RES1    0.0000
      4 C2        -1.0803    2.6444    1.0938 C.3       1 RES1    0.0000
      5 H1        -0.7668    0.9338   -0.7278 H         1 RES1    0.0000
      6 H2        -1.4401    2.8062    0.1788 H         1 RES1    0.0000
      7 H3        -0.4729    3.3285    1.3680 H         1 RES1    0.0000
      8 H4        -1.7748    2.5724    1.7435 H         1 RES1    0.0000
      9 O1B       -0.2482   -1.0621   -2.1754 O.2       1 RES1    0.0000
     10 N1B        0.3510   -1.3709   -1.0785 N.pl3     1 RES1    0.0000
     11 C1B        0.3392   -0.6200   -0.0094 C.2       1 RES1    0.0000
     12 C2B        1.0803   -2.6444   -1.0938 C.3       1 RES1    0.0000
     13 H1B        0.7668   -0.9338    0.7278 H         1 RES1    0.0000
     14 H2B        1.4401   -2.8062   -0.1788 H         1 RES1    0.0000
     15 H3B        0.4729   -3.3285   -1.3680 H         1 RES1    0.0000
     16 H4B        1.7748   -2.5724   -1.7435 H         1 RES1    0.0000
@<TRIPOS>BOND
     1    1    2 2
     2    2    3 1
     3    3    5 1
     4    4    2 1
     5    6    4 1
     6    7    4 1
     7    8    4 1
     8    9   10 2
     9   10   11 1
    10   11    3 2
    11   12   10 1
    12   13   11 1
    13   14   12 1
    14   15   12 1
    15   16   12 1
@<TRIPOS>SUBSTRUCTURE
     1 RES1 1

@<TRIPOS>CRYSIN
   4.2040    7.7950    9.0170  90.0000  97.4400  90.0000 231 1

