# MOL2 file generated by ConQuest
# Please check atom types

@<TRIPOS>MOLECULE
UYISEC
    63    67     1
SMALL
NO_CHARGES
****
Generated from CSD

@<TRIPOS>ATOM
      1 O1         6.5706    4.1419    9.0448 O.2       1 RES1    0.0000
      2 O2         9.5631    1.2384    3.2999 O.2       1 RES1    0.0000
      3 O3        10.6955    3.0153    3.7584 O.2       1 RES1    0.0000
      4 N1         9.9039    2.1279    4.0680 N.pl3     1 RES1    0.0000
      5 C1        -1.6343    1.4542   12.1960 C.ar      1 RES1    0.0000
      6 H1        -1.0924    2.0901   12.6463 H         1 RES1    0.0000
      7 C2        -2.9154    1.1924   12.6600 C.ar      1 RES1    0.0000
      8 H2        -3.2447    1.6525   13.4236 H         1 RES1    0.0000
      9 C3        -3.7144    0.2684   12.0184 C.ar      1 RES1    0.0000
     10 H3        -4.5861    0.0833   12.3455 H         1 RES1    0.0000
     11 C4        -3.2419   -0.3812   10.9052 C.ar      1 RES1    0.0000
     12 H4        -3.7857   -1.0221   10.4627 H         1 RES1    0.0000
     13 C5        -1.9698   -0.1019   10.4263 C.ar      1 RES1    0.0000
     14 H5        -1.6619   -0.5335    9.6364 H         1 RES1    0.0000
     15 C6        -1.1374    0.7948   11.0774 C.ar      1 RES1    0.0000
     16 C7         0.2307    1.0566   10.5343 C.2       1 RES1    0.0000
     17 C8         1.3438    1.0719   11.3097 C.2       1 RES1    0.0000
     18 C9         1.3417    0.6469   12.7388 C.ar      1 RES1    0.0000
     19 C10        0.7572   -0.5510   13.1449 C.ar      1 RES1    0.0000
     20 H6         0.3654   -1.1250   12.4977 H         1 RES1    0.0000
     21 C11        0.7449   -0.9131   14.4819 C.ar      1 RES1    0.0000
     22 H7         0.3397   -1.7308   14.7464 H         1 RES1    0.0000
     23 C12        1.3175   -0.0948   15.4310 C.ar      1 RES1    0.0000
     24 H8         1.2917   -0.3374   16.3483 H         1 RES1    0.0000
     25 C13        1.9324    1.0812   15.0423 C.ar      1 RES1    0.0000
     26 H9         2.3398    1.6415   15.6941 H         1 RES1    0.0000
     27 C14        1.9588    1.4444   13.7027 C.ar      1 RES1    0.0000
     28 H10        2.4040    2.2430   13.4399 H         1 RES1    0.0000
     29 C15        0.2901    1.2439    9.0568 C.ar      1 RES1    0.0000
     30 C16        1.0646    0.4097    8.2553 C.ar      1 RES1    0.0000
     31 H11        1.6062   -0.2574    8.6634 H         1 RES1    0.0000
     32 C17        1.0645    0.5324    6.8834 C.ar      1 RES1    0.0000
     33 H12        1.5866   -0.0575    6.3548 H         1 RES1    0.0000
     34 C18        0.3043    1.5112    6.2747 C.ar      1 RES1    0.0000
     35 H13        0.3141    1.6070    5.3292 H         1 RES1    0.0000
     36 C19       -0.4735    2.3492    7.0459 C.ar      1 RES1    0.0000
     37 H14       -0.9872    3.0311    6.6303 H         1 RES1    0.0000
     38 C20       -0.5060    2.2013    8.4271 C.ar      1 RES1    0.0000
     39 H15       -1.0745    2.7567    8.9461 H         1 RES1    0.0000
     40 C21        2.6667    1.5380   10.7873 C.ar      1 RES1    0.0000
     41 C22        2.7829    2.7211   10.0554 C.ar      1 RES1    0.0000
     42 H16        2.0031    3.2245    9.8557 H         1 RES1    0.0000
     43 C23        4.0110    3.1719    9.6172 C.ar      1 RES1    0.0000
     44 H17        4.0679    3.9853    9.1309 H         1 RES1    0.0000
     45 C24        5.1732    2.4379    9.8854 C.ar      1 RES1    0.0000
     46 C25        5.0639    1.2598   10.6142 C.ar      1 RES1    0.0000
     47 H18        5.8411    0.7444   10.7943 H         1 RES1    0.0000
     48 C26        3.8303    0.8298   11.0794 C.ar      1 RES1    0.0000
     49 H19        3.7808    0.0405   11.6043 H         1 RES1    0.0000
     50 C27        6.4750    2.9879    9.4177 C.2       1 RES1    0.0000
     51 C28        7.7013    2.0819    9.3665 C.3       1 RES1    0.0000
     52 H20        8.3698    2.3919   10.0278 H         1 RES1    0.0000
     53 H21        7.4397    1.1568    9.6038 H         1 RES1    0.0000
     54 C29        8.3117    2.0973    7.9830 C.ar      1 RES1    0.0000
     55 C30        7.9885    1.1261    7.0874 C.ar      1 RES1    0.0000
     56 H22        7.4035    0.4267    7.3533 H         1 RES1    0.0000
     57 C31        8.4902    1.1322    5.7976 C.ar      1 RES1    0.0000
     58 H23        8.2487    0.4497    5.1843 H         1 RES1    0.0000
     59 C32        9.3362    2.1296    5.4209 C.ar      1 RES1    0.0000
     60 C33        9.6793    3.1089    6.2775 C.ar      1 RES1    0.0000
     61 H24       10.2742    3.8007    6.0087 H         1 RES1    0.0000
     62 C34        9.1536    3.0897    7.5560 C.ar      1 RES1    0.0000
     63 H25        9.3843    3.7876    8.1578 H         1 RES1    0.0000
@<TRIPOS>BOND
     1    1   50 2
     2    2    4 2
     3    3    4 2
     4    4   59 1
     5    5    6 1
     6    7    5 ar
     7    8    7 1
     8    9    7 ar
     9   10    9 1
    10   11    9 ar
    11   12   11 1
    12   13   11 ar
    13   14   13 1
    14   15    5 ar
    15   16   15 1
    16   17   16 2
    17   18   17 1
    18   19   18 ar
    19   20   19 1
    20   21   19 ar
    21   22   21 1
    22   23   21 ar
    23   24   23 1
    24   25   23 ar
    25   26   25 1
    26   27   18 ar
    27   28   27 1
    28   29   16 1
    29   30   29 ar
    30   31   30 1
    31   32   30 ar
    32   33   32 1
    33   34   32 ar
    34   35   34 1
    35   36   34 ar
    36   37   36 1
    37   38   29 ar
    38   39   38 1
    39   40   17 1
    40   41   40 ar
    41   42   41 1
    42   43   41 ar
    43   44   43 1
    44   45   43 ar
    45   46   45 ar
    46   47   46 1
    47   48   40 ar
    48   49   48 1
    49   50   45 1
    50   51   50 1
    51   52   51 1
    52   53   51 1
    53   54   51 1
    54   55   54 ar
    55   56   55 1
    56   57   55 ar
    57   58   57 1
    58   59   57 ar
    59   60   59 ar
    60   61   60 1
    61   62   54 ar
    62   63   62 1
    63   13   15 ar
    64   25   27 ar
    65   36   38 ar
    66   46   48 ar
    67   60   62 ar
@<TRIPOS>SUBSTRUCTURE
     1 RES1 1

@<TRIPOS>CRYSIN
  52.1180    5.4773   19.3544  90.0000 110.5700  90.0000  15 1

