# MOL2 file generated by ConQuest
# Please check atom types

@<TRIPOS>MOLECULE
UYOJUO
    67    68     1
SMALL
NO_CHARGES
****
Generated from CSD

@<TRIPOS>ATOM
      1 C1         7.4914    8.7946    8.4623 C.3       1 RES1    0.0000
      2 H1         7.0577    9.4539    7.9186 H         1 RES1    0.0000
      3 H2         7.8668    9.2162    9.2396 H         1 RES1    0.0000
      4 H3         6.8508    8.1331    8.7359 H         1 RES1    0.0000
      5 C2         7.4562    8.0488    1.7359 C.3       1 RES1    0.0000
      6 H4         7.0203    8.7789    2.1801 H         1 RES1    0.0000
      7 H5         6.8225    7.3438    1.5841 H         1 RES1    0.0000
      8 H6         7.8080    8.3506    0.8957 H         1 RES1    0.0000
      9 C3         1.3440    1.6033    2.8325 C.3       1 RES1    0.0000
     10 H7         0.8190    0.8005    2.8423 H         1 RES1    0.0000
     11 H8         1.7147    1.7334    1.9570 H         1 RES1    0.0000
     12 H9         0.7873    2.3523    3.0584 H         1 RES1    0.0000
     13 C4         1.4768    2.0516    7.5021 C.3       1 RES1    0.0000
     14 H10        0.8979    2.7447    7.1763 H         1 RES1    0.0000
     15 H11        1.8951    2.3410    8.3160 H         1 RES1    0.0000
     16 H12        0.9637    1.2580    7.6712 H         1 RES1    0.0000
     17 O1         0.8757    0.5548    5.3029 O.2       1 RES1    0.0000
     18 N1         1.8525    1.3800    5.1942 N.3       1 RES1    0.0000
     19 C5         9.6317    9.1904    7.3453 C.3       1 RES1    0.0000
     20 H13        9.2346    9.8799    6.8068 H         1 RES1    0.0000
     21 H14       10.3526    8.7812    6.8608 H         1 RES1    0.0000
     22 H15        9.9683    9.5727    8.1591 H         1 RES1    0.0000
     23 C6         3.3283    2.7539    3.7955 C.3       1 RES1    0.0000
     24 C7         9.6481    8.6327    2.7175 C.3       1 RES1    0.0000
     25 H16        9.9606    8.8664    1.8402 H         1 RES1    0.0000
     26 H17       10.3846    8.3192    3.2466 H         1 RES1    0.0000
     27 H18        9.2605    9.4045    3.1350 H         1 RES1    0.0000
     28 C8         3.4014    3.0025    6.2258 C.3       1 RES1    0.0000
     29 C9         8.5816    8.1369    7.6768 C.3       1 RES1    0.0000
     30 C10        2.4756    1.4854    3.8523 C.3       1 RES1    0.0000
     31 C11        8.5937    7.5304    2.6061 C.3       1 RES1    0.0000
     32 C12        8.4822    7.7618    5.1407 C.ar      1 RES1    0.0000
     33 C13        8.0170    7.4712    6.4231 C.ar      1 RES1    0.0000
     34 C14        2.5522    1.7506    6.4553 C.3       1 RES1    0.0000
     35 C15        7.0366    6.5150    6.5296 C.ar      1 RES1    0.0000
     36 C16        8.0413    7.1422    3.9837 C.ar      1 RES1    0.0000
     37 C17        6.5532    5.8484    5.4230 C.ar      1 RES1    0.0000
     38 C18        7.0562    6.1423    4.1444 C.ar      1 RES1    0.0000
     39 C19        5.5539    4.7962    5.6312 C.2       1 RES1    0.0000
     40 O2         6.6049    5.4622    3.0810 O.3       1 RES1    0.0000
     41 N2         5.1491    4.0477    4.7012 N.2       1 RES1    0.0000
     42 C20        4.2520    2.9122    4.9758 C.3       1 RES1    0.0000
     43 C21        9.2541    7.0763    8.5530 C.3       1 RES1    0.0000
     44 H19        9.6929    7.5030    9.2919 H         1 RES1    0.0000
     45 H20        9.9003    6.5948    8.0319 H         1 RES1    0.0000
     46 H21        8.5903    6.4670    8.8841 H         1 RES1    0.0000
     47 C22        9.2475    6.3181    1.9342 C.3       1 RES1    0.0000
     48 H22        8.5978    5.6194    1.8333 H         1 RES1    0.0000
     49 H23        9.9737    6.0051    2.4781 H         1 RES1    0.0000
     50 H24        9.5810    6.5724    1.0700 H         1 RES1    0.0000
     51 C23        3.2995    0.2339    3.5623 C.3       1 RES1    0.0000
     52 H25        4.0851    0.2332    4.1127 H         1 RES1    0.0000
     53 H26        3.5565    0.2265    2.6384 H         1 RES1    0.0000
     54 H27        2.7736   -0.5471    3.7537 H         1 RES1    0.0000
     55 C24        3.4272    0.5886    6.9330 C.3       1 RES1    0.0000
     56 H28        2.8958   -0.2085    6.9915 H         1 RES1    0.0000
     57 H29        3.7906    0.7960    7.7967 H         1 RES1    0.0000
     58 H30        4.1438    0.4507    6.3102 H         1 RES1    0.0000
     59 H31        2.7340    3.5587    3.7519 H         1 RES1    0.0000
     60 H32        2.8772    3.7515    6.2126 H         1 RES1    0.0000
     61 H33        9.1447    8.3932    5.0676 H         1 RES1    0.0000
     62 H34        6.5687    5.9692    7.3052 H         1 RES1    0.0000
     63 H35        3.8747    2.6819    3.0375 H         1 RES1    0.0000
     64 H36        5.1929    4.6529    6.5663 H         1 RES1    0.0000
     65 H37        3.9515    3.1102    7.0978 H         1 RES1    0.0000
     66 H38        5.9124    4.7920    3.6247 H         1 RES1    0.0000
     67 H39        4.8983    2.1482    5.0537 H         1 RES1    0.0000
@<TRIPOS>BOND
     1    1    2 1
     2    3    1 1
     3    4    1 1
     4    5    6 1
     5    7    5 1
     6    8    5 1
     7    9   10 1
     8   11    9 1
     9   12    9 1
    10   13   14 1
    11   15   13 1
    12   16   13 1
    13   17   18 1
    14   18   30 1
    15   19   20 1
    16   21   19 1
    17   22   19 1
    18   23   30 1
    19   24   25 1
    20   26   24 1
    21   27   24 1
    22   28   34 1
    23   29    1 1
    24   30    9 1
    25   31    5 1
    26   32   33 ar
    27   33   29 1
    28   34   13 1
    29   35   33 ar
    30   36   31 1
    31   37   35 ar
    32   38   36 ar
    33   39   37 1
    34   40   38 1
    35   41   39 2
    36   42   23 1
    37   43   29 1
    38   44   43 1
    39   45   43 1
    40   46   43 1
    41   47   31 1
    42   48   47 1
    43   49   47 1
    44   50   47 1
    45   51   30 1
    46   52   51 1
    47   53   51 1
    48   54   51 1
    49   55   34 1
    50   56   55 1
    51   57   55 1
    52   58   55 1
    53   59   23 1
    54   60   28 1
    55   61   32 1
    56   62   35 1
    57   63   23 1
    58   64   39 1
    59   65   28 1
    60   66   40 1
    61   67   42 1
    62   18   34 1
    63   19   29 1
    64   24   31 1
    65   28   42 1
    66   32   36 ar
    67   37   38 ar
    68   41   42 1
@<TRIPOS>SUBSTRUCTURE
     1 RES1 1

@<TRIPOS>CRYSIN
   6.0064   22.4238   17.4271  90.0000  90.4420  90.0000 231 1

