# MOL2 file generated by ConQuest
# Please check atom types

@<TRIPOS>MOLECULE
UZAWEZ
    21    20     1
SMALL
NO_CHARGES
****
Generated from CSD

@<TRIPOS>ATOM
      1 C1         3.9359    5.5569    2.0584 C.3       1 RES1    0.0000
      2 C2         4.8243    4.6240    2.8306 C.3       1 RES1    0.0000
      3 C3         5.0645    3.2685    2.1769 C.3       1 RES1    0.0000
      4 C4         5.6352    2.2854    3.1895 C.2       1 RES1    0.0000
      5 N1         3.8230    6.9377    2.7299 N.pl3     1 RES1    0.0000
      6 N2         2.4871    5.0635    1.9053 N.pl3     1 RES1    0.0000
      7 N3         4.4835    5.7751    0.6566 N.pl3     1 RES1    0.0000
      8 N4         6.3112    1.2616    2.6710 N.am      1 RES1    0.0000
      9 O1         4.2612    7.0132    3.8560 O.2       1 RES1    0.0000
     10 O2         3.2996    7.8240    2.0748 O.2       1 RES1    0.0000
     11 O3         1.7913    5.6324    1.0842 O.2       1 RES1    0.0000
     12 O4         2.1472    4.1582    2.6395 O.2       1 RES1    0.0000
     13 O5         4.1737    4.9398   -0.1739 O.2       1 RES1    0.0000
     14 O6         5.2725    6.6853    0.5057 O.2       1 RES1    0.0000
     15 O7         5.4295    2.4154    4.4028 O.2       1 RES1    0.0000
     16 H1         5.6389    5.0931    2.9758 H         1 RES1    0.0000
     17 H2         4.3855    4.5069    3.6813 H         1 RES1    0.0000
     18 H3         4.2482    2.8771    1.8538 H         1 RES1    0.0000
     19 H4         5.6790    3.3317    1.4049 H         1 RES1    0.0000
     20 H5         6.4594    1.2554    1.7953 H         1 RES1    0.0000
     21 H6         6.6542    0.6332    3.1609 H         1 RES1    0.0000
@<TRIPOS>BOND
     1    1    2 1
     2    2    3 1
     3    3    4 1
     4    4    8 1
     5    5    1 1
     6    6    1 1
     7    7    1 1
     8    8   20 1
     9    9    5 2
    10   10    5 2
    11   11    6 2
    12   12    6 2
    13   13    7 2
    14   14    7 2
    15   15    4 2
    16   16    2 1
    17   17    2 1
    18   18    3 1
    19   19    3 1
    20   21    8 1
@<TRIPOS>SUBSTRUCTURE
     1 RES1 1

@<TRIPOS>CRYSIN
   6.1081    7.5366    8.8543  80.7280  87.5050  88.3550   2 1

