# MOL2 file generated by ConQuest
# Please check atom types

@<TRIPOS>MOLECULE
UZEPIA
    36    39     1
SMALL
NO_CHARGES
****
Generated from CSD

@<TRIPOS>ATOM
      1 O1         7.1308    3.9960    6.7194 O.3       1 RES1    0.0000
      2 O2         4.8496    2.2305    5.8899 O.2       1 RES1    0.0000
      3 O3         5.4737    5.4940    2.7678 O.2       1 RES1    0.0000
      4 N1         4.8498    3.7689    4.1610 N.am      1 RES1    0.0000
      5 N2         7.9708    4.0225    5.5116 N.3       1 RES1    0.0000
      6 C1         5.4855    4.9841    3.8601 C.2       1 RES1    0.0000
      7 C2         6.1854    5.4874    5.1044 C.3       1 RES1    0.0000
      8 H1         5.8769    6.4006    5.3690 H         1 RES1    0.0000
      9 C3         7.7365    5.3960    5.0107 C.3       1 RES1    0.0000
     10 H2         8.0232    5.4616    4.0536 H         1 RES1    0.0000
     11 C4         8.4031    6.5026    5.8272 C.3       1 RES1    0.0000
     12 H3         8.3177    7.3649    5.3479 H         1 RES1    0.0000
     13 H4         7.9465    6.5900    6.7011 H         1 RES1    0.0000
     14 C5         9.8802    6.1861    6.0509 C.3       1 RES1    0.0000
     15 H5        10.3465    6.1205    5.1800 H         1 RES1    0.0000
     16 H6        10.3041    6.9099    6.5771 H         1 RES1    0.0000
     17 C6         9.9956    4.8768    6.7948 C.3       1 RES1    0.0000
     18 H7         9.5338    4.9444    7.6688 H         1 RES1    0.0000
     19 H8        10.9488    4.6669    6.9612 H         1 RES1    0.0000
     20 C7         9.3584    3.7709    5.9542 C.3       1 RES1    0.0000
     21 H9         9.9201    3.6252    5.1528 H         1 RES1    0.0000
     22 H10        9.3694    2.9324    6.4819 H         1 RES1    0.0000
     23 C8         5.8906    4.4410    6.1825 C.3       1 RES1    0.0000
     24 H11        5.3146    4.8298    6.9007 H         1 RES1    0.0000
     25 C9         5.1514    3.3113    5.4492 C.2       1 RES1    0.0000
     26 C10        4.0102    3.0814    3.2130 C.ar      1 RES1    0.0000
     27 C11        4.3510    1.8119    2.7669 C.ar      1 RES1    0.0000
     28 H12        5.1290    1.3781    3.0950 H         1 RES1    0.0000
     29 C12        3.5322    1.1841    1.8325 C.ar      1 RES1    0.0000
     30 H13        3.7559    0.3159    1.5180 H         1 RES1    0.0000
     31 C13        2.3956    1.8152    1.3562 C.ar      1 RES1    0.0000
     32 H14        1.8428    1.3808    0.7182 H         1 RES1    0.0000
     33 C14        2.0635    3.0861    1.8144 C.ar      1 RES1    0.0000
     34 H15        1.2838    3.5185    1.4878 H         1 RES1    0.0000
     35 C15        2.8718    3.7238    2.7488 C.ar      1 RES1    0.0000
     36 H16        2.6461    4.5907    3.0663 H         1 RES1    0.0000
@<TRIPOS>BOND
     1    1    5 1
     2    2   25 2
     3    3    6 2
     4    4    6 1
     5    5    9 1
     6    6    7 1
     7    7    8 1
     8    9    7 1
     9   10    9 1
    10   11    9 1
    11   12   11 1
    12   13   11 1
    13   14   11 1
    14   15   14 1
    15   16   14 1
    16   17   14 1
    17   18   17 1
    18   19   17 1
    19   20    5 1
    20   21   20 1
    21   22   20 1
    22   23    1 1
    23   24   23 1
    24   25    4 1
    25   26    4 1
    26   27   26 ar
    27   28   27 1
    28   29   27 ar
    29   30   29 1
    30   31   29 ar
    31   32   31 1
    32   33   31 ar
    33   34   33 1
    34   35   26 ar
    35   36   35 1
    36    7   23 1
    37   17   20 1
    38   23   25 1
    39   33   35 ar
@<TRIPOS>SUBSTRUCTURE
     1 RES1 1

@<TRIPOS>CRYSIN
  12.9691    6.6225   15.5830  90.0000 104.0050  90.0000 231 1

