# MOL2 file generated by ConQuest
# Please check atom types

@<TRIPOS>MOLECULE
UZEPOG
    48    52     1
SMALL
NO_CHARGES
****
Generated from CSD

@<TRIPOS>ATOM
      1 N1         1.6985    3.8745    5.7498 N.am      1 RES1    0.0000
      2 N2         0.7645    6.0916    3.3681 N.3       1 RES1    0.0000
      3 O1        -3.5505    4.4631   -1.2516 O.3       1 RES1    0.0000
      4 O2        -2.5434    2.2230   -0.1482 O.3       1 RES1    0.0000
      5 O3        -0.3004    6.2982    4.3830 O.3       1 RES1    0.0000
      6 O4         1.2268    5.7887    6.9499 O.2       1 RES1    0.0000
      7 O5         1.6400    2.1477    4.2374 O.2       1 RES1    0.0000
      8 C1        -2.1075    3.4570    0.3083 C.ar      1 RES1    0.0000
      9 C2        -2.6169    4.6319   -0.2683 C.ar      1 RES1    0.0000
     10 C3        -2.1504    5.8588    0.1915 C.ar      1 RES1    0.0000
     11 H1        -2.4884    6.6605   -0.1913 H         1 RES1    0.0000
     12 C4        -1.1911    5.9325    1.2093 C.ar      1 RES1    0.0000
     13 C5        -0.6817    4.7587    1.7589 C.ar      1 RES1    0.0000
     14 C6        -1.1517    3.5297    1.2940 C.ar      1 RES1    0.0000
     15 H2        -0.8037    2.7273    1.6648 H         1 RES1    0.0000
     16 C7         0.4149    4.7685    2.8040 C.3       1 RES1    0.0000
     17 H3         1.2386    4.3630    2.4059 H         1 RES1    0.0000
     18 C8         0.0393    3.9753    4.0769 C.3       1 RES1    0.0000
     19 H4        -0.7640    3.3974    3.9321 H         1 RES1    0.0000
     20 C9         1.1980    3.1966    4.6449 C.2       1 RES1    0.0000
     21 C10        0.9694    5.0188    6.0581 C.2       1 RES1    0.0000
     22 C11       -0.2288    5.0791    5.0986 C.3       1 RES1    0.0000
     23 H5        -1.0831    4.9065    5.5881 H         1 RES1    0.0000
     24 C12        0.6294    7.1823    2.3980 C.3       1 RES1    0.0000
     25 H6         1.3160    7.0665    1.6934 H         1 RES1    0.0000
     26 H7         0.8140    8.0391    2.8589 H         1 RES1    0.0000
     27 C13       -0.7393    7.2719    1.7323 C.3       1 RES1    0.0000
     28 H8        -1.4011    7.6077    2.3883 H         1 RES1    0.0000
     29 H9        -0.6973    7.9186    0.9830 H         1 RES1    0.0000
     30 C14        2.8073    3.3606    6.5116 C.ar      1 RES1    0.0000
     31 C15        2.5667    2.3852    7.4621 C.ar      1 RES1    0.0000
     32 H10        1.6799    2.0940    7.6400 H         1 RES1    0.0000
     33 C16        3.6398    1.8382    8.1526 C.ar      1 RES1    0.0000
     34 H11        3.4880    1.1729    8.8143 H         1 RES1    0.0000
     35 C17        4.9318    2.2603    7.8795 C.ar      1 RES1    0.0000
     36 H12        5.6641    1.8799    8.3503 H         1 RES1    0.0000
     37 C18        5.1586    3.2328    6.9230 C.ar      1 RES1    0.0000
     38 H13        6.0456    3.5179    6.7383 H         1 RES1    0.0000
     39 C19        4.0919    3.7945    6.2303 C.ar      1 RES1    0.0000
     40 H14        4.2424    4.4651    5.5749 H         1 RES1    0.0000
     41 C20       -3.9165    5.6264   -2.0024 C.3       1 RES1    0.0000
     42 H15       -4.3465    6.2767   -1.4075 H         1 RES1    0.0000
     43 H16       -4.5406    5.3732   -2.7138 H         1 RES1    0.0000
     44 H17       -3.1136    6.0257   -2.3971 H         1 RES1    0.0000
     45 C21       -3.7804    1.8399    0.4675 C.3       1 RES1    0.0000
     46 H18       -3.6496    1.7509    1.4339 H         1 RES1    0.0000
     47 H19       -4.0775    0.9825    0.0968 H         1 RES1    0.0000
     48 H20       -4.4588    2.5246    0.2903 H         1 RES1    0.0000
@<TRIPOS>BOND
     1    1   20 1
     2    2    5 1
     3    3    9 1
     4    4    8 1
     5    5   22 1
     6    6   21 2
     7    7   20 2
     8    8    9 ar
     9    9   10 ar
    10   10   11 1
    11   12   10 ar
    12   13   12 ar
    13   14    8 ar
    14   15   14 1
    15   16    2 1
    16   17   16 1
    17   18   16 1
    18   19   18 1
    19   20   18 1
    20   21    1 1
    21   22   18 1
    22   23   22 1
    23   24    2 1
    24   25   24 1
    25   26   24 1
    26   27   12 1
    27   28   27 1
    28   29   27 1
    29   30    1 1
    30   31   30 ar
    31   32   31 1
    32   33   31 ar
    33   34   33 1
    34   35   33 ar
    35   36   35 1
    36   37   35 ar
    37   38   37 1
    38   39   30 ar
    39   40   39 1
    40   41    3 1
    41   42   41 1
    42   43   41 1
    43   44   41 1
    44   45    4 1
    45   46   45 1
    46   47   45 1
    47   48   45 1
    48   13   14 ar
    49   13   16 1
    50   21   22 1
    51   24   27 1
    52   37   39 ar
@<TRIPOS>SUBSTRUCTURE
     1 RES1 1

@<TRIPOS>CRYSIN
  10.6709    7.6760   22.1886  90.0000  97.6350  90.0000  14 1

