# MOL2 file generated by ConQuest
# Please check atom types

@<TRIPOS>MOLECULE
UZEPAS
    76    80     2
SMALL
NO_CHARGES
****
Generated from CSD

@<TRIPOS>ATOM
      1 N1         8.5381    5.0136    6.8456 N.3       1 RES1    0.0000
      2 O1         8.7655    5.7442    8.0839 O.3       1 RES1    0.0000
      3 O2         6.8737    7.6243    8.9093 O.2       1 RES1    0.0000
      4 O3         6.1191    6.2024   10.4746 O.3       1 RES1    0.0000
      5 O4         7.3373    2.7077   10.2495 O.2       1 RES1    0.0000
      6 O5         5.3344    2.7580    9.2194 O.3       1 RES1    0.0000
      7 C1         7.1958    3.0333    6.1987 C.ar      1 RES1    0.0000
      8 C2         6.8080    1.7179    6.4210 C.ar      1 RES1    0.0000
      9 H1         7.0088    1.3090    7.2306 H         1 RES1    0.0000
     10 C3         6.1200    1.0101    5.4364 C.ar      1 RES1    0.0000
     11 H2         5.8581    0.1322    5.5868 H         1 RES1    0.0000
     12 C4         5.8298    1.6240    4.2390 C.ar      1 RES1    0.0000
     13 H3         5.3672    1.1543    3.5817 H         1 RES1    0.0000
     14 C5         6.2204    2.9305    4.0045 C.ar      1 RES1    0.0000
     15 H4         6.0215    3.3306    3.1892 H         1 RES1    0.0000
     16 C6         6.9093    3.6511    4.9767 C.ar      1 RES1    0.0000
     17 C7         7.4048    5.0526    4.7167 C.3       1 RES1    0.0000
     18 H5         6.7560    5.5231    4.1719 H         1 RES1    0.0000
     19 H6         8.2379    5.0104    4.2211 H         1 RES1    0.0000
     20 C8         7.6265    5.8216    6.0133 C.3       1 RES1    0.0000
     21 H7         8.0207    6.6870    5.8289 H         1 RES1    0.0000
     22 H8         6.7834    5.9583    6.4720 H         1 RES1    0.0000
     23 C9         7.7689    5.3731    9.0550 C.3       1 RES1    0.0000
     24 H9         8.2169    5.0330    9.8580 H         1 RES1    0.0000
     25 C10        6.9376    4.2556    8.4393 C.3       1 RES1    0.0000
     26 H10        6.1182    4.6267    8.0496 H         1 RES1    0.0000
     27 C11        7.8930    3.7778    7.3091 C.3       1 RES1    0.0000
     28 H11        8.5764    3.1952    7.6978 H         1 RES1    0.0000
     29 C12        6.5918    3.1681    9.4201 C.2       1 RES1    0.0000
     30 C13        4.8489    1.6988   10.0755 C.3       1 RES1    0.0000
     31 H12        5.5470    1.0543   10.2126 H         1 RES1    0.0000
     32 H13        4.0961    1.2703    9.6603 H         1 RES1    0.0000
     33 H14        4.5825    2.0699   10.9210 H         1 RES1    0.0000
     34 C14        6.8947    6.5596    9.4399 C.2       1 RES1    0.0000
     35 C15        5.1811    7.2074   10.9570 C.3       1 RES1    0.0000
     36 H15        5.6382    7.8187   11.5415 H         1 RES1    0.0000
     37 H16        4.4702    6.7773   11.4365 H         1 RES1    0.0000
     38 H17        4.8179    7.6897   10.2117 H         1 RES1    0.0000
     39 N2         3.9538    4.9811    6.7482 N.3       2 RES2    0.0000
     40 O6         4.1944    5.7101    5.5126 O.3       2 RES2    0.0000
     41 O7         2.3323    7.5930    4.6788 O.2       2 RES2    0.0000
     42 O8         1.5822    6.1753    3.1041 O.3       2 RES2    0.0000
     43 O9         2.7812    2.6761    3.3311 O.2       2 RES2    0.0000
     44 O10        0.7875    2.6974    4.3784 O.3       2 RES2    0.0000
     45 C16        2.6270    2.9717    7.3686 C.ar      2 RES2    0.0000
     46 C17        2.2620    1.6518    7.1417 C.ar      2 RES2    0.0000
     47 H18        2.4874    1.2445    6.3349 H         2 RES2    0.0000
     48 C18        1.5649    0.9295    8.1007 C.ar      2 RES2    0.0000
     49 H19        1.3258    0.0451    7.9380 H         2 RES2    0.0000
     50 C19        1.2309    1.5357    9.2981 C.ar      2 RES2    0.0000
     51 H20        0.7519    1.0640    9.9403 H         2 RES2    0.0000
     52 C20        1.6096    2.8495    9.5411 C.ar      2 RES2    0.0000
     53 H21        1.3879    3.2468   10.3526 H         2 RES2    0.0000
     54 C21        2.3168    3.5843    8.5925 C.ar      2 RES2    0.0000
     55 C22        2.7812    4.9801    8.8696 C.3       2 RES2    0.0000
     56 H22        3.5970    4.9491    9.3926 H         2 RES2    0.0000
     57 H23        2.1087    5.4424    9.3955 H         2 RES2    0.0000
     58 C23        3.0386    5.7587    7.5947 C.3       2 RES2    0.0000
     59 H24        2.2036    5.9132    7.1265 H         2 RES2    0.0000
     60 H25        3.4327    6.6193    7.8075 H         2 RES2    0.0000
     61 C24        3.2183    5.3457    4.5407 C.3       2 RES2    0.0000
     62 H26        3.6746    5.0072    3.7415 H         2 RES2    0.0000
     63 C25        2.3697    4.2108    5.1479 C.3       2 RES2    0.0000
     64 H27        1.5485    4.5784    5.5367 H         2 RES2    0.0000
     65 C26        3.3315    3.7385    6.2810 C.3       2 RES2    0.0000
     66 H28        4.0240    3.1662    5.8885 H         2 RES2    0.0000
     67 C27        2.0321    3.1239    4.1643 C.2       2 RES2    0.0000
     68 C28        0.3093    1.6363    3.5250 C.3       2 RES2    0.0000
     69 H29       -0.0274    2.0087    2.7078 H         2 RES2    0.0000
     70 H30       -0.3942    1.1607    3.9714 H         2 RES2    0.0000
     71 H31        1.0302    1.0350    3.3282 H         2 RES2    0.0000
     72 C29        2.3469    6.5264    4.1492 C.2       2 RES2    0.0000
     73 C30        0.6698    7.1871    2.6179 C.3       2 RES2    0.0000
     74 H32        0.1113    7.4898    3.3396 H         2 RES2    0.0000
     75 H33        0.1214    6.8160    1.9228 H         2 RES2    0.0000
     76 H34        1.1698    7.9283    2.2708 H         2 RES2    0.0000
@<TRIPOS>BOND
     1    1    2 1
     2    2   23 1
     3    3   34 2
     4    4   34 1
     5    5   29 2
     6    6   29 1
     7    7    8 ar
     8    8    9 1
     9   10    8 ar
    10   11   10 1
    11   12   10 ar
    12   13   12 1
    13   14   12 ar
    14   15   14 1
    15   16    7 ar
    16   17   16 1
    17   18   17 1
    18   19   17 1
    19   20    1 1
    20   21   20 1
    21   22   20 1
    22   23   24 1
    23   25   23 1
    24   26   25 1
    25   27    1 1
    26   28   27 1
    27   29   25 1
    28   30    6 1
    29   31   30 1
    30   32   30 1
    31   33   30 1
    32   34   23 1
    33   35    4 1
    34   36   35 1
    35   37   35 1
    36   38   35 1
    37   39   40 1
    38   40   61 1
    39   41   72 2
    40   42   72 1
    41   43   67 2
    42   44   67 1
    43   45   46 ar
    44   46   47 1
    45   48   46 ar
    46   49   48 1
    47   50   48 ar
    48   51   50 1
    49   52   50 ar
    50   53   52 1
    51   54   45 ar
    52   55   54 1
    53   56   55 1
    54   57   55 1
    55   58   39 1
    56   59   58 1
    57   60   58 1
    58   61   62 1
    59   63   61 1
    60   64   63 1
    61   65   39 1
    62   66   65 1
    63   67   63 1
    64   68   44 1
    65   69   68 1
    66   70   68 1
    67   71   68 1
    68   72   61 1
    69   73   42 1
    70   74   73 1
    71   75   73 1
    72   76   73 1
    73    7   27 1
    74   14   16 ar
    75   17   20 1
    76   25   27 1
    77   45   65 1
    78   52   54 ar
    79   55   58 1
    80   63   65 1
@<TRIPOS>SUBSTRUCTURE
     1 RES1 1
     2 RES2 39

@<TRIPOS>CRYSIN
   9.1248   32.2420    9.4579  90.0000  90.0000  90.0000  14 1

