# MOL2 file generated by ConQuest
# Please check atom types

@<TRIPOS>MOLECULE
UZEWON
    50    50     2
SMALL
NO_CHARGES
****
Generated from CSD

@<TRIPOS>ATOM
      1 O1         1.7750   11.3098    1.4878 O.2       1 RES1    0.0000
      2 O2         3.1121   11.0013    3.1575 O.2       1 RES1    0.0000
      3 O3         5.6156    9.4964    4.3092 O.2       1 RES1    0.0000
      4 O4         4.8781    8.7713    2.4440 O.2       1 RES1    0.0000
      5 O5         4.6894    6.5431    4.3880 O.2       1 RES1    0.0000
      6 O6         3.0982    6.8445    5.7993 O.2       1 RES1    0.0000
      7 O7         3.8305    9.6559    6.2605 O.2       1 RES1    0.0000
      8 O8         1.8795    9.7076    5.4219 O.2       1 RES1    0.0000
      9 N1         1.9092    7.2008    3.0580 N.2       1 RES1    0.0000
     10 N2         1.8514    9.3543    2.4489 N.pl3     1 RES1    0.0000
     11 N3         2.2730   10.6219    2.3493 N.pl3     1 RES1    0.0000
     12 N4         4.7893    9.0026    3.6077 N.pl3     1 RES1    0.0000
     13 N5         3.8077    7.1773    4.8844 N.pl3     1 RES1    0.0000
     14 N6         3.0211    9.4077    5.4171 N.pl3     1 RES1    0.0000
     15 C1         0.8040    7.3266    2.0666 C.3       1 RES1    0.0000
     16 H1         0.9584    6.7061    1.3239 H         1 RES1    0.0000
     17 C2         0.8603    8.7623    1.5496 C.3       1 RES1    0.0000
     18 H2         1.1537    8.7974    0.6262 H         1 RES1    0.0000
     19 H3         0.0003    9.2037    1.6297 H         1 RES1    0.0000
     20 C3         2.4017    8.3271    3.2376 C.2       1 RES1    0.0000
     21 C4        -0.4892    6.9849    2.7425 C.3       1 RES1    0.0000
     22 H4        -0.4637    6.0728    3.0410 H         1 RES1    0.0000
     23 H5        -1.2142    7.0981    2.1236 H         1 RES1    0.0000
     24 H6        -0.6187    7.5647    3.4973 H         1 RES1    0.0000
     25 C5         3.4799    8.5405    4.2594 C.3       1 RES1    0.0000
     26 O9         3.1963    3.2974    0.3980 O.2       2 RES2    0.0000
     27 O10        1.2791    3.8606    1.2499 O.2       2 RES2    0.0000
     28 O11        4.1907    0.8612    1.4149 O.2       2 RES2    0.0000
     29 O12        5.9162    1.2798    0.2548 O.2       2 RES2    0.0000
     30 O13        7.2548    3.3184    3.1248 O.2       2 RES2    0.0000
     31 O14        6.7057    1.2466    3.0762 O.2       2 RES2    0.0000
     32 O15        6.4404    3.8783    0.2281 O.2       2 RES2    0.0000
     33 O16        5.1974    5.0302    1.5448 O.2       2 RES2    0.0000
     34 N7         4.4047    2.9291    4.1587 N.2       2 RES2    0.0000
     35 N8         2.9527    3.4357    2.5787 N.pl3     2 RES2    0.0000
     36 N9         2.4369    3.5368    1.3288 N.pl3     2 RES2    0.0000
     37 N10        5.1229    1.5320    1.1079 N.pl3     2 RES2    0.0000
     38 N11        6.5990    2.4344    2.7959 N.pl3     2 RES2    0.0000
     39 N12        5.6926    4.0052    1.1565 N.pl3     2 RES2    0.0000
     40 C6         3.1592    3.2815    4.8589 C.3       2 RES2    0.0000
     41 H7         3.3236    4.0972    5.3770 H         2 RES2    0.0000
     42 C7         2.1478    3.6130    3.7679 C.3       2 RES2    0.0000
     43 H8         1.3945    3.0014    3.7825 H         2 RES2    0.0000
     44 H9         1.8234    4.5237    3.8468 H         2 RES2    0.0000
     45 C8         4.2162    3.0333    2.9258 C.2       2 RES2    0.0000
     46 C9         2.7679    2.2422    5.7763 C.3       2 RES2    0.0000
     47 H10        3.4628    2.1102    6.4255 H         2 RES2    0.0000
     48 H11        2.6222    1.4265    5.2933 H         2 RES2    0.0000
     49 H12        1.9580    2.4991    6.2241 H         2 RES2    0.0000
     50 C10        5.3271    2.7740    1.9659 C.3       2 RES2    0.0000
@<TRIPOS>BOND
     1    1   11 2
     2    2   11 2
     3    3   12 2
     4    4   12 2
     5    5   13 2
     6    6   13 2
     7    7   14 2
     8    8   14 2
     9    9   15 1
    10   10   11 1
    11   12   25 1
    12   13   25 1
    13   14   25 1
    14   15   16 1
    15   17   10 1
    16   18   17 1
    17   19   17 1
    18   20    9 2
    19   21   15 1
    20   22   21 1
    21   23   21 1
    22   24   21 1
    23   25   20 1
    24   26   36 2
    25   27   36 2
    26   28   37 2
    27   29   37 2
    28   30   38 2
    29   31   38 2
    30   32   39 2
    31   33   39 2
    32   34   40 1
    33   35   36 1
    34   37   50 1
    35   38   50 1
    36   39   50 1
    37   40   41 1
    38   42   35 1
    39   43   42 1
    40   44   42 1
    41   45   34 2
    42   46   40 1
    43   47   46 1
    44   48   46 1
    45   49   46 1
    46   50   45 1
    47   10   20 1
    48   15   17 1
    49   35   45 1
    50   40   42 1
@<TRIPOS>SUBSTRUCTURE
     1 RES1 1
     2 RES2 26

@<TRIPOS>CRYSIN
   8.4150   10.9160   12.7740  72.3000  83.9800  83.6000   2 1

