# MOL2 file generated by ConQuest
# Please check atom types

@<TRIPOS>MOLECULE
UZEWED
    50    50     2
SMALL
NO_CHARGES
****
Generated from CSD

@<TRIPOS>ATOM
      1 N1         8.8460    2.6434    1.6054 N.2       1 RES1    0.0000
      2 O1         9.3160   -0.1623    4.2990 O.2       1 RES1    0.0000
      3 C1         8.6900    4.0175    2.0571 C.3       1 RES1    0.0000
      4 H1         8.9993    4.6146    1.3586 H         1 RES1    0.0000
      5 H2         7.7485    4.1957    2.2036 H         1 RES1    0.0000
      6 N2         9.2184    1.9607    3.7808 N.pl3     1 RES1    0.0000
      7 O2         9.3420    1.2877    5.8649 O.2       1 RES1    0.0000
      8 C2         9.3831    4.2909    3.2186 C.3       1 RES1    0.0000
      9 H3         9.1044    5.1650    3.5340 H         1 RES1    0.0000
     10 H4        10.3259    4.3518    2.9978 H         1 RES1    0.0000
     11 C3         9.2393    3.3542    4.3147 C.3       1 RES1    0.0000
     12 H5         8.4162    3.5333    4.7947 H         1 RES1    0.0000
     13 H6         9.9802    3.4574    4.9332 H         1 RES1    0.0000
     14 N3         9.2427    0.9905    4.7259 N.pl3     1 RES1    0.0000
     15 O3         7.8790    0.4287   -0.0946 O.2       1 RES1    0.0000
     16 C4         9.0677    1.7472    2.4537 C.2       1 RES1    0.0000
     17 N4         9.0912    0.5116    0.2445 N.pl3     1 RES1    0.0000
     18 O4        10.0331    0.6659   -0.2501 O.2       1 RES1    0.0000
     19 N5        10.4337   -0.3890    2.0515 N.pl3     1 RES1    0.0000
     20 C5         9.2103    0.3651    1.8093 C.3       1 RES1    0.0000
     21 O5        11.2807    0.2734    2.5055 O.2       1 RES1    0.0000
     22 N6         8.0277   -0.5283    2.1484 N.pl3     1 RES1    0.0000
     23 O6        10.5965   -1.5012    1.7541 O.2       1 RES1    0.0000
     24 O7         7.0888    0.0150    2.6463 O.2       1 RES1    0.0000
     25 O8         7.9989   -1.6696    1.9253 O.2       1 RES1    0.0000
     26 C6         3.3307   -1.6299    3.6005 C.3       2 RES2    0.0000
     27 H7         3.6481   -2.1583    4.3508 H         2 RES2    0.0000
     28 H8         2.4321   -1.9289    3.3921 H         2 RES2    0.0000
     29 N7         3.2758   -0.2161    4.0095 N.2       2 RES2    0.0000
     30 C7         4.1839   -1.8875    2.4570 C.3       2 RES2    0.0000
     31 H9         4.0033   -2.7774    2.1146 H         2 RES2    0.0000
     32 H10        5.1130   -1.8566    2.7342 H         2 RES2    0.0000
     33 N8         4.0754    0.4710    1.9580 N.pl3     2 RES2    0.0000
     34 C8         3.9563   -0.8785    1.3665 C.3       2 RES2    0.0000
     35 H11        4.6142   -0.9940    0.6635 H         2 RES2    0.0000
     36 H12        3.0736   -0.9975    0.9835 H         2 RES2    0.0000
     37 N9         4.5927    1.4474    1.1468 N.pl3     2 RES2    0.0000
     38 O9         4.7646    1.1581   -0.0023 O.2       2 RES2    0.0000
     39 C9         3.6506    0.6862    3.2648 C.2       2 RES2    0.0000
     40 C10        3.5326    2.0709    3.8236 C.3       2 RES2    0.0000
     41 O10        4.8098    2.5234    1.6763 O.2       2 RES2    0.0000
     42 N10        2.6398    3.0411    3.0327 N.pl3     2 RES2    0.0000
     43 N11        4.8723    2.7016    4.1469 N.pl3     2 RES2    0.0000
     44 O11        2.4866    4.1322    3.4755 O.2       2 RES2    0.0000
     45 N12        2.8164    1.9651    5.1721 N.pl3     2 RES2    0.0000
     46 O12        2.1259    2.5587    2.0954 O.2       2 RES2    0.0000
     47 O13        5.7499    1.8866    4.3452 O.2       2 RES2    0.0000
     48 O14        4.9752    3.8843    4.2719 O.2       2 RES2    0.0000
     49 O15        1.5832    1.8707    5.0932 O.2       2 RES2    0.0000
     50 O16        3.4761    1.9439    6.1680 O.2       2 RES2    0.0000
@<TRIPOS>BOND
     1    1    3 1
     2    2   14 2
     3    3    4 1
     4    5    3 1
     5    6   11 1
     6    7   14 2
     7    8    3 1
     8    9    8 1
     9   10    8 1
    10   11    8 1
    11   12   11 1
    12   13   11 1
    13   14    6 1
    14   15   17 2
    15   16    1 2
    16   17   18 2
    17   19   20 1
    18   20   16 1
    19   21   19 2
    20   22   20 1
    21   23   19 2
    22   24   22 2
    23   25   22 2
    24   26   27 1
    25   28   26 1
    26   29   26 1
    27   30   26 1
    28   31   30 1
    29   32   30 1
    30   33   34 1
    31   34   30 1
    32   35   34 1
    33   36   34 1
    34   37   33 1
    35   38   37 2
    36   39   29 2
    37   40   39 1
    38   41   37 2
    39   42   40 1
    40   43   40 1
    41   44   42 2
    42   45   40 1
    43   46   42 2
    44   47   43 2
    45   48   43 2
    46   49   45 2
    47   50   45 2
    48    6   16 1
    49   17   20 1
    50   33   39 1
@<TRIPOS>SUBSTRUCTURE
     1 RES1 1
     2 RES2 26

@<TRIPOS>CRYSIN
  10.8210    8.8200   11.2860  90.0000  93.4400  90.0000   4 1

