# MOL2 file generated by ConQuest
# Please check atom types

@<TRIPOS>MOLECULE
UZEWAZ
    56    58     2
SMALL
NO_CHARGES
****
Generated from CSD

@<TRIPOS>ATOM
      1 C1        -1.2028    1.7419    8.8446 C.3       1 RES1    0.0000
      2 O1        -1.2107   -0.3451    7.8671 O.2       1 RES1    0.0000
      3 O2        -3.1164    0.6004    8.2212 O.2       1 RES1    0.0000
      4 O3         0.4034    1.9778    7.1551 O.2       1 RES1    0.0000
      5 O4         1.0533    1.3368    9.0762 O.2       1 RES1    0.0000
      6 O5        -1.9710    3.1267    7.1312 O.2       1 RES1    0.0000
      7 O6        -2.6338    3.5393    9.1648 O.2       1 RES1    0.0000
      8 O7         0.4129    4.4080   11.8185 O.2       1 RES1    0.0000
      9 O8         0.1757    3.9287    9.6846 O.2       1 RES1    0.0000
     10 O9        -2.7205    0.4855   13.0785 O.3       1 RES1    0.0000
     11 O10       -1.9790    3.0987   13.1058 O.3       1 RES1    0.0000
     12 N1        -1.8963    0.4924    8.2212 N.pl3     1 RES1    0.0000
     13 N2         0.2560    1.7225    8.2946 N.pl3     1 RES1    0.0000
     14 N3        -2.0106    2.9158    8.3643 N.pl3     1 RES1    0.0000
     15 N4         0.0090    3.7134   10.8862 N.pl3     1 RES1    0.0000
     16 N5        -0.6404    2.5432   11.2045 N.3       1 RES1    0.0000
     17 N6        -1.7581    0.6403   10.8894 N.2       1 RES1    0.0000
     18 C2        -1.1960    1.6339   10.3476 C.2       1 RES1    0.0000
     19 C3        -1.5417    0.8007   12.3666 C.3       1 RES1    0.0000
     20 H1        -0.8330    0.1822   12.6453 H         1 RES1    0.0000
     21 C4        -3.7349    1.4741   13.0710 C.3       1 RES1    0.0000
     22 H2        -4.0939    1.5596   13.9675 H         1 RES1    0.0000
     23 H3        -4.4574    1.1758   12.4947 H         1 RES1    0.0000
     24 C5        -3.2724    2.8353   12.6020 C.3       1 RES1    0.0000
     25 H4        -3.2570    2.8603   11.6321 H         1 RES1    0.0000
     26 H5        -3.8899    3.5156   12.9128 H         1 RES1    0.0000
     27 C6        -1.0613    2.2386   12.6209 C.3       1 RES1    0.0000
     28 H6        -0.2755    2.2280   13.2066 H         1 RES1    0.0000
     29 O11        2.0807    1.1209   12.6792 O.2       2 RES2    0.0000
     30 O12        3.5762    1.8848   14.0089 O.2       2 RES2    0.0000
     31 O13        3.0618   -0.0749   10.5171 O.2       2 RES2    0.0000
     32 O14        5.1554   -0.4581   10.7512 O.2       2 RES2    0.0000
     33 O15        4.5706    2.4627    9.8861 O.2       2 RES2    0.0000
     34 O16        3.3967    3.4213   11.4249 O.2       2 RES2    0.0000
     35 O17        4.4529   -0.8269   13.5044 O.2       2 RES2    0.0000
     36 O18        6.3018   -1.3325   14.5382 O.2       2 RES2    0.0000
     37 O19        8.8069    2.5170   12.2611 O.3       2 RES2    0.0000
     38 O20        8.4787   -0.0687   12.9375 O.3       2 RES2    0.0000
     39 N7         3.1937    1.4542   12.9542 N.pl3     2 RES2    0.0000
     40 N8         4.1554    0.1454   10.9842 N.pl3     2 RES2    0.0000
     41 N9         4.0653    2.5220   10.9427 N.pl3     2 RES2    0.0000
     42 N10        5.5938   -0.6566   13.8319 N.pl3     2 RES2    0.0000
     43 N11        6.2135    0.4993   13.3912 N.3       2 RES2    0.0000
     44 N12        6.4159    2.4178   12.2289 N.2       2 RES2    0.0000
     45 C7         4.3050    1.3674   11.9089 C.3       2 RES2    0.0000
     46 C8         5.6792    1.4573   12.5135 C.2       2 RES2    0.0000
     47 C9         7.6332    0.8244   13.5871 C.3       2 RES2    0.0000
     48 H7         7.8423    0.8450   14.5438 H         2 RES2    0.0000
     49 C10        8.5412    0.2078   11.5209 C.3       2 RES2    0.0000
     50 H8         7.6472    0.1879   11.1480 H         2 RES2    0.0000
     51 H9         9.0669   -0.4793   11.0802 H         2 RES2    0.0000
     52 C11        9.1435    1.5141   11.2723 C.3       2 RES2    0.0000
     53 H10       10.1096    1.4136   11.2460 H         2 RES2    0.0000
     54 H11        8.8582    1.8286   10.4003 H         2 RES2    0.0000
     55 C12        7.6472    2.2499   13.0183 C.3       2 RES2    0.0000
     56 H12        7.6180    2.8796   13.7697 H         2 RES2    0.0000
@<TRIPOS>BOND
     1    1   12 1
     2    2   12 2
     3    3   12 2
     4    4   13 2
     5    5   13 2
     6    6   14 2
     7    7   14 2
     8    8   15 2
     9    9   15 2
    10   10   19 1
    11   11   24 1
    12   13    1 1
    13   14    1 1
    14   15   16 1
    15   16   18 1
    16   17   18 2
    17   18    1 1
    18   19   17 1
    19   20   19 1
    20   21   10 1
    21   22   21 1
    22   23   21 1
    23   24   21 1
    24   25   24 1
    25   26   24 1
    26   27   11 1
    27   28   27 1
    28   29   39 2
    29   30   39 2
    30   31   40 2
    31   32   40 2
    32   33   41 2
    33   34   41 2
    34   35   42 2
    35   36   42 2
    36   37   52 1
    37   38   47 1
    38   39   45 1
    39   40   45 1
    40   41   45 1
    41   42   43 1
    42   43   46 1
    43   44   46 2
    44   45   46 1
    45   47   43 1
    46   48   47 1
    47   49   38 1
    48   50   49 1
    49   51   49 1
    50   52   49 1
    51   53   52 1
    52   54   52 1
    53   55   37 1
    54   56   55 1
    55   16   27 1
    56   19   27 1
    57   44   55 1
    58   47   55 1
@<TRIPOS>SUBSTRUCTURE
     1 RES1 1
     2 RES2 29

@<TRIPOS>CRYSIN
  20.4370    6.2410   20.5880  90.0000 113.8200  90.0000 231 1

