# MOL2 file generated by ConQuest
# Please check atom types

@<TRIPOS>MOLECULE
UZEXAA
    32    33     1
SMALL
NO_CHARGES
****
Generated from CSD

@<TRIPOS>ATOM
      1 N1         9.5415    1.2564    4.2776 N.2       1 RES1    0.0000
      2 O1         6.1599    3.1800    3.3303 O.2       1 RES1    0.0000
      3 C1         9.2088   -0.0656    3.6507 C.3       1 RES1    0.0000
      4 H1         9.5581   -0.0584    2.7354 H         1 RES1    0.0000
      5 N2         7.4699    1.3917    3.3921 N.pl3     1 RES1    0.0000
      6 O2         5.3457    1.2113    2.9025 O.2       1 RES1    0.0000
      7 C2         9.8042   -1.2667    4.3634 C.3       1 RES1    0.0000
      8 H2         9.8102   -2.0199    3.7525 H         1 RES1    0.0000
      9 H3        10.7247   -1.0668    4.5934 H         1 RES1    0.0000
     10 N3         6.2304    1.9461    3.2136 N.pl3     1 RES1    0.0000
     11 O3         8.7253    3.8758    2.1909 O.2       1 RES1    0.0000
     12 C3         9.0715   -1.6643    5.6104 C.3       1 RES1    0.0000
     13 H4         9.1856   -0.9766    6.2854 H         1 RES1    0.0000
     14 H5         9.4473   -2.4892    5.9559 H         1 RES1    0.0000
     15 O4         8.6245    5.5862    3.4962 O.2       1 RES1    0.0000
     16 N4         8.6324    4.4097    3.2640 N.pl3     1 RES1    0.0000
     17 C4         7.6035   -1.8580    5.3347 C.3       1 RES1    0.0000
     18 H6         7.1576   -2.1470    6.1470 H         1 RES1    0.0000
     19 H7         7.4892   -2.5518    4.6666 H         1 RES1    0.0000
     20 C5         6.9723   -0.5698    4.8416 C.3       1 RES1    0.0000
     21 H8         7.0398    0.1097    5.5304 H         1 RES1    0.0000
     22 H9         6.0315   -0.7194    4.6563 H         1 RES1    0.0000
     23 O5         7.4576    4.9918    5.8152 O.2       1 RES1    0.0000
     24 N5         7.5573    3.8194    5.5155 N.pl3     1 RES1    0.0000
     25 N6         9.9749    3.6883    5.1631 N.pl3     1 RES1    0.0000
     26 O6         6.9708    2.8940    6.0017 O.2       1 RES1    0.0000
     27 C6         7.6740   -0.0840    3.5694 C.3       1 RES1    0.0000
     28 H10        7.3677   -0.5811    2.7823 H         1 RES1    0.0000
     29 C7         8.5609    2.0127    4.0625 C.2       1 RES1    0.0000
     30 O7         9.9859    3.5222    6.3655 O.2       1 RES1    0.0000
     31 O8        10.8813    4.0049    4.4549 O.2       1 RES1    0.0000
     32 C8         8.6254    3.4607    4.4652 C.3       1 RES1    0.0000
@<TRIPOS>BOND
     1    1    3 1
     2    2   10 2
     3    3    4 1
     4    5   10 1
     5    6   10 2
     6    7    3 1
     7    8    7 1
     8    9    7 1
     9   11   16 2
    10   12    7 1
    11   13   12 1
    12   14   12 1
    13   15   16 2
    14   16   32 1
    15   17   12 1
    16   18   17 1
    17   19   17 1
    18   20   17 1
    19   21   20 1
    20   22   20 1
    21   23   24 2
    22   24   26 2
    23   25   30 2
    24   27    3 1
    25   28   27 1
    26   29    1 2
    27   31   25 2
    28   32   24 1
    29    5   27 1
    30    5   29 1
    31   20   27 1
    32   25   32 1
    33   29   32 1
@<TRIPOS>SUBSTRUCTURE
     1 RES1 1

@<TRIPOS>CRYSIN
  11.2670   10.2480   11.4440  90.0000  91.4100  90.0000  14 1

