# MOL2 file generated by ConQuest
# Please check atom types

@<TRIPOS>MOLECULE
UZIROL
   114   110     3
SMALL
NO_CHARGES
****
Generated from CSD

@<TRIPOS>ATOM
      1 O1        -2.4392   11.3159    4.5790 O.2       1 RES1    0.0000
      2 O2        -0.8941   12.3943    5.6208 O.2       1 RES1    0.0000
      3 O3         1.7631    2.6407    8.4808 O.2       1 RES1    0.0000
      4 O4        -2.4969    2.9273   11.3513 O.2       1 RES1    0.0000
      5 O5        -2.0678    5.1093   11.0255 O.3       1 RES1    0.0000
      6 O6         0.2868    1.4790   11.0646 O.2       1 RES1    0.0000
      7 O7        -0.7235   -0.1138    9.8547 O.3       1 RES1    0.0000
      8 O8         1.4443   13.0437    3.6145 O.2       2 RES2    0.0000
      9 O9         2.4089   11.9625    5.2196 O.2       2 RES2    0.0000
     10 O10        0.2003    2.6799    1.0146 O.2       2 RES2    0.0000
     11 O11        2.8502    6.3064   -1.8328 O.2       2 RES2    0.0000
     12 O12        4.2298    4.5368   -1.7948 O.3       2 RES2    0.0000
     13 O13        1.9034    2.4343   -1.9240 O.2       2 RES2    0.0000
     14 N1        -1.4884   11.3548    5.3373 N.pl3     1 RES1    0.0000
     15 N2         0.2643    5.3461    6.7944 N.3       1 RES1    0.0000
     16 N3         0.2640    4.1889    7.6718 N.am      1 RES1    0.0000
     17 N4         1.7707   11.9987    4.1704 N.pl3     2 RES2    0.0000
     18 N5         0.5371    5.8469    2.5266 N.3       2 RES2    0.0000
     19 N6         0.8902    4.8020    1.5811 N.am      2 RES2    0.0000
     20 C1        -1.0241   10.1055    5.9511 C.ar      1 RES1    0.0000
     21 C2        -1.6068    8.9167    5.5506 C.ar      1 RES1    0.0000
     22 H1        -2.2821    8.9066    4.8831 H         1 RES1    0.0000
     23 C3        -1.1813    7.7452    6.1469 C.ar      1 RES1    0.0000
     24 H2        -1.5892    6.9214    5.9051 H         1 RES1    0.0000
     25 C4        -0.1647    7.7554    7.0949 C.ar      1 RES1    0.0000
     26 C5         0.4023    8.9719    7.4623 C.ar      1 RES1    0.0000
     27 H3         1.1000    8.9843    8.1074 H         1 RES1    0.0000
     28 C6        -0.0313   10.1637    6.9065 C.ar      1 RES1    0.0000
     29 H4         0.3426   10.9948    7.1747 H         1 RES1    0.0000
     30 C7         0.3055    6.4827    7.7494 C.3       1 RES1    0.0000
     31 H5         1.2341    6.6008    8.0999 H         1 RES1    0.0000
     32 C8         1.4958    5.1783    5.9788 C.3       1 RES1    0.0000
     33 H6         1.9408    6.0520    5.8418 H         1 RES1    0.0000
     34 H7         1.2734    4.7951    5.0934 H         1 RES1    0.0000
     35 C9         2.4052    4.2383    6.7467 C.3       1 RES1    0.0000
     36 H8         2.8205    3.5761    6.1397 H         1 RES1    0.0000
     37 H9         3.1208    4.7420    7.2101 H         1 RES1    0.0000
     38 C10        1.5061    3.5629    7.7341 C.2       1 RES1    0.0000
     39 C11       -0.5435    4.4847    8.7912 C.2       1 RES1    0.0000
     40 C12       -0.6252    5.9945    8.8753 C.3       1 RES1    0.0000
     41 H10       -0.3127    6.3175    9.7568 H         1 RES1    0.0000
     42 H11       -1.5536    6.3076    8.7292 H         1 RES1    0.0000
     43 C13       -1.1176    3.5269    9.5366 C.2       1 RES1    0.0000
     44 C14       -1.9498    3.8086   10.7250 C.2       1 RES1    0.0000
     45 C15       -2.9252    5.4322   12.1564 C.3       1 RES1    0.0000
     46 H12       -3.7110    4.8286   12.1546 H         1 RES1    0.0000
     47 H13       -3.2537    6.3615   12.0634 H         1 RES1    0.0000
     48 C16       -2.2015    5.2924   13.4491 C.3       1 RES1    0.0000
     49 H14       -2.7486    5.6639   14.1726 H         1 RES1    0.0000
     50 H15       -1.3509    5.7768   13.4019 H         1 RES1    0.0000
     51 H16       -2.0272    4.3443   13.6253 H         1 RES1    0.0000
     52 C17       -1.0958    2.0720    9.1596 C.3       1 RES1    0.0000
     53 H17       -0.6332    1.9805    8.2898 H         1 RES1    0.0000
     54 H18       -2.0286    1.7661    9.0345 H         1 RES1    0.0000
     55 C18       -0.4226    1.1602   10.1574 C.2       1 RES1    0.0000
     56 C19       -0.2127   -1.1423   10.7397 C.3       1 RES1    0.0000
     57 H19        0.6824   -0.8789   11.0730 H         1 RES1    0.0000
     58 H20       -0.1176   -1.9923   10.2408 H         1 RES1    0.0000
     59 C20       -1.1241   -1.3375   11.8781 C.3       1 RES1    0.0000
     60 H21       -0.7913   -2.0645   12.4431 H         1 RES1    0.0000
     61 H22       -2.0180   -1.5648   11.5458 H         1 RES1    0.0000
     62 H23       -1.1728   -0.5107   12.4040 H         1 RES1    0.0000
     63 C21        1.3733   10.7208    3.5665 C.ar      2 RES2    0.0000
     64 C22        1.8767    9.5529    4.1118 C.ar      2 RES2    0.0000
     65 H24        2.4504    9.5738    4.8682 H         2 RES2    0.0000
     66 C23        1.5210    8.3574    3.5244 C.ar      2 RES2    0.0000
     67 H25        1.8493    7.5421    3.8852 H         2 RES2    0.0000
     68 C24        0.6902    8.3279    2.4136 C.ar      2 RES2    0.0000
     69 C25        0.1739    9.5173    1.9197 C.ar      2 RES2    0.0000
     70 H26       -0.4253    9.4981    1.1821 H         2 RES2    0.0000
     71 C26        0.5202   10.7312    2.4869 C.ar      2 RES2    0.0000
     72 H27        0.1787   11.5474    2.1409 H         2 RES2    0.0000
     73 C27        0.4274    7.0465    1.6637 C.3       2 RES2    0.0000
     74 H28       -0.4813    7.0799    1.2473 H         2 RES2    0.0000
     75 C28       -0.7521    5.3879    3.1024 C.3       2 RES2    0.0000
     76 H29       -1.5173    5.7759    2.6100 H         2 RES2    0.0000
     77 H30       -0.8233    5.6414    4.0565 H         2 RES2    0.0000
     78 C29       -0.7164    3.8763    2.9447 C.3       2 RES2    0.0000
     79 H31       -0.3223    3.4461    3.7437 H         2 RES2    0.0000
     80 H32       -1.6262    3.5143    2.7999 H         2 RES2    0.0000
     81 C30        0.1455    3.6575    1.7376 C.2       2 RES2    0.0000
     82 C31        1.6779    5.3111    0.5482 C.2       2 RES2    0.0000
     83 C32        1.4841    6.8090    0.5773 C.3       2 RES2    0.0000
     84 H33        1.1657    7.1393   -0.2997 H         2 RES2    0.0000
     85 H34        2.3312    7.2684    0.8042 H         2 RES2    0.0000
     86 C33        2.5420    4.5914   -0.1891 C.2       2 RES2    0.0000
     87 C34        3.1903    5.2604   -1.3376 C.2       2 RES2    0.0000
     88 C35        4.7958    4.9338   -3.0719 C.3       2 RES2    0.0000
     89 H35        5.7813    4.8549   -3.0419 H         2 RES2    0.0000
     90 H36        4.5642    5.8764   -3.2653 H         2 RES2    0.0000
     91 C36        4.2435    4.0429   -4.1440 C.3       2 RES2    0.0000
     92 H37        4.6578    4.2699   -5.0022 H         2 RES2    0.0000
     93 H38        3.2739    4.1700   -4.2054 H         2 RES2    0.0000
     94 H39        4.4378    3.1081   -3.9243 H         2 RES2    0.0000
     95 C37        2.9520    3.1824    0.1191 C.3       2 RES2    0.0000
     96 H40        2.5344    2.9070    0.9736 H         2 RES2    0.0000
     97 H41        3.9337    3.1532    0.2402 H         2 RES2    0.0000
     98 C38        2.5639    2.1995   -0.9515 C.2       2 RES2    0.0000
     99 O14        2.9280    0.9543   -0.5213 O.3       2 RES2    0.0000
    100 C39        2.7409   -0.1529   -1.4483 C.3       2 RES2    0.0000
    101 H42        2.0145    0.0645   -2.0850 H         2 RES2    0.0000
    102 H43        2.4804   -0.9665   -0.9476 H         2 RES2    0.0000
    103 C40        4.0073   -0.4096   -2.1986 C.3       2 RES2    0.0000
    104 H44        4.1628    0.3192   -2.8371 H         2 RES2    0.0000
    105 H45        3.9341   -1.2578   -2.6845 H         2 RES2    0.0000
    106 H46        4.7570   -0.4568   -1.5694 H         2 RES2    0.0000
    107 C41        3.0421    0.0662   -1.8598 Du        3 SUP3    0.0000
    108 C42        4.1137   -0.9340   -1.6066 Du        3 SUP3    0.0000
    109 H47        3.1105    0.4357   -2.7738 Du        3 SUP3    0.0000
    110 H48        2.1451   -0.3386   -1.7425 Du        3 SUP3    0.0000
    111 H49        4.9879   -0.5219   -1.7611 Du        3 SUP3    0.0000
    112 H50        3.9991   -1.6956   -2.2116 Du        3 SUP3    0.0000
    113 H51        4.0585   -1.2445   -0.6776 Du        3 SUP3    0.0000
    114 O15        3.2801    1.0917   -0.8675 Du        3 SUP3    0.0000
@<TRIPOS>BOND
     1    1   14 2
     2    2   14 2
     3    3   38 2
     4    4   44 2
     5    5   44 1
     6    6   55 2
     7    7   55 1
     8    8   17 2
     9    9   17 2
    10   10   81 2
    11   11   87 2
    12   12   87 1
    13   13   98 2
    14   14   20 1
    15   15   16 1
    16   16   38 1
    17   17   63 1
    18   18   19 1
    19   19   81 1
    20   20   21 ar
    21   21   22 1
    22   23   21 ar
    23   24   23 1
    24   25   23 ar
    25   26   25 ar
    26   27   26 1
    27   28   20 ar
    28   29   28 1
    29   30   15 1
    30   31   30 1
    31   32   15 1
    32   33   32 1
    33   34   32 1
    34   35   32 1
    35   36   35 1
    36   37   35 1
    37   38   35 1
    38   39   16 1
    39   40   30 1
    40   41   40 1
    41   42   40 1
    42   43   39 2
    43   44   43 1
    44   45    5 1
    45   46   45 1
    46   47   45 1
    47   48   45 1
    48   49   48 1
    49   50   48 1
    50   51   48 1
    51   52   43 1
    52   53   52 1
    53   54   52 1
    54   55   52 1
    55   56    7 1
    56   57   56 1
    57   58   56 1
    58   59   56 1
    59   60   59 1
    60   61   59 1
    61   62   59 1
    62   63   64 ar
    63   64   65 1
    64   66   64 ar
    65   67   66 1
    66   68   66 ar
    67   69   68 ar
    68   70   69 1
    69   71   63 ar
    70   72   71 1
    71   73   18 1
    72   74   73 1
    73   75   18 1
    74   76   75 1
    75   77   75 1
    76   78   75 1
    77   79   78 1
    78   80   78 1
    79   81   78 1
    80   82   19 1
    81   83   73 1
    82   84   83 1
    83   85   83 1
    84   86   82 2
    85   87   86 1
    86   88   12 1
    87   89   88 1
    88   90   88 1
    89   91   88 1
    90   92   91 1
    91   93   91 1
    92   94   91 1
    93   95   86 1
    94   96   95 1
    95   97   95 1
    96   98   95 1
    97   99   98 1
    98  100   99 1
    99  101  100 1
   100  102  100 1
   101  103  100 1
   102  104  103 1
   103  105  103 1
   104  106  103 1
   105   25   30 1
   106   26   28 ar
   107   39   40 1
   108   68   73 1
   109   69   71 ar
   110   82   83 1
@<TRIPOS>SUBSTRUCTURE
     1 RES1 1
     2 RES2 8
     3 SUP3 107

@<TRIPOS>CRYSIN
  10.0906   10.7020   19.3650  94.6220 104.7150  95.7030   2 1

