# MOL2 file generated by ConQuest
# Please check atom types

@<TRIPOS>MOLECULE
UZIRUR
    89    86     3
SMALL
NO_CHARGES
****
Generated from CSD

@<TRIPOS>ATOM
      1 O1        10.2020    1.9753   11.5853 O.2       1 RES1    0.0000
      2 O2         9.4479    2.6532    9.6967 O.2       1 RES1    0.0000
      3 O3         9.4803   11.5317   11.5264 O.2       1 RES1    0.0000
      4 O4         8.8478   13.3909   12.6468 O.3       1 RES1    0.0000
      5 O5         7.1789   10.7939   16.4089 O.2       1 RES1    0.0000
      6 N1         9.6568    2.8111   10.8874 N.pl3     1 RES1    0.0000
      7 N2         8.0912    7.8856   14.6564 N.3       1 RES1    0.0000
      8 N3         7.9541    9.3150   14.8373 N.am      1 RES1    0.0000
      9 C1         9.2294    4.0762   11.4986 C.ar      1 RES1    0.0000
     10 C2         8.5809    5.0122   10.7037 C.ar      1 RES1    0.0000
     11 H1         8.4235    4.8427    9.7817 H         1 RES1    0.0000
     12 C3         8.1706    6.1966   11.2873 C.ar      1 RES1    0.0000
     13 H2         7.7230    6.8487   10.7609 H         1 RES1    0.0000
     14 C4         8.4068    6.4467   12.6419 C.ar      1 RES1    0.0000
     15 C5         9.0642    5.4874   13.4123 C.ar      1 RES1    0.0000
     16 H3         9.2292    5.6554   14.3320 H         1 RES1    0.0000
     17 C6         9.4803    4.2860   12.8454 C.ar      1 RES1    0.0000
     18 H4         9.9244    3.6284   13.3672 H         1 RES1    0.0000
     19 C7         7.9104    7.7576   13.1980 C.3       1 RES1    0.0000
     20 H5         6.9394    7.8567   12.9813 H         1 RES1    0.0000
     21 C8         8.6705    8.9940   12.6716 C.3       1 RES1    0.0000
     22 H6         9.6409    8.8127   12.5940 H         1 RES1    0.0000
     23 H7         8.3226    9.2810   11.7904 H         1 RES1    0.0000
     24 C9         8.3885   10.0248   13.7341 C.2       1 RES1    0.0000
     25 C10        7.3525    9.6532   16.0227 C.2       1 RES1    0.0000
     26 C11        6.9841    8.3408   16.6826 C.3       1 RES1    0.0000
     27 H8         6.0829    8.3868   17.0895 H         1 RES1    0.0000
     28 H9         7.6422    8.0948   17.3804 H         1 RES1    0.0000
     29 C12        7.0146    7.3485   15.5228 C.3       1 RES1    0.0000
     30 H10        7.2311    6.4350   15.8382 H         1 RES1    0.0000
     31 H11        6.1475    7.3299   15.0462 H         1 RES1    0.0000
     32 C13        8.5019   11.3677   13.6984 C.2       1 RES1    0.0000
     33 H12        8.2544   11.8769   14.4601 H         1 RES1    0.0000
     34 C14        8.9975   12.0503   12.5087 C.2       1 RES1    0.0000
     35 C15        9.3217   14.2005   11.5457 C.3       1 RES1    0.0000
     36 H13       10.0322   13.7151   11.0561 H         1 RES1    0.0000
     37 H14        9.7077   15.0430   11.8927 H         1 RES1    0.0000
     38 C16        8.1822   14.5103   10.6123 C.3       1 RES1    0.0000
     39 H15        7.8342   13.6756   10.2338 H         1 RES1    0.0000
     40 H16        8.5007   15.0889    9.8883 H         1 RES1    0.0000
     41 H17        7.4701   14.9670   11.1065 H         1 RES1    0.0000
     42 O6         6.0979    4.2017   14.4059 O.2       2 RES2    0.0000
     43 O7         6.5853    2.7312   12.8925 O.2       2 RES2    0.0000
     44 O8         5.0158   11.3950    9.0967 O.2       2 RES2    0.0000
     45 O9         2.7583    8.5070    5.0988 O.2       2 RES2    0.0000
     46 N4         6.0636    3.7822   13.2490 N.pl3     2 RES2    0.0000
     47 N5         3.7877    6.6620    7.9099 N.3       2 RES2    0.0000
     48 N6         3.6109    7.8682    7.1300 N.am      2 RES2    0.0000
     49 C17        5.3855    4.6017   12.2367 C.ar      2 RES2    0.0000
     50 C18        5.4027    4.1817   10.9181 C.ar      2 RES2    0.0000
     51 H18        5.7866    3.3455   10.6788 H         2 RES2    0.0000
     52 C19        4.8447    5.0121    9.9509 C.ar      2 RES2    0.0000
     53 H19        4.8517    4.7450    9.0401 H         2 RES2    0.0000
     54 C20        4.2756    6.2335   10.3077 C.ar      2 RES2    0.0000
     55 C21        4.2566    6.6111   11.6515 C.ar      2 RES2    0.0000
     56 H20        3.8579    7.4360   11.9013 H         2 RES2    0.0000
     57 C22        4.8125    5.7958   12.6276 C.ar      2 RES2    0.0000
     58 H21        4.7990    6.0525   13.5414 H         2 RES2    0.0000
     59 C23        3.6584    7.1660    9.2938 C.3       2 RES2    0.0000
     60 H22        2.6897    7.2908    9.5095 H         2 RES2    0.0000
     61 C24        4.3430    8.5510    9.2138 C.3       2 RES2    0.0000
     62 H23        3.9719    9.1738    9.8883 H         2 RES2    0.0000
     63 H24        5.3217    8.4753    9.3454 H         2 RES2    0.0000
     64 C25        4.0125    9.0021    7.8118 C.2       2 RES2    0.0000
     65 C26        2.9774    7.6474    5.9344 C.2       2 RES2    0.0000
     66 C27        2.6490    6.1716    5.9126 C.3       2 RES2    0.0000
     67 H25        3.3181    5.6637    5.3898 H         2 RES2    0.0000
     68 H26        1.7491    6.0105    5.5338 H         2 RES2    0.0000
     69 C28        2.7021    5.7954    7.3947 C.3       2 RES2    0.0000
     70 H27        1.8426    5.9905    7.8449 H         2 RES2    0.0000
     71 H28        2.9210    4.8379    7.5137 H         2 RES2    0.0000
     72 C29        4.0527   10.2264    7.2510 C.2       2 RES2    0.0000
     73 H29        3.8000   10.3310    6.3416 H         2 RES2    0.0000
     74 C30        4.4774   11.3940    8.0140 C.2       2 RES2    0.0000
     75 O10        4.1861   12.5316    7.3339 O.3       2 RES2    0.0000
     76 C31        4.6257   13.7596    8.0107 C.3       2 RES2    0.0000
     77 H30        5.5606   13.6661    8.3230 H         2 RES2    0.0000
     78 H31        4.0485   13.9489    8.7924 H         2 RES2    0.0000
     79 C32        4.5178   14.8663    6.9981 C.3       2 RES2    0.0000
     80 H32        4.7817   15.7139    7.4115 H         2 RES2    0.0000
     81 H33        3.5928   14.9312    6.6814 H         2 RES2    0.0000
     82 H34        5.1097   14.6746    6.2408 H         2 RES2    0.0000
     83 C33        4.1181   13.8062    7.9803 Du        3 SUP3    0.0000
     84 C34        5.4422   14.4389    7.6520 Du        3 SUP3    0.0000
     85 H35        4.0055   13.7026    8.9580 Du        3 SUP3    0.0000
     86 H36        3.3686   14.3445    7.6232 Du        3 SUP3    0.0000
     87 H37        5.5192   15.2953    8.1214 Du        3 SUP3    0.0000
     88 H38        5.5029   14.5877    6.6858 Du        3 SUP3    0.0000
     89 H39        6.1677   13.8439    7.9371 Du        3 SUP3    0.0000
@<TRIPOS>BOND
     1    1    6 2
     2    2    6 2
     3    3   34 2
     4    4   34 1
     5    5   25 2
     6    6    9 1
     7    7    8 1
     8    8   24 1
     9    9   10 ar
    10   10   11 1
    11   12   10 ar
    12   13   12 1
    13   14   12 ar
    14   15   14 ar
    15   16   15 1
    16   17    9 ar
    17   18   17 1
    18   19    7 1
    19   20   19 1
    20   21   19 1
    21   22   21 1
    22   23   21 1
    23   24   21 1
    24   25    8 1
    25   26   25 1
    26   27   26 1
    27   28   26 1
    28   29    7 1
    29   30   29 1
    30   31   29 1
    31   32   24 2
    32   33   32 1
    33   34   32 1
    34   35    4 1
    35   36   35 1
    36   37   35 1
    37   38   35 1
    38   39   38 1
    39   40   38 1
    40   41   38 1
    41   42   46 2
    42   43   46 2
    43   44   74 2
    44   45   65 2
    45   46   49 1
    46   47   48 1
    47   48   64 1
    48   49   50 ar
    49   50   51 1
    50   52   50 ar
    51   53   52 1
    52   54   52 ar
    53   55   54 ar
    54   56   55 1
    55   57   49 ar
    56   58   57 1
    57   59   47 1
    58   60   59 1
    59   61   59 1
    60   62   61 1
    61   63   61 1
    62   64   61 1
    63   65   48 1
    64   66   65 1
    65   67   66 1
    66   68   66 1
    67   69   47 1
    68   70   69 1
    69   71   69 1
    70   72   64 2
    71   73   72 1
    72   74   72 1
    73   75   74 1
    74   76   75 1
    75   77   76 1
    76   78   76 1
    77   79   76 1
    78   80   79 1
    79   81   79 1
    80   82   79 1
    81   14   19 1
    82   15   17 ar
    83   26   29 1
    84   54   59 1
    85   55   57 ar
    86   66   69 1
@<TRIPOS>SUBSTRUCTURE
     1 RES1 1
     2 RES2 42
     3 SUP3 83

@<TRIPOS>CRYSIN
   7.5943   14.3844   14.7836  77.3370  84.9620  81.6700   2 1

