# MOL2 file generated by ConQuest
# Please check atom types

@<TRIPOS>MOLECULE
UZISEC
    41    43     1
SMALL
NO_CHARGES
****
Generated from CSD

@<TRIPOS>ATOM
      1 O1         9.3223   10.5712    7.5018 O.2       1 RES1    0.0000
      2 O2         4.4895    7.5233    4.3970 O.2       1 RES1    0.0000
      3 O3         5.0458    7.7754    2.2455 O.3       1 RES1    0.0000
      4 O4         9.8298    6.0772   -1.6996 O.2       1 RES1    0.0000
      5 O5         9.5611    8.1224   -2.3356 O.2       1 RES1    0.0000
      6 N1         8.2225    9.8787    5.6143 N.am      1 RES1    0.0000
      7 N2         8.5106    9.6031    4.2323 N.3       1 RES1    0.0000
      8 N3         9.4708    7.2330   -1.4931 N.pl3     1 RES1    0.0000
      9 C1         7.5625    8.5834    3.7318 C.3       1 RES1    0.0000
     10 H1         7.6099    7.7732    4.3166 H         1 RES1    0.0000
     11 C2         6.1340    9.1830    3.8044 C.3       1 RES1    0.0000
     12 H2         6.0391    9.8926    3.1060 H         1 RES1    0.0000
     13 C3         5.9058    9.7911    5.1617 C.2       1 RES1    0.0000
     14 H3         5.0149    9.9677    5.4401 H         1 RES1    0.0000
     15 C4         6.9023   10.0878    5.9826 C.2       1 RES1    0.0000
     16 H4         6.7086   10.4511    6.8388 H         1 RES1    0.0000
     17 C5         9.3312   10.1463    6.3562 C.2       1 RES1    0.0000
     18 C6        10.5207    9.8214    5.4855 C.3       1 RES1    0.0000
     19 H5        11.1644    9.2427    5.9661 H         1 RES1    0.0000
     20 H6        10.9844   10.6472    5.1962 H         1 RES1    0.0000
     21 C7         9.9133    9.0902    4.2924 C.3       1 RES1    0.0000
     22 H7        10.4047    9.3035    3.4596 H         1 RES1    0.0000
     23 H8         9.9275    8.1109    4.4332 H         1 RES1    0.0000
     24 C8         5.1219    8.0841    3.5389 C.2       1 RES1    0.0000
     25 C9         4.2239    6.6279    1.8992 C.3       1 RES1    0.0000
     26 H9         3.2857    6.7860    2.1745 H         1 RES1    0.0000
     27 H10        4.5539    5.8194    2.3665 H         1 RES1    0.0000
     28 C10        4.2961    6.4290    0.4261 C.3       1 RES1    0.0000
     29 H11        3.8173    5.6091    0.1822 H         1 RES1    0.0000
     30 H12        5.2340    6.3538    0.1528 H         1 RES1    0.0000
     31 H13        3.8844    7.1943   -0.0274 H         1 RES1    0.0000
     32 C11        7.9992    8.2152    2.3348 C.ar      1 RES1    0.0000
     33 C12        8.3669    6.9076    2.0408 C.ar      1 RES1    0.0000
     34 H14        8.2992    6.2372    2.7112 H         1 RES1    0.0000
     35 C13        8.8318    6.5718    0.7758 C.ar      1 RES1    0.0000
     36 H15        9.0808    5.6788    0.5691 H         1 RES1    0.0000
     37 C14        8.9221    7.5706   -0.1732 C.ar      1 RES1    0.0000
     38 C15        8.5433    8.8718    0.0756 C.ar      1 RES1    0.0000
     39 H16        8.5979    9.5331   -0.6043 H         1 RES1    0.0000
     40 C16        8.0804    9.1933    1.3438 C.ar      1 RES1    0.0000
     41 H17        7.8170   10.0848    1.5378 H         1 RES1    0.0000
@<TRIPOS>BOND
     1    1   17 2
     2    2   24 2
     3    3   24 1
     4    4    8 2
     5    5    8 2
     6    6    7 1
     7    7    9 1
     8    8   37 1
     9    9   10 1
    10   11    9 1
    11   12   11 1
    12   13   11 1
    13   14   13 1
    14   15    6 1
    15   16   15 1
    16   17    6 1
    17   18   17 1
    18   19   18 1
    19   20   18 1
    20   21    7 1
    21   22   21 1
    22   23   21 1
    23   24   11 1
    24   25    3 1
    25   26   25 1
    26   27   25 1
    27   28   25 1
    28   29   28 1
    29   30   28 1
    30   31   28 1
    31   32    9 1
    32   33   32 ar
    33   34   33 1
    34   35   33 ar
    35   36   35 1
    36   37   35 ar
    37   38   37 ar
    38   39   38 1
    39   40   32 ar
    40   41   40 1
    41   13   15 2
    42   18   21 1
    43   38   40 ar
@<TRIPOS>SUBSTRUCTURE
     1 RES1 1

@<TRIPOS>CRYSIN
   8.3908    9.8594   10.8783  65.9130  75.6860  75.6280   2 1

