# MOL2 file generated by ConQuest
# Please check atom types

@<TRIPOS>MOLECULE
UZITAZ
    53    55     1
SMALL
NO_CHARGES
****
Generated from CSD

@<TRIPOS>ATOM
      1 O1         5.5162    3.3429    4.2254 O.2       1 RES1    0.0000
      2 O2         7.3614    4.3060    3.6400 O.2       1 RES1    0.0000
      3 O3         0.5245   12.4634    4.6715 O.2       1 RES1    0.0000
      4 O4         3.4797   11.9368    2.3287 O.2       1 RES1    0.0000
      5 O5         1.9190   11.2881    0.8478 O.3       1 RES1    0.0000
      6 O6         2.8119    7.9019   -0.1105 O.2       1 RES1    0.0000
      7 O7         0.8014    7.0649    0.4274 O.3       1 RES1    0.0000
      8 N1         6.1676    4.3378    3.9216 N.pl3     1 RES1    0.0000
      9 N2         2.3522    9.4690    4.5883 N.3       1 RES1    0.0000
     10 N3         1.3508   10.3896    4.1455 N.am      1 RES1    0.0000
     11 C1         5.4760    5.6400    3.8905 C.ar      1 RES1    0.0000
     12 C2         4.1065    5.6635    4.0465 C.ar      1 RES1    0.0000
     13 H1         3.6185    4.8602    4.1926 H         1 RES1    0.0000
     14 C3         3.4577    6.8888    3.9851 C.ar      1 RES1    0.0000
     15 H2         2.5152    6.9273    4.0999 H         1 RES1    0.0000
     16 C4         4.1711    8.0674    3.7569 C.ar      1 RES1    0.0000
     17 C5         5.5567    8.0074    3.6347 C.ar      1 RES1    0.0000
     18 H3         6.0509    8.8078    3.5080 H         1 RES1    0.0000
     19 C6         6.2271    6.7891    3.6954 C.ar      1 RES1    0.0000
     20 H4         7.1714    6.7453    3.6058 H         1 RES1    0.0000
     21 C7         3.4612    9.4001    3.5936 C.3       1 RES1    0.0000
     22 H5         4.1115   10.1329    3.7904 H         1 RES1    0.0000
     23 C8         2.8194   10.0695    5.8699 C.3       1 RES1    0.0000
     24 H6         3.7806    9.8817    6.0161 H         1 RES1    0.0000
     25 H7         2.3039    9.7112    6.6345 H         1 RES1    0.0000
     26 C9         2.5782   11.5700    5.7101 C.3       1 RES1    0.0000
     27 H8         2.3877   12.0018    6.5808 H         1 RES1    0.0000
     28 H9         3.3522   12.0180    5.2860 H         1 RES1    0.0000
     29 C10        1.3653   11.5886    4.8070 C.2       1 RES1    0.0000
     30 C11        0.1736    9.7946    3.5532 C.3       1 RES1    0.0000
     31 H10       -0.4358   10.5131    3.2507 H         1 RES1    0.0000
     32 H11       -0.3014    9.2618    4.2397 H         1 RES1    0.0000
     33 C12        0.5056    8.9133    2.3940 C.2       1 RES1    0.0000
     34 H12       -0.2048    8.3907    2.0412 H         1 RES1    0.0000
     35 C13        1.6939    8.7824    1.8010 C.2       1 RES1    0.0000
     36 C14        2.9352    9.5830    2.1553 C.3       1 RES1    0.0000
     37 H13        3.6590    9.2364    1.5581 H         1 RES1    0.0000
     38 C15        2.8035   11.0722    1.8201 C.2       1 RES1    0.0000
     39 C16        1.7204   12.6821    0.4443 C.3       1 RES1    0.0000
     40 H14        1.4321   12.7162   -0.5022 H         1 RES1    0.0000
     41 H15        2.5741   13.1771    0.5250 H         1 RES1    0.0000
     42 C17        0.6795   13.3290    1.3125 C.3       1 RES1    0.0000
     43 H16       -0.1698   12.8499    1.2169 H         1 RES1    0.0000
     44 H17        0.5597   14.2626    1.0390 H         1 RES1    0.0000
     45 H18        0.9686   13.2970    2.2478 H         1 RES1    0.0000
     46 C18        1.8459    7.8883    0.6182 C.2       1 RES1    0.0000
     47 C19        0.8779    6.2434   -0.7730 C.3       1 RES1    0.0000
     48 H19        1.5902    5.5631   -0.6765 H         1 RES1    0.0000
     49 H20        1.0874    6.8075   -1.5595 H         1 RES1    0.0000
     50 C20       -0.4558    5.5769   -0.9533 C.3       1 RES1    0.0000
     51 H21       -0.6203    4.9662   -0.2044 H         1 RES1    0.0000
     52 H22       -0.4585    5.0722   -1.7934 H         1 RES1    0.0000
     53 H23       -1.1605    6.2567   -0.9794 H         1 RES1    0.0000
@<TRIPOS>BOND
     1    1    8 2
     2    2    8 2
     3    3   29 2
     4    4   38 2
     5    5   38 1
     6    6   46 2
     7    7   46 1
     8    8   11 1
     9    9   10 1
    10   10   29 1
    11   11   12 ar
    12   12   13 1
    13   14   12 ar
    14   15   14 1
    15   16   14 ar
    16   17   16 ar
    17   18   17 1
    18   19   11 ar
    19   20   19 1
    20   21    9 1
    21   22   21 1
    22   23    9 1
    23   24   23 1
    24   25   23 1
    25   26   23 1
    26   27   26 1
    27   28   26 1
    28   29   26 1
    29   30   10 1
    30   31   30 1
    31   32   30 1
    32   33   30 1
    33   34   33 1
    34   35   33 2
    35   36   21 1
    36   37   36 1
    37   38   36 1
    38   39    5 1
    39   40   39 1
    40   41   39 1
    41   42   39 1
    42   43   42 1
    43   44   42 1
    44   45   42 1
    45   46   35 1
    46   47    7 1
    47   48   47 1
    48   49   47 1
    49   50   47 1
    50   51   50 1
    51   52   50 1
    52   53   50 1
    53   16   21 1
    54   17   19 ar
    55   35   36 1
@<TRIPOS>SUBSTRUCTURE
     1 RES1 1

@<TRIPOS>CRYSIN
  11.7590   23.0450    7.7057  90.0000 107.4060  90.0000  14 1

