# MOL2 file generated by ConQuest
# Please check atom types

@<TRIPOS>MOLECULE
UZUBAU
    50    52     2
SMALL
NO_CHARGES
****
Generated from CSD

@<TRIPOS>ATOM
      1 O1         2.0592    2.1853   10.0312 O.2       1 RES1    0.0000
      2 O2        -2.1963    0.8193   10.8051 O.2       1 RES1    0.0000
      3 C1        -0.8263    4.0208   10.9280 C.2       1 RES1    0.0000
      4 H1        -1.1177    4.8879   11.0938 H         1 RES1    0.0000
      5 C2         1.4070    4.9548   10.6540 C.2       1 RES1    0.0000
      6 N1        -0.0476    1.4961   10.4776 N.am      1 RES1    0.0000
      7 O3         2.0916    7.0025   10.8492 O.3       1 RES1    0.0000
      8 C3        -1.3797    1.7121   10.7529 C.2       1 RES1    0.0000
      9 N2         0.9880    6.1593   10.9361 N.2       1 RES1    0.0000
     10 C4         0.4803    3.8334   10.6634 C.2       1 RES1    0.0000
     11 N3        -1.7341    3.0295   10.9665 N.am      1 RES1    0.0000
     12 C5         2.8049    4.9548   10.3921 C.2       1 RES1    0.0000
     13 H2         3.3516    4.2321   10.1836 H         1 RES1    0.0000
     14 C6         3.1475    6.2482   10.5177 C.2       1 RES1    0.0000
     15 C7         0.9399    2.4932   10.3573 C.2       1 RES1    0.0000
     16 C8         0.3418    0.1071   10.2183 C.3       1 RES1    0.0000
     17 H3        -0.4196   -0.4656   10.3292 H         1 RES1    0.0000
     18 H4         1.0303   -0.1520   10.8358 H         1 RES1    0.0000
     19 H5         0.6723    0.0306    9.3201 H         1 RES1    0.0000
     20 N4         5.3570    7.5177   10.2878 N.1       1 RES1    0.0000
     21 C9        -3.1538    3.3096   11.2248 C.3       1 RES1    0.0000
     22 H6        -3.2754    4.2541   11.3477 H         1 RES1    0.0000
     23 H7        -3.4326    2.8459   12.0174 H         1 RES1    0.0000
     24 H8        -3.6804    3.0132   10.4789 H         1 RES1    0.0000
     25 C10        4.3818    6.9394   10.3867 C.1       1 RES1    0.0000
     26 O4        10.3789    0.8231    6.9998 O.2       2 RES2    0.0000
     27 O5        14.6405    2.1787    7.7830 O.2       2 RES2    0.0000
     28 N5        12.5218    1.5047    7.3524 N.am      2 RES2    0.0000
     29 C11       11.7258    4.0476    6.9998 C.2       2 RES2    0.0000
     30 H9        11.4268    4.9185    6.8648 H         2 RES2    0.0000
     31 C12       13.5004    2.4989    7.4943 C.2       2 RES2    0.0000
     32 C13       13.9780    4.9691    7.2962 C.2       2 RES2    0.0000
     33 N6        13.5641    6.1679    6.9904 N.2       2 RES2    0.0000
     34 N7        10.8337    3.0419    6.9142 N.am      2 RES2    0.0000
     35 C14       13.0326    3.8506    7.2711 C.2       2 RES2    0.0000
     36 O6        14.6755    7.0092    7.0880 O.3       2 RES2    0.0000
     37 C15       15.3678    4.9615    7.5558 C.2       2 RES2    0.0000
     38 H10       15.9058    4.2330    7.7670 H         2 RES2    0.0000
     39 C16       11.1938    1.7169    7.0867 C.2       2 RES2    0.0000
     40 C17       15.7299    6.2454    7.4302 C.2       2 RES2    0.0000
     41 C18        9.4215    3.3105    6.6349 C.3       2 RES2    0.0000
     42 H11        9.2885    4.2560    6.5373 H         2 RES2    0.0000
     43 H12        8.8835    2.9855    7.3607 H         2 RES2    0.0000
     44 H13        9.1654    2.8660    5.8236 H         2 RES2    0.0000
     45 C19       12.9965    0.1071    7.4743 C.3       2 RES2    0.0000
     46 H14       12.2562   -0.4933    7.3647 H         2 RES2    0.0000
     47 H15       13.3885   -0.0229    8.3417 H         2 RES2    0.0000
     48 H16       13.6541   -0.0669    6.7966 H         2 RES2    0.0000
     49 C20       16.9830    6.9136    7.5451 C.1       2 RES2    0.0000
     50 N8        17.9663    7.4709    7.6146 N.1       2 RES2    0.0000
@<TRIPOS>BOND
     1    1   15 2
     2    2    8 2
     3    3    4 1
     4    5    9 2
     5    6    8 1
     6    7    9 1
     7    8   11 1
     8   10    3 2
     9   11    3 1
    10   12    5 1
    11   13   12 1
    12   14    7 1
    13   15    6 1
    14   16    6 1
    15   17   16 1
    16   18   16 1
    17   19   16 1
    18   20   25 3
    19   21   11 1
    20   22   21 1
    21   23   21 1
    22   24   21 1
    23   25   14 1
    24   26   39 2
    25   27   31 2
    26   28   31 1
    27   29   30 1
    28   31   35 1
    29   32   33 2
    30   33   36 1
    31   34   29 1
    32   35   29 2
    33   36   40 1
    34   37   32 1
    35   38   37 1
    36   39   28 1
    37   40   37 2
    38   41   34 1
    39   42   41 1
    40   43   41 1
    41   44   41 1
    42   45   28 1
    43   46   45 1
    44   47   45 1
    45   48   45 1
    46   49   40 1
    47   50   49 3
    48    5   10 1
    49   10   15 1
    50   12   14 2
    51   32   35 1
    52   34   39 1
@<TRIPOS>SUBSTRUCTURE
     1 RES1 1
     2 RES2 26

@<TRIPOS>CRYSIN
  16.1990    9.5597   13.3660  90.0000  90.0000  90.0000  33 1

