# MOL2 file generated by ConQuest
# Please check atom types

@<TRIPOS>MOLECULE
VABJUD
    15    16     1
SMALL
NO_CHARGES
****
Generated from CSD

@<TRIPOS>ATOM
      1 N1         7.5321    0.7726    8.1306 N.2       1 RES1    0.0000
      2 N2         8.5097   -0.1942    8.0250 N.2       1 RES1    0.0000
      3 N3         8.7467   -0.7692    9.1489 N.2       1 RES1    0.0000
      4 N4         7.8852   -0.2059   10.0284 N.pl3     1 RES1    0.0000
      5 N5         7.8607   -0.5197   11.3622 N.3       1 RES1    0.0000
      6 N6         6.9157   -1.6579   11.5723 N.pl3     1 RES1    0.0000
      7 N7         6.2994    1.5011   10.1264 N.pl3     1 RES1    0.0000
      8 N8         5.2953    2.2157    9.4963 N.pl3     1 RES1    0.0000
      9 O1         6.7790   -2.3960   10.6304 O.2       1 RES1    0.0000
     10 O2         6.4704   -1.7526   12.6770 O.2       1 RES1    0.0000
     11 O3         5.3845    2.3857    8.3024 O.2       1 RES1    0.0000
     12 O4         4.4158    2.6303   10.2256 O.2       1 RES1    0.0000
     13 C1         7.1743    0.7381    9.3856 C.2       1 RES1    0.0000
     14 C2         7.4539    0.6835   12.1081 C.3       1 RES1    0.0000
     15 C3         6.1756    1.2861   11.5799 C.3       1 RES1    0.0000
@<TRIPOS>BOND
     1    1    2 1
     2    2    3 2
     3    3    4 1
     4    4    5 1
     5    5    6 1
     6    6    9 2
     7    7    8 1
     8    8   11 2
     9   10    6 2
    10   12    8 2
    11   13    1 2
    12   14    5 1
    13   15    7 1
    14    4   13 1
    15    7   13 1
    16   14   15 1
@<TRIPOS>SUBSTRUCTURE
     1 RES1 1

@<TRIPOS>CRYSIN
   9.1600    6.9110   12.7280  90.0000  90.1500  90.0000  14 1

