# MOL2 file generated by ConQuest
# Please check atom types

@<TRIPOS>MOLECULE
VABWOK
   128   132     4
SMALL
NO_CHARGES
****
Generated from CSD

@<TRIPOS>ATOM
      1 C1        -2.0740    2.7241    9.2541 C.3       1 RES1    0.0000
      2 C2        -1.7045    3.0987    7.8299 C.2       1 RES1    0.0000
      3 C3        -0.2949    3.6457    7.9303 C.2       1 RES1    0.0000
      4 C4         0.0399    3.5772    9.3952 C.3       1 RES1    0.0000
      5 C5         0.2507    2.0754    9.6524 C.3       1 RES1    0.0000
      6 C6        -1.1766    1.5040    9.5615 C.3       1 RES1    0.0000
      7 C7        -1.3506    3.8723   10.0336 C.3       1 RES1    0.0000
      8 C8        -3.5647    2.5152    9.4674 C.3       1 RES1    0.0000
      9 C9        -1.8643    5.2559    9.7152 C.3       1 RES1    0.0000
     10 C10       -1.3404    3.6822   11.5299 C.3       1 RES1    0.0000
     11 N1        -2.4746    2.9473    6.8496 N.2       1 RES1    0.0000
     12 N2        -1.9277    3.3341    5.5618 N.pl3     1 RES1    0.0000
     13 N3         0.3339    4.0016    6.8919 N.2       1 RES1    0.0000
     14 N4         1.6827    4.4602    7.2088 N.pl3     1 RES1    0.0000
     15 O1        -1.3751    2.4710    4.9423 O.2       1 RES1    0.0000
     16 O2        -2.1749    4.4469    5.1838 O.2       1 RES1    0.0000
     17 O3         1.8586    5.6294    7.0692 O.2       1 RES1    0.0000
     18 O4         2.4896    3.6093    7.5068 O.2       1 RES1    0.0000
     19 C11        0.0381    5.1597    1.4069 C.3       2 RES2    0.0000
     20 C12        0.5777    5.0459    0.0078 C.2       2 RES2    0.0000
     21 C13        1.9529    4.4602    0.1553 C.2       2 RES2    0.0000
     22 C14        2.0918    4.2038    1.6202 C.3       2 RES2    0.0000
     23 C15        1.1076    3.0313    1.9026 C.3       2 RES2    0.0000
     24 C16       -0.2671    3.6800    1.7802 C.3       2 RES2    0.0000
     25 C17        1.3527    5.4360    2.2022 C.3       2 RES2    0.0000
     26 C18       -1.1286    6.1178    1.5904 C.3       2 RES2    0.0000
     27 C19        2.0147    6.7610    1.8194 C.3       2 RES2    0.0000
     28 C20        1.1835    5.3642    3.7330 C.3       2 RES2    0.0000
     29 N5        -0.0862    5.3796   -1.0289 N.2       2 RES2    0.0000
     30 N6         0.5607    5.1144   -2.2963 N.pl3     2 RES2    0.0000
     31 N7         2.7100    4.3298   -0.8423 N.2       2 RES2    0.0000
     32 N8         4.0181    3.8115   -0.5349 N.pl3     2 RES2    0.0000
     33 O5         0.3698    4.0170   -2.7699 O.2       2 RES2    0.0000
     34 O6         1.0969    6.0526   -2.8076 O.2       2 RES2    0.0000
     35 O7         4.8049    4.6094   -0.0910 O.2       2 RES2    0.0000
     36 O8         4.2315    2.6677   -0.8423 O.2       2 RES2    0.0000
     37 C21        6.9599    4.9033   10.1810 C.3       3 RES3    0.0000
     38 C22        6.3897    4.9586   11.5754 C.2       3 RES3    0.0000
     39 C23        5.0340    4.2966   11.4844 C.2       3 RES3    0.0000
     40 C24        4.9269    3.8413   10.0650 C.3       3 RES3    0.0000
     41 C25        5.9514    2.6832    9.9316 C.3       3 RES3    0.0000
     42 C26        7.3170    3.4037   10.0148 C.3       3 RES3    0.0000
     43 C27        5.6270    5.0293    9.3482 C.3       3 RES3    0.0000
     44 C28        8.0949    5.8615    9.9160 C.3       3 RES3    0.0000
     45 C29        4.8909    6.3599    9.5646 C.3       3 RES3    0.0000
     46 C30        5.8408    4.7729    7.8550 C.3       3 RES3    0.0000
     47 N9         7.0055    5.4537   12.5494 N.2       3 RES3    0.0000
     48 N10        6.3439    5.3531   13.8481 N.pl3     3 RES3    0.0000
     49 N11        4.2811    4.2314   12.4914 N.2       3 RES3    0.0000
     50 N12        2.9943    3.6358   12.1950 N.pl3     3 RES3    0.0000
     51 O9         6.5237    4.3265   14.4583 O.2       3 RES3    0.0000
     52 O10        5.7850    6.3311   14.2152 O.2       3 RES3    0.0000
     53 O11        2.1275    4.3651   11.8389 O.2       3 RES3    0.0000
     54 O12        2.8910    2.4865   12.3847 O.2       3 RES3    0.0000
     55 C31        9.1589    2.8335    2.3229 C.3       4 RES4    0.0000
     56 C32        8.7175    3.0313    3.7393 C.2       4 RES4    0.0000
     57 C33        7.3103    3.5352    3.6671 C.2       4 RES4    0.0000
     58 C34        7.0156    3.5883    2.1912 C.3       4 RES4    0.0000
     59 C35        6.8947    2.1362    1.7536 C.3       4 RES4    0.0000
     60 C36        8.3363    1.6168    1.8367 C.3       4 RES4    0.0000
     61 C37        8.4078    4.0215    1.6500 C.3       4 RES4    0.0000
     62 C38       10.6418    2.7086    2.1112 C.3       4 RES4    0.0000
     63 C39        8.8486    5.3719    2.1284 C.3       4 RES4    0.0000
     64 C40        8.4172    3.9750    0.0941 C.3       4 RES4    0.0000
     65 N13        9.4851    2.8036    4.7494 N.2       4 RES4    0.0000
     66 N14        8.8992    3.0700    6.0402 N.pl3     4 RES4    0.0000
     67 N15        6.6200    3.7960    4.6882 N.2       4 RES4    0.0000
     68 N16        5.2916    4.2823    4.3714 N.pl3     4 RES4    0.0000
     69 O13        8.4118    2.1141    6.5767 O.2       4 RES4    0.0000
     70 O14        9.0716    4.1519    6.5123 O.2       4 RES4    0.0000
     71 O15        5.1724    5.4470    4.4717 O.2       4 RES4    0.0000
     72 O16        4.4763    3.4766    4.1079 O.2       4 RES4    0.0000
     73 H1         0.8037    4.1552    9.7089 H         1 RES1    0.0000
     74 H2         0.6426    1.9118   10.5559 H         1 RES1    0.0000
     75 H3         0.8461    1.6687    8.9560 H         1 RES1    0.0000
     76 H4        -1.2466    0.8288    8.8306 H         1 RES1    0.0000
     77 H5        -1.4501    1.0830   10.4304 H         1 RES1    0.0000
     78 H6        -3.8128    2.3097   10.4147 H         1 RES1    0.0000
     79 H7        -3.8345    1.7571    8.8776 H         1 RES1    0.0000
     80 H8        -4.0346    3.3485    9.1756 H         1 RES1    0.0000
     81 H9        -1.9465    5.4150    8.7365 H         1 RES1    0.0000
     82 H10       -1.2595    5.9454   10.1167 H         1 RES1    0.0000
     83 H11       -2.7701    5.3266   10.1324 H         1 RES1    0.0000
     84 H12       -1.0589    2.7406   11.7323 H         1 RES1    0.0000
     85 H13       -2.2745    3.8347   11.8734 H         1 RES1    0.0000
     86 H14       -0.7174    4.3209   11.9832 H         1 RES1    0.0000
     87 H15        3.0303    4.0336    1.9449 H         2 RES2    0.0000
     88 H16        1.2512    2.6633    2.8233 H         2 RES2    0.0000
     89 H17        1.2208    2.2986    1.2234 H         2 RES2    0.0000
     90 H18       -0.8031    3.2379    1.0666 H         2 RES2    0.0000
     91 H19       -0.7677    3.6247    2.6507 H         2 RES2    0.0000
     92 H20       -1.4478    6.0117    2.5409 H         2 RES2    0.0000
     93 H21       -1.8633    5.8791    0.9568 H         2 RES2    0.0000
     94 H22       -0.8536    7.0616    1.4430 H         2 RES2    0.0000
     95 H23        2.1973    6.8295    0.8313 H         2 RES2    0.0000
     96 H24        2.8775    6.8185    2.3214 H         2 RES2    0.0000
     97 H25        1.4149    7.5147    2.1018 H         2 RES2    0.0000
     98 H26        0.8015    4.4867    4.0153 H         2 RES2    0.0000
     99 H27        0.5728    6.1002    3.9996 H         2 RES2    0.0000
    100 H28        2.0801    5.4923    4.1722 H         2 RES2    0.0000
    101 H29        4.0037    3.5916    9.7560 H         3 RES3    0.0000
    102 H30        5.8432    2.2102    9.0502 H         3 RES3    0.0000
    103 H31        5.8486    2.0223   10.6814 H         3 RES3    0.0000
    104 H32        7.8390    3.0722   10.8069 H         3 RES3    0.0000
    105 H33        7.8482    3.2600    9.1756 H         3 RES3    0.0000
    106 H34        8.3975    5.7907    8.9717 H         3 RES3    0.0000
    107 H35        8.8379    5.5808   10.5245 H         3 RES3    0.0000
    108 H36        7.8317    6.8074   10.1167 H         3 RES3    0.0000
    109 H37        4.7841    6.5201   10.5402 H         3 RES3    0.0000
    110 H38        3.9853    6.2880    9.1443 H         3 RES3    0.0000
    111 H39        5.3979    7.1168    9.1599 H         3 RES3    0.0000
    112 H40        6.2747    3.8789    7.7797 H         3 RES3    0.0000
    113 H41        6.4740    5.4813    7.5287 H         3 RES3    0.0000
    114 H42        5.0114    4.7851    7.3091 H         3 RES3    0.0000
    115 H43        6.2217    4.1441    1.9292 H         4 RES4    0.0000
    116 H44        6.2968    1.6245    2.3684 H         4 RES4    0.0000
    117 H45        6.5434    2.0665    0.8156 H         4 RES4    0.0000
    118 H46        8.4042    0.8620    2.4939 H         4 RES4    0.0000
    119 H47        8.6507    1.3151    0.9411 H         4 RES4    0.0000
    120 H48       10.8252    2.6191    1.1293 H         4 RES4    0.0000
    121 H49       11.0188    1.9118    2.5880 H         4 RES4    0.0000
    122 H50       11.0797    3.5474    2.4468 H         4 RES4    0.0000
    123 H51        8.8998    5.3929    3.1213 H         4 RES4    0.0000
    124 H52        8.2068    6.0670    1.8038 H         4 RES4    0.0000
    125 H53        9.7570    5.5476    1.7567 H         4 RES4    0.0000
    126 H54        8.1152    3.0611   -0.1882 H         4 RES4    0.0000
    127 H55        9.3343    4.1552   -0.2510 H         4 RES4    0.0000
    128 H56        7.7901    4.6635   -0.2666 H         4 RES4    0.0000
@<TRIPOS>BOND
     1    1    2 1
     2    2    3 1
     3    3    4 1
     4    4    5 1
     5    5    6 1
     6    6    1 1
     7    7    1 1
     8    8    1 1
     9    9    7 1
    10   10    7 1
    11   11    2 2
    12   12   11 1
    13   13    3 2
    14   14   13 1
    15   15   12 2
    16   16   12 2
    17   17   14 2
    18   18   14 2
    19   19   20 1
    20   20   21 1
    21   21   22 1
    22   22   23 1
    23   23   24 1
    24   24   19 1
    25   25   19 1
    26   26   19 1
    27   27   25 1
    28   28   25 1
    29   29   20 2
    30   30   29 1
    31   31   21 2
    32   32   31 1
    33   33   30 2
    34   34   30 2
    35   35   32 2
    36   36   32 2
    37   37   38 1
    38   38   39 1
    39   39   40 1
    40   40   41 1
    41   41   42 1
    42   42   37 1
    43   43   37 1
    44   44   37 1
    45   45   43 1
    46   46   43 1
    47   47   38 2
    48   48   47 1
    49   49   39 2
    50   50   49 1
    51   51   48 2
    52   52   48 2
    53   53   50 2
    54   54   50 2
    55   55   56 1
    56   56   57 1
    57   57   58 1
    58   58   59 1
    59   59   60 1
    60   60   55 1
    61   61   55 1
    62   62   55 1
    63   63   61 1
    64   64   61 1
    65   65   56 2
    66   66   65 1
    67   67   57 2
    68   68   67 1
    69   69   66 2
    70   70   66 2
    71   71   68 2
    72   72   68 2
    73   73    4 1
    74   74    5 1
    75   75    5 1
    76   76    6 1
    77   77    6 1
    78   78    8 1
    79   79    8 1
    80   80    8 1
    81   81    9 1
    82   82    9 1
    83   83    9 1
    84   84   10 1
    85   85   10 1
    86   86   10 1
    87   87   22 1
    88   88   23 1
    89   89   23 1
    90   90   24 1
    91   91   24 1
    92   92   26 1
    93   93   26 1
    94   94   26 1
    95   95   27 1
    96   96   27 1
    97   97   27 1
    98   98   28 1
    99   99   28 1
   100  100   28 1
   101  101   40 1
   102  102   41 1
   103  103   41 1
   104  104   42 1
   105  105   42 1
   106  106   44 1
   107  107   44 1
   108  108   44 1
   109  109   45 1
   110  110   45 1
   111  111   45 1
   112  112   46 1
   113  113   46 1
   114  114   46 1
   115  115   58 1
   116  116   59 1
   117  117   59 1
   118  118   60 1
   119  119   60 1
   120  120   62 1
   121  121   62 1
   122  122   62 1
   123  123   63 1
   124  124   63 1
   125  125   63 1
   126  126   64 1
   127  127   64 1
   128  128   64 1
   129    4    7 1
   130   22   25 1
   131   40   43 1
   132   58   61 1
@<TRIPOS>SUBSTRUCTURE
     1 RES1 1
     2 RES2 19
     3 RES3 37
     4 RES4 55

@<TRIPOS>CRYSIN
  14.6160   11.0510   16.5080  90.0000 108.1700  90.0000   4 1

