# MOL2 file generated by ConQuest
# Please check atom types

@<TRIPOS>MOLECULE
VABXED
    96   102     2
SMALL
NO_CHARGES
****
Generated from CSD

@<TRIPOS>ATOM
      1 C1        12.2868   11.0891    1.5143 C.ar      1 RES1    0.0000
      2 H1        11.5116   10.8014    1.0881 H         1 RES1    0.0000
      3 C2        13.2751   11.6960    0.7759 C.ar      1 RES1    0.0000
      4 H2        13.1694   11.8053   -0.1410 H         1 RES1    0.0000
      5 C3        14.4101   12.1374    1.3905 C.ar      1 RES1    0.0000
      6 H3        15.0774   12.5525    0.8922 H         1 RES1    0.0000
      7 C4        14.5692   11.9668    2.7494 C.ar      1 RES1    0.0000
      8 H4        15.3451   12.2732    3.1608 H         1 RES1    0.0000
      9 C5        13.5892   11.3441    3.5178 C.ar      1 RES1    0.0000
     10 C6        12.4211   10.8944    2.8902 C.ar      1 RES1    0.0000
     11 C7        11.2882   10.2574    3.6487 C.3       1 RES1    0.0000
     12 H5        11.6191    9.5055    4.1466 H         1 RES1    0.0000
     13 H6        10.6154    9.9614    3.0310 H         1 RES1    0.0000
     14 H7        10.9077   10.8990    4.2527 H         1 RES1    0.0000
     15 C8        13.7692   11.1712    5.0116 C.3       1 RES1    0.0000
     16 H8        13.2777   10.3631    5.2660 H         1 RES1    0.0000
     17 C9        15.2088   10.9827    5.4892 C.3       1 RES1    0.0000
     18 H9        15.4821   10.0546    5.4170 H         1 RES1    0.0000
     19 H10       15.8212   11.5338    4.9765 H         1 RES1    0.0000
     20 C10       16.4635   11.4744    7.5376 C.3       1 RES1    0.0000
     21 H11       17.0093   12.1327    7.1003 H         1 RES1    0.0000
     22 H12       16.8914   10.6161    7.4847 H         1 RES1    0.0000
     23 H13       16.3464   11.7181    8.4592 H         1 RES1    0.0000
     24 C11       14.3805   12.6465    6.9150 C.3       1 RES1    0.0000
     25 C12       13.2180   12.3367    5.9009 C.3       1 RES1    0.0000
     26 C13       12.7081   13.5269    5.0950 C.3       1 RES1    0.0000
     27 H14       13.3118   13.6789    4.3513 H         1 RES1    0.0000
     28 H15       11.8404   13.3015    4.7256 H         1 RES1    0.0000
     29 C14       15.1689   13.9017    6.4104 C.2       1 RES1    0.0000
     30 C15       14.6215   14.2950    8.5840 C.ar      1 RES1    0.0000
     31 C16       14.0632   13.0454    8.3391 C.ar      1 RES1    0.0000
     32 C17       13.5072   12.3297    9.3734 C.ar      1 RES1    0.0000
     33 H16       13.1590   11.4801    9.2279 H         1 RES1    0.0000
     34 C18       13.4761   12.8992   10.6397 C.ar      1 RES1    0.0000
     35 H17       13.1006   12.4259   11.3468 H         1 RES1    0.0000
     36 C19       13.9895   14.1455   10.8617 C.ar      1 RES1    0.0000
     37 H18       13.9472   14.5113   11.7161 H         1 RES1    0.0000
     38 C20       14.5724   14.8757    9.8360 C.ar      1 RES1    0.0000
     39 H19       14.9176   15.7262    9.9866 H         1 RES1    0.0000
     40 N1        12.0339   11.8252    6.7344 N.pl3     1 RES1    0.0000
     41 N2        15.1608   11.4085    6.8818 N.3       1 RES1    0.0000
     42 N3        15.2612   14.7667    7.4409 N.am      1 RES1    0.0000
     43 H20       15.6688   15.5232    7.3973 H         1 RES1    0.0000
     44 O1        12.0584   10.6949    7.1717 O.2       1 RES1    0.0000
     45 O2        11.1248   12.6112    6.9634 O.2       1 RES1    0.0000
     46 O3        12.5870   14.7258    5.8311 O.3       1 RES1    0.0000
     47 H21       11.9815   14.6499    6.3791 H         1 RES1    0.0000
     48 O4        15.6456   14.0466    5.3030 O.2       1 RES1    0.0000
     49 C21        4.6400    7.4189    0.6951 C.ar      2 RES2    0.0000
     50 H22        4.1434    7.8862    0.0611 H         2 RES2    0.0000
     51 C22        5.1620    8.1016    1.7620 C.ar      2 RES2    0.0000
     52 H23        4.9990    9.0118    1.8593 H         2 RES2    0.0000
     53 C23        5.9251    7.4340    2.6866 C.ar      2 RES2    0.0000
     54 H24        6.2958    7.8906    3.4079 H         2 RES2    0.0000
     55 C24        6.1398    6.0783    2.5364 C.ar      2 RES2    0.0000
     56 H25        6.6728    5.6329    3.1546 H         2 RES2    0.0000
     57 C25        5.5762    5.3593    1.4836 C.ar      2 RES2    0.0000
     58 C26        4.8259    6.0596    0.5263 C.ar      2 RES2    0.0000
     59 C27        4.2192    5.3837   -0.6705 C.3       2 RES2    0.0000
     60 H26        3.7284    6.0266   -1.1867 H         2 RES2    0.0000
     61 H27        3.6269    4.6876   -0.3781 H         2 RES2    0.0000
     62 H28        4.9164    5.0049   -1.2117 H         2 RES2    0.0000
     63 C28        5.7851    3.8664    1.3698 C.3       2 RES2    0.0000
     64 H29        5.5102    3.6166    0.4630 H         2 RES2    0.0000
     65 C29        7.2296    3.3870    1.5320 C.3       2 RES2    0.0000
     66 H30        7.7299    3.4980    0.7075 H         2 RES2    0.0000
     67 H31        7.6799    3.8694    2.2436 H         2 RES2    0.0000
     68 C30        8.3193    1.3005    2.2076 C.3       2 RES2    0.0000
     69 H32        8.6963    1.6964    2.9974 H         2 RES2    0.0000
     70 H33        8.9409    1.3825    1.4800 H         2 RES2    0.0000
     71 H34        8.1384    0.3717    2.3709 H         2 RES2    0.0000
     72 C31        6.0288    1.9062    2.8782 C.3       2 RES2    0.0000
     73 C32        4.9726    2.9520    2.3453 C.3       2 RES2    0.0000
     74 C33        4.1974    3.6913    3.4297 C.3       2 RES2    0.0000
     75 H35        4.7083    4.4725    3.6962 H         2 RES2    0.0000
     76 H36        3.3603    4.0042    3.0523 H         2 RES2    0.0000
     77 C34        6.5098    2.3483    4.2958 C.2       2 RES2    0.0000
     78 C35        5.8777    0.1680    4.4697 C.ar      2 RES2    0.0000
     79 C36        5.6132    0.4758    3.1435 C.ar      2 RES2    0.0000
     80 C37        5.1696   -0.5159    2.2904 C.ar      2 RES2    0.0000
     81 H37        5.0252   -0.3358    1.3901 H         2 RES2    0.0000
     82 C38        4.9439   -1.7845    2.8014 C.ar      2 RES2    0.0000
     83 H38        4.6307   -2.4561    2.2387 H         2 RES2    0.0000
     84 C39        5.1735   -2.0650    4.1179 C.ar      2 RES2    0.0000
     85 H39        4.9992   -2.9208    4.4399 H         2 RES2    0.0000
     86 C40        5.6579   -1.1009    4.9802 C.ar      2 RES2    0.0000
     87 H40        5.8308   -1.2964    5.8724 H         2 RES2    0.0000
     88 N4         3.9393    2.1326    1.5485 N.pl3     2 RES2    0.0000
     89 N5         6.4275    1.2714    5.1059 N.am      2 RES2    0.0000
     90 H41        6.6877    1.2703    5.9261 H         2 RES2    0.0000
     91 N6         7.0772    1.9852    1.8658 N.3       2 RES2    0.0000
     92 O5         2.9568    1.7360    2.1563 O.2       2 RES2    0.0000
     93 O6         4.1521    1.8675    0.3762 O.2       2 RES2    0.0000
     94 O7         3.9104    2.9237    4.5864 O.3       2 RES2    0.0000
     95 H42        3.3562    2.3487    4.4024 H         2 RES2    0.0000
     96 O8         6.9159    3.4509    4.5964 O.2       2 RES2    0.0000
@<TRIPOS>BOND
     1    1    2 1
     2    3    1 ar
     3    4    3 1
     4    5    3 ar
     5    6    5 1
     6    7    5 ar
     7    8    7 1
     8    9    7 ar
     9   10    1 ar
    10   11   10 1
    11   12   11 1
    12   13   11 1
    13   14   11 1
    14   15    9 1
    15   16   15 1
    16   17   15 1
    17   18   17 1
    18   19   17 1
    19   20   21 1
    20   22   20 1
    21   23   20 1
    22   24   25 1
    23   25   15 1
    24   26   25 1
    25   27   26 1
    26   28   26 1
    27   29   24 1
    28   30   31 ar
    29   31   24 1
    30   32   31 ar
    31   33   32 1
    32   34   32 ar
    33   35   34 1
    34   36   34 ar
    35   37   36 1
    36   38   30 ar
    37   39   38 1
    38   40   25 1
    39   41   17 1
    40   42   29 1
    41   43   42 1
    42   44   40 2
    43   45   40 2
    44   46   26 1
    45   47   46 1
    46   48   29 2
    47   49   50 1
    48   51   49 ar
    49   52   51 1
    50   53   51 ar
    51   54   53 1
    52   55   53 ar
    53   56   55 1
    54   57   55 ar
    55   58   49 ar
    56   59   58 1
    57   60   59 1
    58   61   59 1
    59   62   59 1
    60   63   57 1
    61   64   63 1
    62   65   63 1
    63   66   65 1
    64   67   65 1
    65   68   69 1
    66   70   68 1
    67   71   68 1
    68   72   73 1
    69   73   63 1
    70   74   73 1
    71   75   74 1
    72   76   74 1
    73   77   72 1
    74   78   79 ar
    75   79   72 1
    76   80   79 ar
    77   81   80 1
    78   82   80 ar
    79   83   82 1
    80   84   82 ar
    81   85   84 1
    82   86   78 ar
    83   87   86 1
    84   88   73 1
    85   89   77 1
    86   90   89 1
    87   91   65 1
    88   92   88 2
    89   93   88 2
    90   94   74 1
    91   95   94 1
    92   96   77 2
    93    9   10 ar
    94   20   41 1
    95   24   41 1
    96   30   42 1
    97   36   38 ar
    98   57   58 ar
    99   68   91 1
   100   72   91 1
   101   78   89 1
   102   84   86 ar
@<TRIPOS>SUBSTRUCTURE
     1 RES1 1
     2 RES2 49

@<TRIPOS>CRYSIN
  10.8757   13.6250   13.6560  66.1160  83.7150  78.9910   2 1

