# MOL2 file generated by ConQuest
# Please check atom types

@<TRIPOS>MOLECULE
VABYEE
    32    33     1
SMALL
NO_CHARGES
****
Generated from CSD

@<TRIPOS>ATOM
      1 N1         1.5546   -0.6728    0.5755 N.2       1 RES1    0.0000
      2 N2         2.0595    0.3395   -0.2153 N.am      1 RES1    0.0000
      3 N3         4.0851    5.9496   -2.7706 N.pl3     1 RES1    0.0000
      4 O1        -0.2887   -6.1643    3.1725 O.3       1 RES1    0.0000
      5 H1        -0.7883   -5.8966    3.7654 H         1 RES1    0.0000
      6 O2         1.2883    1.8674    1.2460 O.2       1 RES1    0.0000
      7 O3         3.9665    7.0627   -2.2943 O.2       1 RES1    0.0000
      8 O4         4.6790    5.7263   -3.8152 O.2       1 RES1    0.0000
      9 C1         1.2039   -2.9853    0.9488 C.ar      1 RES1    0.0000
     10 C2         0.6010   -2.7573    2.1929 C.ar      1 RES1    0.0000
     11 H2         0.5369   -1.8876    2.5177 H         1 RES1    0.0000
     12 C3         0.1057   -3.7920    2.9380 C.ar      1 RES1    0.0000
     13 H3        -0.2945   -3.6201    3.7604 H         1 RES1    0.0000
     14 C4         0.1966   -5.0994    2.4721 C.ar      1 RES1    0.0000
     15 C5         0.8049   -5.3455    1.2519 C.ar      1 RES1    0.0000
     16 H4         0.8797   -6.2175    0.9385 H         1 RES1    0.0000
     17 C6         1.3017   -4.2974    0.4998 C.ar      1 RES1    0.0000
     18 H5         1.7070   -4.4729   -0.3191 H         1 RES1    0.0000
     19 C7         1.7099   -1.8634    0.1598 C.2       1 RES1    0.0000
     20 H6         2.1462   -2.0212   -0.6469 H         1 RES1    0.0000
     21 C8         1.8848    1.6059    0.2091 C.2       1 RES1    0.0000
     22 C9         2.4745    2.7005   -0.6235 C.ar      1 RES1    0.0000
     23 C10        2.3599    3.9937   -0.1396 C.ar      1 RES1    0.0000
     24 H7         1.9287    4.1427    0.6706 H         1 RES1    0.0000
     25 C11        2.8749    5.0613   -0.8392 C.ar      1 RES1    0.0000
     26 H8         2.7949    5.9287   -0.5123 H         1 RES1    0.0000
     27 C12        3.5111    4.8146   -2.0321 C.ar      1 RES1    0.0000
     28 C13        3.6436    3.5483   -2.5442 C.ar      1 RES1    0.0000
     29 H9         4.0771    3.4062   -3.3541 H         1 RES1    0.0000
     30 C14        3.1212    2.4927   -1.8338 C.ar      1 RES1    0.0000
     31 H10        3.2028    1.6296   -2.1687 H         1 RES1    0.0000
     32 H11        2.4489    0.1110   -0.9934 H         1 RES1    0.0000
@<TRIPOS>BOND
     1    1    2 1
     2    2   21 1
     3    3    7 2
     4    4    5 1
     5    6   21 2
     6    8    3 2
     7    9   10 ar
     8   10   11 1
     9   12   10 ar
    10   13   12 1
    11   14    4 1
    12   15   14 ar
    13   16   15 1
    14   17    9 ar
    15   18   17 1
    16   19    1 2
    17   20   19 1
    18   21   22 1
    19   22   23 ar
    20   23   24 1
    21   25   23 ar
    22   26   25 1
    23   27    3 1
    24   28   27 ar
    25   29   28 1
    26   30   22 ar
    27   31   30 1
    28   32    2 1
    29    9   19 1
    30   12   14 ar
    31   15   17 ar
    32   25   27 ar
    33   28   30 ar
@<TRIPOS>SUBSTRUCTURE
     1 RES1 1

@<TRIPOS>CRYSIN
   7.8560   13.3680   12.5270  90.0000  95.7480  90.0000  14 1

