# MOL2 file generated by ConQuest
# Please check atom types

@<TRIPOS>MOLECULE
VABZED
    32    34     1
SMALL
NO_CHARGES
****
Generated from CSD

@<TRIPOS>ATOM
      1 C1         9.1196    3.4544    1.8914 C.3       1 RES1    0.0000
      2 C2         7.6585    3.1249    2.1074 C.3       1 RES1    0.0000
      3 C3         7.2946    1.7766    1.5103 C.3       1 RES1    0.0000
      4 O1         8.2113    0.7882    1.9654 O.3       1 RES1    0.0000
      5 C4         9.4920    1.0197    1.4223 C.3       1 RES1    0.0000
      6 C5        10.1097    2.3080    1.9754 C.3       1 RES1    0.0000
      7 C6        11.1506    2.8461    1.0462 C.2       1 RES1    0.0000
      8 N1        10.6965    3.7222    0.2290 N.2       1 RES1    0.0000
      9 O2         9.3256    3.9494    0.5396 O.3       1 RES1    0.0000
     10 O3        10.3213   -0.0346    1.7639 O.3       1 RES1    0.0000
     11 C7         9.9715   -1.2579    1.0982 C.3       1 RES1    0.0000
     12 C8        12.5808    2.4575    0.9807 C.ar      1 RES1    0.0000
     13 C9        13.1054    1.5671    1.9034 C.ar      1 RES1    0.0000
     14 C10       14.4538    1.2495    1.8699 C.ar      1 RES1    0.0000
     15 C11       15.2916    1.8197    0.9132 C.ar      1 RES1    0.0000
     16 C12       14.7612    2.7008   -0.0075 C.ar      1 RES1    0.0000
     17 C13       13.4157    3.0227    0.0245 C.ar      1 RES1    0.0000
     18 H1         9.3086    4.1497    2.6955 H         1 RES1    0.0000
     19 H2         7.4582    3.1038    3.1681 H         1 RES1    0.0000
     20 H3         7.0576    3.8895    1.6413 H         1 RES1    0.0000
     21 H4         7.3397    1.8383    0.4331 H         1 RES1    0.0000
     22 H5         6.2960    1.5063    1.8164 H         1 RES1    0.0000
     23 H6         9.3904    1.1101    0.3511 H         1 RES1    0.0000
     24 H7        10.4539    2.0470    2.9656 H         1 RES1    0.0000
     25 H8        10.6513   -2.0402    1.4023 H         1 RES1    0.0000
     26 H9        10.0392   -1.1185    0.0295 H         1 RES1    0.0000
     27 H10        8.9617   -1.5350    1.3618 H         1 RES1    0.0000
     28 H11       12.4651    1.1194    2.6475 H         1 RES1    0.0000
     29 H12       14.8600    0.5559    2.5915 H         1 RES1    0.0000
     30 H13       16.3437    1.5747    0.8927 H         1 RES1    0.0000
     31 H14       15.4044    3.1418   -0.7577 H         1 RES1    0.0000
     32 H15       13.0152    3.7163   -0.6981 H         1 RES1    0.0000
@<TRIPOS>BOND
     1    1    2 1
     2    2    3 1
     3    3    4 1
     4    4    5 1
     5    5    6 1
     6    6    1 1
     7    7    6 1
     8    8    7 2
     9    9    1 1
    10   10    5 1
    11   11   10 1
    12   12    7 1
    13   13   12 ar
    14   14   13 ar
    15   15   14 ar
    16   16   15 ar
    17   17   12 ar
    18   18    1 1
    19   19    2 1
    20   20    2 1
    21   21    3 1
    22   22    3 1
    23   23    5 1
    24   24    6 1
    25   25   11 1
    26   26   11 1
    27   27   11 1
    28   28   13 1
    29   29   14 1
    30   30   15 1
    31   31   16 1
    32   32   17 1
    33    8    9 1
    34   16   17 ar
@<TRIPOS>SUBSTRUCTURE
     1 RES1 1

@<TRIPOS>CRYSIN
  28.2080    8.4480    5.0010  90.0000  90.0000  90.0000  33 1

