# MOL2 file generated by ConQuest
# Please check atom types

@<TRIPOS>MOLECULE
VABZON
    46    50     1
SMALL
NO_CHARGES
****
Generated from CSD

@<TRIPOS>ATOM
      1 C1         4.8944    4.6775   -1.0236 C.3       1 RES1    0.0000
      2 C2         3.3982    4.5750   -0.7827 C.3       1 RES1    0.0000
      3 C3         2.9933    3.4323    0.1688 C.3       1 RES1    0.0000
      4 O1         1.6874    3.6214    0.6849 O.3       1 RES1    0.0000
      5 C4         1.5868    4.8509    1.4483 C.3       1 RES1    0.0000
      6 C5         1.8106    6.0449    0.5516 C.3       1 RES1    0.0000
      7 C6         3.1207    5.9542   -0.2215 C.3       1 RES1    0.0000
      8 O2         4.2356    6.1828    0.6763 O.3       1 RES1    0.0000
      9 N1         5.4074    5.5681    0.0280 N.3       1 RES1    0.0000
     10 C7         6.0788    6.5966   -0.7150 C.2       1 RES1    0.0000
     11 N2         5.9355    6.5256   -1.9988 N.2       1 RES1    0.0000
     12 O3         5.0964    5.4301   -2.2870 O.3       1 RES1    0.0000
     13 C8         6.9154    7.5935   -0.0366 C.ar      1 RES1    0.0000
     14 C9         7.7017    8.4802   -0.7623 C.ar      1 RES1    0.0000
     15 C10        8.4929    9.3904   -0.1043 C.ar      1 RES1    0.0000
     16 C11        8.5156    9.4417    1.2892 C.ar      1 RES1    0.0000
     17 C12        7.7536    8.5511    1.9999 C.ar      1 RES1    0.0000
     18 C13        6.9473    7.6329    1.3505 C.ar      1 RES1    0.0000
     19 C14        5.6790    3.3771   -1.1548 C.ar      1 RES1    0.0000
     20 C15        5.3663    2.5338   -2.2181 C.ar      1 RES1    0.0000
     21 C16        5.9950    1.3083   -2.3343 C.ar      1 RES1    0.0000
     22 C17        6.9405    0.9221   -1.4150 C.ar      1 RES1    0.0000
     23 C18        7.2800    1.7614   -0.3763 C.ar      1 RES1    0.0000
     24 C19        6.6413    3.0027   -0.2355 C.ar      1 RES1    0.0000
     25 O4         3.9422    3.3298    1.1956 O.3       1 RES1    0.0000
     26 C20        3.8860    2.1003    1.9117 C.3       1 RES1    0.0000
     27 H1         2.8257    4.3228   -1.6633 H         1 RES1    0.0000
     28 H2         2.9724    2.5062   -0.3849 H         1 RES1    0.0000
     29 H3         0.6035    4.9179    1.8891 H         1 RES1    0.0000
     30 H4         2.3320    4.8469    2.2289 H         1 RES1    0.0000
     31 H5         0.9522    6.1119   -0.1527 H         1 RES1    0.0000
     32 H6         1.8290    6.9394    1.1612 H         1 RES1    0.0000
     33 H7         3.0654    6.6833   -1.0150 H         1 RES1    0.0000
     34 H8         7.6916    8.4565   -1.8418 H         1 RES1    0.0000
     35 H9         9.1049   10.0761   -0.6731 H         1 RES1    0.0000
     36 H10        9.1233   10.1746    1.8010 H         1 RES1    0.0000
     37 H11        7.7838    8.5669    3.0794 H         1 RES1    0.0000
     38 H12        6.3420    6.9473    1.9225 H         1 RES1    0.0000
     39 H13        4.6337    2.8372   -2.9514 H         1 RES1    0.0000
     40 H14        5.7410    0.6502   -3.1525 H         1 RES1    0.0000
     41 H15        7.4192   -0.0433   -1.5064 H         1 RES1    0.0000
     42 H16        8.0386    1.4659    0.3322 H         1 RES1    0.0000
     43 H17        6.9003    3.6608    0.5828 H         1 RES1    0.0000
     44 H18        4.6430    2.1003    2.6815 H         1 RES1    0.0000
     45 H19        4.0612    1.2846    1.2322 H         1 RES1    0.0000
     46 H20        2.9120    1.9939    2.3644 H         1 RES1    0.0000
@<TRIPOS>BOND
     1    1    2 1
     2    2    3 1
     3    3    4 1
     4    4    5 1
     5    5    6 1
     6    6    7 1
     7    7    2 1
     8    8    7 1
     9    9    1 1
    10   10    9 1
    11   11   10 2
    12   12    1 1
    13   13   10 1
    14   14   13 ar
    15   15   14 ar
    16   16   15 ar
    17   17   16 ar
    18   18   13 ar
    19   19    1 1
    20   20   19 ar
    21   21   20 ar
    22   22   21 ar
    23   23   22 ar
    24   24   19 ar
    25   25    3 1
    26   26   25 1
    27   27    2 1
    28   28    3 1
    29   29    5 1
    30   30    5 1
    31   31    6 1
    32   32    6 1
    33   33    7 1
    34   34   14 1
    35   35   15 1
    36   36   16 1
    37   37   17 1
    38   38   18 1
    39   39   20 1
    40   40   21 1
    41   41   22 1
    42   42   23 1
    43   43   24 1
    44   44   26 1
    45   45   26 1
    46   46   26 1
    47    8    9 1
    48   11   12 1
    49   17   18 ar
    50   23   24 ar
@<TRIPOS>SUBSTRUCTURE
     1 RES1 1

@<TRIPOS>CRYSIN
   8.3823   39.4060   10.7520  90.0000  90.0000  90.0000  61 1

