# MOL2 file generated by ConQuest
# Please check atom types

@<TRIPOS>MOLECULE
VACGEN
    74    57     2
SMALL
NO_CHARGES
****
Generated from CSD

@<TRIPOS>ATOM
      1 N1         4.1178   13.3409    1.5274 N.3       1 RES1    0.0000
      2 C1         3.6162   12.5491    2.6620 C.3       1 RES1    0.0000
      3 H1         2.6374   12.5375    2.6124 H         1 RES1    0.0000
      4 C2         3.7186   12.7922    0.2226 C.3       1 RES1    0.0000
      5 H2         2.7405   12.7646    0.1829 H         1 RES1    0.0000
      6 C3         4.0072   13.1716    3.9900 C.ar      1 RES1    0.0000
      7 C4         5.1299   13.9866    4.0787 C.ar      1 RES1    0.0000
      8 H3         5.6268   14.1551    3.3113 H         1 RES1    0.0000
      9 C5         5.5265   14.5489    5.2675 C.ar      1 RES1    0.0000
     10 H4         6.2728   15.1020    5.2962 H         1 RES1    0.0000
     11 C6         4.8237   14.2934    6.3997 C.ar      1 RES1    0.0000
     12 H5         5.0906   14.6600    7.2116 H         1 RES1    0.0000
     13 C7         3.7092   13.4839    6.3313 C.ar      1 RES1    0.0000
     14 H6         3.2356   13.3064    7.1110 H         1 RES1    0.0000
     15 C8         3.2694   12.9257    5.1409 C.ar      1 RES1    0.0000
     16 C9         4.2205   13.6566   -0.9156 C.ar      1 RES1    0.0000
     17 C10        3.6170   13.6159   -2.1847 C.ar      1 RES1    0.0000
     18 C11        4.1933   14.3357   -3.2176 C.ar      1 RES1    0.0000
     19 H7         3.8043   14.2994   -4.0613 H         1 RES1    0.0000
     20 C12        5.3049   15.0918   -3.0438 C.ar      1 RES1    0.0000
     21 H8         5.6828   15.5487   -3.7613 H         1 RES1    0.0000
     22 C13        5.8604   15.1726   -1.8024 C.ar      1 RES1    0.0000
     23 H9         6.6002   15.7175   -1.6593 H         1 RES1    0.0000
     24 C14        5.3330   14.4508   -0.7612 C.ar      1 RES1    0.0000
     25 H10        5.7388   14.5004    0.0732 H         1 RES1    0.0000
     26 C15        2.0176   12.0905    5.1495 C.3       1 RES1    0.0000
     27 H11        1.4317   12.3840    4.4473 H         1 RES1    0.0000
     28 H12        1.5755   12.1860    5.9969 H         1 RES1    0.0000
     29 H13        2.2464   11.1684    5.0090 H         1 RES1    0.0000
     30 C16        2.3549   12.8398   -2.4536 C.3       1 RES1    0.0000
     31 H14        2.5615   11.9051   -2.5173 H         1 RES1    0.0000
     32 H15        1.9650   13.1391   -3.2783 H         1 RES1    0.0000
     33 H16        1.7330   12.9825   -1.7361 H         1 RES1    0.0000
     34 C17        4.1183   11.0932    2.4953 C.3       1 RES1    0.0000
     35 H17        3.6935   10.5453    3.1887 H         1 RES1    0.0000
     36 C18        5.6367   10.8907    2.5941 C.3       1 RES1    0.0000
     37 H18        5.9524   11.2851    3.4229 H         1 RES1    0.0000
     38 H19        5.8239    9.9391    2.6326 H         1 RES1    0.0000
     39 C19        6.4099   11.4969    1.4361 C.3       1 RES1    0.0000
     40 H20        7.3215   11.1654    1.4544 H         1 RES1    0.0000
     41 H21        6.4416   12.4607    1.5440 H         1 RES1    0.0000
     42 C20        5.7830   11.1638    0.0860 C.3       1 RES1    0.0000
     43 H22        5.9927   10.2445   -0.1372 H         1 RES1    0.0000
     44 H23        6.1842   11.7302   -0.5909 H         1 RES1    0.0000
     45 C21        4.2585   11.3480    0.0457 C.3       1 RES1    0.0000
     46 H24        3.9206   10.9858   -0.8013 H         1 RES1    0.0000
     47 C22        3.6545   10.5914    1.1617 C.2       1 RES1    0.0000
     48 N2         2.8324    9.6567    0.8653 N.2       1 RES1    0.0000
     49 O1         2.3089    9.0562    2.0466 O.3       1 RES1    0.0000
     50 C23        1.4326    8.0114    1.6428 C.3       1 RES1    0.0000
     51 H25        0.7709    8.3629    1.0428 H         1 RES1    0.0000
     52 H26        1.0001    7.6400    2.4148 H         1 RES1    0.0000
     53 H27        1.9357    7.3254    1.1964 H         1 RES1    0.0000
     54 H28        3.7938   14.2272    1.6117 H         1 RES1    0.0000
     55 C24        1.4745    7.9930    0.7281 Du        2 SUP2    0.0000
     56 C25        4.0976   11.0748    2.8539 Du        2 SUP2    0.0000
     57 C26        5.6416   10.9735    2.8960 Du        2 SUP2    0.0000
     58 C27        6.3336   11.5260    1.6648 Du        2 SUP2    0.0000
     59 C28        5.6453   11.2498    0.3494 Du        2 SUP2    0.0000
     60 C29        4.1085   11.2790    0.3915 Du        2 SUP2    0.0000
     61 C30        3.6795   10.4809    1.5605 Du        2 SUP2    0.0000
     62 H29        1.9718    7.2671    1.1123 Du        2 SUP2    0.0000
     63 H30        1.0779    7.7060   -0.0988 Du        2 SUP2    0.0000
     64 H31        0.7820    8.2631    1.3373 Du        2 SUP2    0.0000
     65 H32        3.6738   10.6390    3.6223 Du        2 SUP2    0.0000
     66 H33        5.9651   11.4478    3.6790 Du        2 SUP2    0.0000
     67 H34        5.8909   10.0419    2.9929 Du        2 SUP2    0.0000
     68 H35        7.2358   11.1715    1.6355 Du        2 SUP2    0.0000
     69 H36        6.4125   12.4945    1.7745 Du        2 SUP2    0.0000
     70 H37        5.9267   10.3673    0.0421 Du        2 SUP2    0.0000
     71 H38        5.9520   11.8929   -0.3055 Du        2 SUP2    0.0000
     72 H39        3.7863   10.8108   -0.4080 Du        2 SUP2    0.0000
     73 N3         2.8360    9.5431    1.7343 Du        2 SUP2    0.0000
     74 O2         2.3398    9.0827    0.4830 Du        2 SUP2    0.0000
@<TRIPOS>BOND
     1    1    2 1
     2    2    3 1
     3    4    1 1
     4    5    4 1
     5    6    2 1
     6    7    6 ar
     7    8    7 1
     8    9    7 ar
     9   10    9 1
    10   11    9 ar
    11   12   11 1
    12   13   11 ar
    13   14   13 1
    14   15    6 ar
    15   16    4 1
    16   17   16 ar
    17   18   17 ar
    18   19   18 1
    19   20   18 ar
    20   21   20 1
    21   22   20 ar
    22   23   22 1
    23   24   16 ar
    24   25   24 1
    25   26   15 1
    26   27   26 1
    27   28   26 1
    28   29   26 1
    29   30   17 1
    30   31   30 1
    31   32   30 1
    32   33   30 1
    33   34    2 1
    34   35   34 1
    35   36   34 1
    36   37   36 1
    37   38   36 1
    38   39   36 1
    39   40   39 1
    40   41   39 1
    41   42   39 1
    42   43   42 1
    43   44   42 1
    44   45    4 1
    45   46   45 1
    46   47   34 1
    47   48   47 2
    48   49   48 1
    49   50   49 1
    50   51   50 1
    51   52   50 1
    52   53   50 1
    53   54    1 1
    54   13   15 ar
    55   22   24 ar
    56   42   45 1
    57   45   47 1
@<TRIPOS>SUBSTRUCTURE
     1 RES1 1
     2 SUP2 55

@<TRIPOS>CRYSIN
   6.9700   15.3476   18.3540  90.0000  94.6220  90.0000 231 1

