# MOL2 file generated by ConQuest
# Please check atom types

@<TRIPOS>MOLECULE
VACMET
    96    99     3
SMALL
NO_CHARGES
****
Generated from CSD

@<TRIPOS>ATOM
      1 O1        10.6752    6.6362    5.1951 O.3       1 RES1    0.0000
      2 O2        11.5136    2.1844   12.7059 O.2       1 RES1    0.0000
      3 O3         9.4079    2.6166   12.3812 O.2       1 RES1    0.0000
      4 O4        10.3121   12.1827   12.7603 O.3       2 RES2    0.0000
      5 O5        11.4198   16.1768    5.5061 O.2       2 RES2    0.0000
      6 O6         9.3503   16.7899    5.4076 O.2       2 RES2    0.0000
      7 O7         6.4954    6.8960    9.8052 O.3       3 RES3    0.0000
      8 O8         8.5928    3.8636   17.3065 O.2       3 RES3    0.0000
      9 O9         6.5350    3.7979   17.9719 O.2       3 RES3    0.0000
     10 N1        10.5839    2.6464   12.0291 N.pl3     1 RES1    0.0000
     11 N2        10.2827   16.1890    5.9584 N.pl3     2 RES2    0.0000
     12 N3         7.3918    4.0563   17.1188 N.pl3     3 RES3    0.0000
     13 C1        10.6088    5.8697    6.3187 C.ar      1 RES1    0.0000
     14 C2        11.7204    5.4323    7.0407 C.ar      1 RES1    0.0000
     15 H1        12.5971    5.6321    6.7338 H         1 RES1    0.0000
     16 C3        11.5375    4.7062    8.2052 C.ar      1 RES1    0.0000
     17 H2        12.2965    4.4026    8.6902 H         1 RES1    0.0000
     18 C4        10.2554    4.4129    8.6820 C.ar      1 RES1    0.0000
     19 C5         9.1605    4.8396    7.9353 C.ar      1 RES1    0.0000
     20 H3         8.2830    4.6418    8.2395 H         1 RES1    0.0000
     21 C6         9.3298    5.5469    6.7626 C.ar      1 RES1    0.0000
     22 H4         8.5718    5.8145    6.2570 H         1 RES1    0.0000
     23 C7        10.0203    3.7196    9.9438 C.2       1 RES1    0.0000
     24 H5         9.1151    3.5703   10.1905 H         1 RES1    0.0000
     25 C8        10.9499    3.2770   10.7768 C.2       1 RES1    0.0000
     26 H6        11.8667    3.3732   10.5494 H         1 RES1    0.0000
     27 C9        11.9643    7.1853    4.8418 C.3       1 RES1    0.0000
     28 H7        12.5721    6.4623    4.5431 H         1 RES1    0.0000
     29 H8        12.3707    7.6313    5.6268 H         1 RES1    0.0000
     30 C10       11.7597    8.1797    3.7320 C.ar      1 RES1    0.0000
     31 C11       11.2618    7.7666    2.4976 C.ar      1 RES1    0.0000
     32 H9        11.0364    6.8551    2.3606 H         1 RES1    0.0000
     33 C12       11.0957    8.6841    1.4687 C.ar      1 RES1    0.0000
     34 H10       10.7525    8.3910    0.6330 H         1 RES1    0.0000
     35 C13       11.4154    9.9969    1.6386 C.ar      1 RES1    0.0000
     36 H11       11.2952   10.6166    0.9289 H         1 RES1    0.0000
     37 C14       11.9183   10.4167    2.8566 C.ar      1 RES1    0.0000
     38 H12       12.1551   11.3291    2.9812 H         1 RES1    0.0000
     39 C15       12.0795    9.5109    3.9033 C.ar      1 RES1    0.0000
     40 H13       12.4110    9.8113    4.7404 H         1 RES1    0.0000
     41 C16       10.3721   12.9226   11.6167 C.ar      2 RES2    0.0000
     42 C17        9.2623   13.3025   10.8659 C.ar      2 RES2    0.0000
     43 H14        8.3855   13.0873   11.1618 H         2 RES2    0.0000
     44 C18        9.4518   13.9938    9.6904 C.ar      2 RES2    0.0000
     45 H15        8.6919   14.2510    9.1821 H         2 RES2    0.0000
     46 C19       10.7263   14.3302    9.2191 C.ar      2 RES2    0.0000
     47 C20       11.8178   13.9598   10.0055 C.ar      2 RES2    0.0000
     48 H16       12.6964   14.1769    9.7164 H         2 RES2    0.0000
     49 C21       11.6441   13.2815   11.1933 C.ar      2 RES2    0.0000
     50 H17       12.4002   13.0596   11.7249 H         2 RES2    0.0000
     51 C22       10.9411   15.0207    7.9573 C.2       2 RES2    0.0000
     52 H18       11.8385   15.1271    7.6641 H         2 RES2    0.0000
     53 C23        9.9851   15.5106    7.1873 C.2       2 RES2    0.0000
     54 H19        9.0795   15.4125    7.4545 H         2 RES2    0.0000
     55 C24        9.0273   11.6500   13.1402 C.3       2 RES2    0.0000
     56 H20        8.5994   11.2089   12.3634 H         2 RES2    0.0000
     57 H21        8.4354   12.3794   13.4525 H         2 RES2    0.0000
     58 C25        9.2494   10.6561   14.2417 C.ar      2 RES2    0.0000
     59 C26        9.5108    9.3319   13.9403 C.ar      2 RES2    0.0000
     60 H22        9.5421    9.0493   13.0347 H         2 RES2    0.0000
     61 C27        9.7278    8.4116   14.9637 C.ar      2 RES2    0.0000
     62 H23        9.9133    7.5046   14.7500 H         2 RES2    0.0000
     63 C28        9.6769    8.8064   16.2858 C.ar      2 RES2    0.0000
     64 H24        9.8071    8.1734   16.9818 H         2 RES2    0.0000
     65 C29        9.4325   10.1281   16.5776 C.ar      2 RES2    0.0000
     66 H25        9.4168   10.4148   17.4832 H         2 RES2    0.0000
     67 C30        9.2100   11.0423   15.5624 C.ar      2 RES2    0.0000
     68 H26        9.0267   11.9490   15.7803 H         2 RES2    0.0000
     69 C31        6.7115    6.4738   11.0796 C.ar      3 RES3    0.0000
     70 C32        5.7118    6.2225   12.0167 C.ar      3 RES3    0.0000
     71 H27        4.8020    6.3767   11.7934 H         3 RES3    0.0000
     72 C33        6.0460    5.7493   13.2717 C.ar      3 RES3    0.0000
     73 H28        5.3599    5.5798   13.9060 H         3 RES3    0.0000
     74 C34        7.3733    5.5188   13.6197 C.ar      3 RES3    0.0000
     75 C35        8.3738    5.8068   12.6798 C.ar      3 RES3    0.0000
     76 H29        9.2860    5.6718   12.9073 H         3 RES3    0.0000
     77 C36        8.0471    6.2787   11.4358 C.ar      3 RES3    0.0000
     78 H30        8.7354    6.4762   10.8125 H         3 RES3    0.0000
     79 C37        7.7542    4.9658   14.9185 C.2       3 RES3    0.0000
     80 H31        8.6814    4.8543   15.0884 H         3 RES3    0.0000
     81 C38        6.9155    4.6046   15.8803 C.2       3 RES3    0.0000
     82 H32        5.9807    4.7107   15.7474 H         3 RES3    0.0000
     83 C39        5.1258    6.9318    9.3301 C.3       3 RES3    0.0000
     84 H33        4.6237    7.6629    9.7685 H         3 RES3    0.0000
     85 H34        4.6689    6.0735    9.5232 H         3 RES3    0.0000
     86 C40        5.2054    7.1638    7.8463 C.ar      3 RES3    0.0000
     87 C41        5.5489    6.1185    6.9982 C.ar      3 RES3    0.0000
     88 H35        5.6952    5.2484    7.3503 H         3 RES3    0.0000
     89 C42        5.6760    6.3441    5.6364 C.ar      3 RES3    0.0000
     90 H36        5.9016    5.6255    5.0569 H         3 RES3    0.0000
     91 C43        5.4776    7.6122    5.1171 C.ar      3 RES3    0.0000
     92 H37        5.5783    7.7665    4.1855 H         3 RES3    0.0000
     93 C44        5.1346    8.6522    5.9556 C.ar      3 RES3    0.0000
     94 H38        4.9952    9.5220    5.6021 H         3 RES3    0.0000
     95 C45        4.9928    8.4227    7.3133 C.ar      3 RES3    0.0000
     96 H39        4.7475    9.1385    7.8874 H         3 RES3    0.0000
@<TRIPOS>BOND
     1    1   13 1
     2    2   10 2
     3    3   10 2
     4    4   41 1
     5    5   11 2
     6    6   11 2
     7    7   69 1
     8    8   12 2
     9    9   12 2
    10   10   25 1
    11   11   53 1
    12   12   81 1
    13   13   14 ar
    14   14   15 1
    15   16   14 ar
    16   17   16 1
    17   18   16 ar
    18   19   18 ar
    19   20   19 1
    20   21   13 ar
    21   22   21 1
    22   23   18 1
    23   24   23 1
    24   25   23 2
    25   26   25 1
    26   27    1 1
    27   28   27 1
    28   29   27 1
    29   30   27 1
    30   31   30 ar
    31   32   31 1
    32   33   31 ar
    33   34   33 1
    34   35   33 ar
    35   36   35 1
    36   37   35 ar
    37   38   37 1
    38   39   30 ar
    39   40   39 1
    40   41   42 ar
    41   42   43 1
    42   44   42 ar
    43   45   44 1
    44   46   44 ar
    45   47   46 ar
    46   48   47 1
    47   49   41 ar
    48   50   49 1
    49   51   46 1
    50   52   51 1
    51   53   51 2
    52   54   53 1
    53   55    4 1
    54   56   55 1
    55   57   55 1
    56   58   55 1
    57   59   58 ar
    58   60   59 1
    59   61   59 ar
    60   62   61 1
    61   63   61 ar
    62   64   63 1
    63   65   63 ar
    64   66   65 1
    65   67   58 ar
    66   68   67 1
    67   69   70 ar
    68   70   71 1
    69   72   70 ar
    70   73   72 1
    71   74   72 ar
    72   75   74 ar
    73   76   75 1
    74   77   69 ar
    75   78   77 1
    76   79   74 1
    77   80   79 1
    78   81   79 2
    79   82   81 1
    80   83    7 1
    81   84   83 1
    82   85   83 1
    83   86   83 1
    84   87   86 ar
    85   88   87 1
    86   89   87 ar
    87   90   89 1
    88   91   89 ar
    89   92   91 1
    90   93   91 ar
    91   94   93 1
    92   95   86 ar
    93   96   95 1
    94   19   21 ar
    95   37   39 ar
    96   47   49 ar
    97   65   67 ar
    98   75   77 ar
    99   93   95 ar
@<TRIPOS>SUBSTRUCTURE
     1 RES1 1
     2 RES2 4
     3 RES3 7

@<TRIPOS>CRYSIN
   9.9522   14.0456   14.2506  74.4160  84.1880  80.8880   2 1

