# MOL2 file generated by ConQuest
# Please check atom types

@<TRIPOS>MOLECULE
VACQIA
    33    34     1
SMALL
USER_CHARGES
****
Generated from CSD

@<TRIPOS>ATOM
      1 O1         6.2454   -0.5713    9.3581 O.3       1 RES1    0.0000
      2 O2         3.6563   -0.2771    5.8268 O.3       1 RES1    0.0000
      3 O3         5.8331    1.9273    8.5850 O.2       1 RES1   -1.0000
      4 N1         4.4584    1.7572    8.7954 N.4       1 RES1    1.0000
      5 C1         4.2473    0.6992    9.8470 C.3       1 RES1    0.0000
      6 C2         4.8235   -0.6352    9.4030 C.3       1 RES1    0.0000
      7 C3         4.2221   -1.0770    8.0669 C.3       1 RES1    0.0000
      8 C4         4.3809    0.0084    7.0102 C.3       1 RES1    0.0000
      9 C5         3.8114    1.3277    7.5058 C.3       1 RES1    0.0000
     10 C6         3.8271    3.0710    9.2403 C.3       1 RES1    0.0000
     11 C7         4.4783    3.6675   10.4592 C.ar      1 RES1    0.0000
     12 C8         3.9497    3.4454   11.7220 C.ar      1 RES1    0.0000
     13 C9         4.5359    4.0436   12.8383 C.ar      1 RES1    0.0000
     14 C10        5.6356    4.8589   12.6908 C.ar      1 RES1    0.0000
     15 C11        6.1611    5.0878   11.4445 C.ar      1 RES1    0.0000
     16 C12        5.5748    4.4929   10.3228 C.ar      1 RES1    0.0000
     17 H1         6.3392    0.3197    9.0461 H         1 RES1    0.0000
     18 H2         4.1755   -0.9844    5.3869 H         1 RES1    0.0000
     19 H3         3.2272    0.6226    9.9770 H         1 RES1    0.0000
     20 H4         4.6679    1.0770   10.6346 H         1 RES1    0.0000
     21 H5         4.5684   -1.3210   10.0956 H         1 RES1    0.0000
     22 H6         3.1958   -1.1779    8.2183 H         1 RES1    0.0000
     23 H7         4.6837   -1.9352    7.8238 H         1 RES1    0.0000
     24 H8         5.3228    0.1346    6.8387 H         1 RES1    0.0000
     25 H9         2.8343    1.2705    7.6639 H         1 RES1    0.0000
     26 H10        3.9764    2.0193    6.8774 H         1 RES1    0.0000
     27 H11        2.8448    2.8691    9.4019 H         1 RES1    0.0000
     28 H12        3.9659    3.6515    8.4530 H         1 RES1    0.0000
     29 H13        4.2331    3.8619   13.6697 H         1 RES1    0.0000
     30 H14        3.1591    2.9448   11.8311 H         1 RES1    0.0000
     31 H15        5.8782    4.6612    9.4097 H         1 RES1    0.0000
     32 H16        7.0307    5.6288   11.3334 H         1 RES1    0.0000
     33 H17        6.0930    5.2754   13.4479 H         1 RES1    0.0000
@<TRIPOS>BOND
     1    1    6 1
     2    2    8 1
     3    3    4 1
     4    4    5 1
     5    5    6 1
     6    6    7 1
     7    7    8 1
     8    8    9 1
     9    9    4 1
    10   10    4 1
    11   11   10 1
    12   12   11 ar
    13   13   12 ar
    14   14   13 ar
    15   15   14 ar
    16   16   11 ar
    17   17    1 1
    18   18    2 1
    19   19    5 1
    20   20    5 1
    21   21    6 1
    22   22    7 1
    23   23    7 1
    24   24    8 1
    25   25    9 1
    26   26    9 1
    27   27   10 1
    28   28   10 1
    29   29   13 1
    30   30   12 1
    31   31   16 1
    32   32   15 1
    33   33   14 1
    34   15   16 ar
@<TRIPOS>SUBSTRUCTURE
     1 RES1 1

@<TRIPOS>CRYSIN
   5.2390    8.4137   25.7870  90.0000  90.0000  90.0000  19 1

