# MOL2 file generated by ConQuest
# Please check atom types

@<TRIPOS>MOLECULE
VACRUM
    27    27     2
SMALL
NO_CHARGES
****
Generated from CSD

@<TRIPOS>ATOM
      1 N1         0.3562   12.3628    2.7528 N.3       1 RES1    0.0000
      2 N2        -0.0137   12.7317    4.0074 N.2       1 RES1    0.0000
      3 C1         0.3229   13.9965    3.9943 C.2       1 RES1    0.0000
      4 N3         0.8630   14.5012    2.8803 N.2       1 RES1    0.0000
      5 C2         0.8747   13.4239    2.1014 C.2       1 RES1    0.0000
      6 N4         0.0916   14.8185    5.1669 N.pl3     1 RES1    0.0000
      7 O1        -0.4803   14.3167    6.1153 O.2       1 RES1    0.0000
      8 O2         0.4986   15.9637    5.1409 O.2       1 RES1    0.0000
      9 N5         1.3352   13.2999    0.7985 N.3       1 RES1    0.0000
     10 C3         2.7485   13.7190    0.5993 C.3       1 RES1    0.0000
     11 C4         1.6772   14.5661    0.1284 C.3       1 RES1    0.0000
     12 C5         0.2045   10.9755    2.3033 C.3       1 RES1    0.0000
     13 C6        -1.1860   10.4516    2.5174 C.3       1 RES1    0.0000
     14 C7        -2.2406   11.0611    1.6528 C.2       1 RES1    0.0000
     15 O3        -1.9621   11.8581    0.7864 O.2       1 RES1    0.0000
     16 C8        -3.6280   10.6243    1.9208 C.3       1 RES1    0.0000
     17 H1         3.1926   13.1199   -0.0186 H         1 RES1    0.0000
     18 H2         3.2342   14.0053    1.3401 H         1 RES1    0.0000
     19 H3         1.4444   14.5809   -0.7910 H         1 RES1    0.0000
     20 H4         1.4793   15.3631    0.6328 H         1 RES1    0.0000
     21 H5         8.7077   11.0390    1.3774 Du        2 SUP2    0.0000
     22 H6         0.8969   10.4191    2.8012 H         1 RES1    0.0000
     23 H7        -1.1807    9.5042    2.3173 H         1 RES1    0.0000
     24 H8        -1.4702   10.5077    3.4527 H         1 RES1    0.0000
     25 H9        -3.6564    9.7403    1.9450 H         1 RES1    0.0000
     26 H10       -4.2240   10.8471    1.2378 H         1 RES1    0.0000
     27 H11       -3.9484   10.9209    2.7733 H         1 RES1    0.0000
@<TRIPOS>BOND
     1    1    2 1
     2    2    3 2
     3    3    4 1
     4    4    5 2
     5    5    1 1
     6    6    3 1
     7    7    6 2
     8    8    6 2
     9    9    5 1
    10   10    9 1
    11   11    9 1
    12   12    1 1
    13   13   12 1
    14   14   13 1
    15   15   14 2
    16   16   14 1
    17   17   10 1
    18   18   10 1
    19   19   11 1
    20   20   11 1
    21   22   12 1
    22   23   13 1
    23   24   13 1
    24   25   16 1
    25   26   16 1
    26   27   16 1
    27   10   11 1
@<TRIPOS>SUBSTRUCTURE
     1 RES1 1
     2 SUP2 21

@<TRIPOS>CRYSIN
   7.5150   14.7580    9.8130  90.0000 108.4900  90.0000  14 1

