# MOL2 file generated by ConQuest
# Please check atom types

@<TRIPOS>MOLECULE
VACRAT
    38    38     2
SMALL
USER_CHARGES
****
Generated from CSD

@<TRIPOS>ATOM
      1 O1        12.4026    0.2296    0.7707 O.3       1 RES1    0.0000
      2 O2         8.7305   -2.3551    0.7318 O.2       1 RES1    0.0000
      3 O3        10.1092   -3.8452    1.4319 O.2       1 RES1    0.0000
      4 N1        12.9309   -0.9931    1.1155 N.pl3     1 RES1    1.0000
      5 N2        10.8178   -1.7715    0.8897 N.2       1 RES1   -1.0000
      6 N3         9.8816   -2.7158    1.0232 N.pl3     1 RES1    0.0000
      7 C1        12.1243   -2.0781    1.1313 C.ar      1 RES1    0.0000
      8 C2        12.7797   -3.3046    1.3818 C.ar      1 RES1    0.0000
      9 C3        14.1326   -3.3305    1.5743 C.ar      1 RES1    0.0000
     10 C4        14.9220   -2.1892    1.5479 C.ar      1 RES1    0.0000
     11 C5        14.2585   -1.0168    1.3119 C.ar      1 RES1    0.0000
     12 C6        16.4064   -2.1974    1.7866 C.3       1 RES1    0.0000
     13 O4         9.5568    0.5725    0.4729 O.3       2 RES2    0.0000
     14 O5        12.6842    1.2583    3.6509 O.2       2 RES2    0.0000
     15 O6        10.9414    1.8945    4.7414 O.2       2 RES2    0.0000
     16 N4         8.7828    0.7036    1.6024 N.pl3     2 RES2    1.0000
     17 N5        10.7529    0.8672    2.7388 N.2       2 RES2   -1.0000
     18 N6        11.4560    1.3457    3.7722 N.pl3     2 RES2    0.0000
     19 C7         9.3929    0.9021    2.7992 C.ar      2 RES2    0.0000
     20 C8         8.5164    1.0479    3.8870 C.ar      2 RES2    0.0000
     21 C9         7.1672    1.0457    3.7050 C.ar      2 RES2    0.0000
     22 C10        6.5917    0.9102    2.4471 C.ar      2 RES2    0.0000
     23 C11        7.4564    0.7013    1.4095 C.ar      2 RES2    0.0000
     24 C12        5.1051    0.9554    2.2138 C.3       2 RES2    0.0000
     25 H1        11.7862    0.4370    1.4899 H         1 RES1    0.0000
     26 H2        10.0434   -0.2222    0.6461 H         2 RES2    0.0000
     27 H3        12.2335   -4.0659    1.3185 H         1 RES1    0.0000
     28 H4        14.5015   -4.1103    1.7009 H         1 RES1    0.0000
     29 H5        14.6502   -0.1481    1.3185 H         1 RES1    0.0000
     30 H6        16.7230   -2.9402    1.5690 H         1 RES1    0.0000
     31 H7        16.6480   -1.8737    2.5975 H         1 RES1    0.0000
     32 H8        16.9278   -1.6293    0.9361 H         1 RES1    0.0000
     33 H9         8.8505    1.1257    4.7334 H         2 RES2    0.0000
     34 H10        6.6079    1.1627    4.4302 H         2 RES2    0.0000
     35 H11        7.2312    0.5703    0.4878 H         2 RES2    0.0000
     36 H12        4.6302    0.2444    2.7557 H         2 RES2    0.0000
     37 H13        4.7713    1.7034    2.3074 H         2 RES2    0.0000
     38 H14        4.8640    0.5999    1.2921 H         2 RES2    0.0000
@<TRIPOS>BOND
     1    1    4 1
     2    2    6 2
     3    3    6 2
     4    4    7 ar
     5    5    6 1
     6    7    5 1
     7    8    7 ar
     8    9    8 ar
     9   10    9 ar
    10   11    4 ar
    11   12   10 1
    12   13   16 1
    13   14   18 2
    14   15   18 2
    15   16   19 ar
    16   17   18 1
    17   19   17 1
    18   20   19 ar
    19   21   20 ar
    20   22   21 ar
    21   23   16 ar
    22   24   22 1
    23   25    1 1
    24   26   13 1
    25   27    8 1
    26   28    9 1
    27   29   11 1
    28   30   12 1
    29   31   12 1
    30   32   12 1
    31   33   20 1
    32   34   21 1
    33   35   23 1
    34   36   24 1
    35   37   24 1
    36   38   24 1
    37   10   11 ar
    38   22   23 ar
@<TRIPOS>SUBSTRUCTURE
     1 RES1 1
     2 RES2 13

@<TRIPOS>CRYSIN
  29.9840    7.4060   13.5840  90.0000 103.9200  90.0000  15 1

