# MOL2 file generated by ConQuest
# Please check atom types

@<TRIPOS>MOLECULE
VACTOL
    30    32     1
SMALL
NO_CHARGES
****
Generated from CSD

@<TRIPOS>ATOM
      1 O1         2.9927    7.9500    4.6636 O.3       1 RES1    0.0000
      2 O2         3.3431   10.1146    4.5391 O.2       1 RES1    0.0000
      3 O3         2.5301    3.2079    4.7210 O.3       1 RES1    0.0000
      4 O4         3.0320   14.1586   10.6974 O.2       1 RES1    0.0000
      5 O5         2.4117   15.2605    8.9524 O.2       1 RES1    0.0000
      6 N1         2.7026   14.2120    9.5254 N.pl3     1 RES1    0.0000
      7 C1         2.6535    6.7934    5.3323 C.ar      1 RES1    0.0000
      8 C2         2.7565    5.6004    4.6403 C.ar      1 RES1    0.0000
      9 C3         2.4173    4.4386    5.3186 C.ar      1 RES1    0.0000
     10 C4         1.9736    4.4634    6.6343 C.ar      1 RES1    0.0000
     11 C5         1.8825    5.6551    7.3153 C.ar      1 RES1    0.0000
     12 C6         2.2463    6.8494    6.6671 C.ar      1 RES1    0.0000
     13 C7         2.1986    8.1479    7.2948 C.2       1 RES1    0.0000
     14 C8         2.5757    9.2823    6.6466 C.2       1 RES1    0.0000
     15 C9         2.9794    9.2003    5.2776 C.2       1 RES1    0.0000
     16 C10        2.6058   10.5939    7.3577 C.ar      1 RES1    0.0000
     17 C11        2.9787   10.6134    8.6966 C.ar      1 RES1    0.0000
     18 C12        2.9997   11.7947    9.4133 C.ar      1 RES1    0.0000
     19 C13        2.6437   12.9682    8.7500 C.ar      1 RES1    0.0000
     20 C14        2.2883   12.9916    7.4289 C.ar      1 RES1    0.0000
     21 C15        2.2498   11.7934    6.7204 C.ar      1 RES1    0.0000
     22 H1         3.0418    5.5783    3.7555 H         1 RES1    0.0000
     23 H2         1.7368    3.6702    7.0582 H         1 RES1    0.0000
     24 H3         1.5833    5.6707    8.1961 H         1 RES1    0.0000
     25 H4         1.9001    8.2118    8.1742 H         1 RES1    0.0000
     26 H5         2.8091    3.3003    3.9551 H         1 RES1    0.0000
     27 H6         3.2170    9.8176    9.1165 H         1 RES1    0.0000
     28 H7         3.2443   11.8077   10.3104 H         1 RES1    0.0000
     29 H8         2.0760   13.7952    7.0104 H         1 RES1    0.0000
     30 H9         1.9898   11.7882    5.8274 H         1 RES1    0.0000
@<TRIPOS>BOND
     1    1    7 1
     2    2   15 2
     3    3    9 1
     4    4    6 2
     5    5    6 2
     6    6   19 1
     7    7    8 ar
     8    8    9 ar
     9    9   10 ar
    10   10   11 ar
    11   11   12 ar
    12   12    7 ar
    13   13   12 1
    14   14   13 2
    15   15    1 1
    16   16   14 1
    17   17   16 ar
    18   18   17 ar
    19   19   18 ar
    20   20   19 ar
    21   21   16 ar
    22   22    8 1
    23   23   10 1
    24   24   11 1
    25   25   13 1
    26   26    3 1
    27   27   17 1
    28   28   18 1
    29   29   20 1
    30   30   21 1
    31   14   15 1
    32   20   21 ar
@<TRIPOS>SUBSTRUCTURE
     1 RES1 1

@<TRIPOS>CRYSIN
   7.0087   13.0242   13.6761  90.0000  90.0000  90.0000  19 1

