# MOL2 file generated by ConQuest
# Please check atom types

@<TRIPOS>MOLECULE
VACWON
   110   116     2
SMALL
NO_CHARGES
****
Generated from CSD

@<TRIPOS>ATOM
      1 O1        -0.4540    5.7814    4.7198 O.3       1 RES1    0.0000
      2 O2         0.0532    5.5889    8.8821 O.3       1 RES1    0.0000
      3 O3        -1.4069    6.9167    7.8024 O.2       1 RES1    0.0000
      4 O4         2.6199    2.7276    7.3377 O.2       1 RES1    0.0000
      5 O5         2.2362    3.0837    9.4432 O.2       1 RES1    0.0000
      6 N1         1.8753    2.7945    8.3148 N.pl3     1 RES1    0.0000
      7 C1        -0.0032    4.2478    6.4142 C.ar      1 RES1    0.0000
      8 C2        -0.8720    4.6832    5.4130 C.ar      1 RES1    0.0000
      9 C3        -2.1001    4.0471    5.1763 C.ar      1 RES1    0.0000
     10 H1        -2.6777    4.3672    4.4941 H         1 RES1    0.0000
     11 C4        -2.4609    2.9797    5.9216 C.ar      1 RES1    0.0000
     12 H2        -3.3107    2.5814    5.7765 H         1 RES1    0.0000
     13 C5        -2.0083    1.3175    7.6570 C.ar      1 RES1    0.0000
     14 H3        -2.8629    0.9335    7.4964 H         1 RES1    0.0000
     15 C6        -1.2059    0.7678    8.6020 C.ar      1 RES1    0.0000
     16 H4        -1.4971    0.0144    9.1022 H         1 RES1    0.0000
     17 C7         0.0649    1.3247    8.8321 C.ar      1 RES1    0.0000
     18 H5         0.6378    0.9480    9.4880 H         1 RES1    0.0000
     19 C8         0.4716    2.4106    8.1108 C.ar      1 RES1    0.0000
     20 C9        -0.3418    3.0559    7.1293 C.ar      1 RES1    0.0000
     21 C10       -1.6126    2.4414    6.9084 C.ar      1 RES1    0.0000
     22 C11        1.1474    5.1433    6.8014 C.ar      1 RES1    0.0000
     23 C12        1.0841    5.8565    7.9605 C.ar      1 RES1    0.0000
     24 C13        2.0842    6.7726    8.3501 C.ar      1 RES1    0.0000
     25 H6         1.9924    7.2666    9.1566 H         1 RES1    0.0000
     26 C14        3.1778    6.9424    7.5698 C.ar      1 RES1    0.0000
     27 H7         3.8567    7.5518    7.8388 H         1 RES1    0.0000
     28 C15        4.4739    6.3722    5.5534 C.ar      1 RES1    0.0000
     29 H8         5.1576    6.9733    5.8227 H         1 RES1    0.0000
     30 C16        4.6242    5.6795    4.4082 C.ar      1 RES1    0.0000
     31 H9         5.3981    5.8030    3.8718 H         1 RES1    0.0000
     32 C17        3.6320    4.7779    4.0134 C.ar      1 RES1    0.0000
     33 H10        3.7380    4.2818    3.2089 H         1 RES1    0.0000
     34 C18        2.5179    4.6029    4.7706 C.ar      1 RES1    0.0000
     35 H11        1.8579    3.9802    4.4886 H         1 RES1    0.0000
     36 C19        2.3153    5.3254    5.9664 C.ar      1 RES1    0.0000
     37 C20        3.3202    6.2291    6.3664 C.ar      1 RES1    0.0000
     38 C21       -1.3325    6.2755    3.6882 C.3       1 RES1    0.0000
     39 H12       -0.9258    7.0587    3.2605 H         1 RES1    0.0000
     40 H13       -2.1918    6.5276    4.0838 H         1 RES1    0.0000
     41 H14       -1.4749    5.5745    3.0187 H         1 RES1    0.0000
     42 C22       -1.1790    6.1581    8.7001 C.2       1 RES1    0.0000
     43 C23       -2.1855    5.7011    9.7481 C.3       1 RES1    0.0000
     44 C24       -1.6158    4.6142   10.6776 C.3       1 RES1    0.0000
     45 H15       -1.3594    3.8309   10.1456 H         1 RES1    0.0000
     46 H16       -2.2963    4.3559   11.3329 H         1 RES1    0.0000
     47 H17       -0.8277    4.9631   11.1427 H         1 RES1    0.0000
     48 C25       -2.5780    6.9352   10.5561 C.3       1 RES1    0.0000
     49 H18       -1.7883    7.2872   11.0178 H         1 RES1    0.0000
     50 H19       -3.2601    6.6903   11.2161 H         1 RES1    0.0000
     51 H20       -2.9356    7.6197    9.9527 H         1 RES1    0.0000
     52 C26       -3.3978    5.1371    9.0055 C.3       1 RES1    0.0000
     53 H21       -3.7285    5.8030    8.3659 H         1 RES1    0.0000
     54 H22       -4.1052    4.9240    9.6484 H         1 RES1    0.0000
     55 H23       -3.1382    4.3240    8.5262 H         1 RES1    0.0000
     56 O6         6.2524    8.1549   14.1709 O.3       2 RES2    0.0000
     57 O7         7.1247    4.1830   13.4849 O.3       2 RES2    0.0000
     58 O8         8.2334    5.1896   11.8014 O.2       2 RES2    0.0000
     59 O9         5.1503    2.2191   14.9787 O.2       2 RES2    0.0000
     60 O10        3.7831    3.8351   15.4624 O.2       2 RES2    0.0000
     61 N2         4.8680    3.2720   15.5452 N.pl3     2 RES2    0.0000
     62 C27        6.0422    6.0727   15.2012 C.ar      2 RES2    0.0000
     63 C28        6.5629    7.3541   15.2371 C.ar      2 RES2    0.0000
     64 C29        7.4032    7.7947   16.2729 C.ar      2 RES2    0.0000
     65 H24        7.7593    8.6747   16.2617 H         2 RES2    0.0000
     66 C30        7.7007    6.9455   17.2937 C.ar      2 RES2    0.0000
     67 H25        8.2863    7.2389   17.9816 H         2 RES2    0.0000
     68 C31        7.4903    4.7995   18.4530 C.ar      2 RES2    0.0000
     69 H26        8.0331    5.1340   19.1581 H         2 RES2    0.0000
     70 C32        7.0392    3.5304   18.5093 C.ar      2 RES2    0.0000
     71 H27        7.2782    2.9715   19.2396 H         2 RES2    0.0000
     72 C33        6.2195    3.0405   17.4871 C.ar      2 RES2    0.0000
     73 H28        5.9109    2.1429   17.5143 H         2 RES2    0.0000
     74 C34        5.8650    3.8536   16.4497 C.ar      2 RES2    0.0000
     75 C35        6.3144    5.2009   16.3017 C.ar      2 RES2    0.0000
     76 C36        7.1674    5.6486   17.3581 C.ar      2 RES2    0.0000
     77 C37        5.3237    5.6445   13.9547 C.ar      2 RES2    0.0000
     78 C38        5.9014    4.7676   13.0993 C.ar      2 RES2    0.0000
     79 C39        5.3000    4.3456   11.8959 C.ar      2 RES2    0.0000
     80 H29        5.7304    3.7064   11.3411 H         2 RES2    0.0000
     81 C40        4.1036    4.8612   11.5392 C.ar      2 RES2    0.0000
     82 H30        3.7032    4.5998   10.7189 H         2 RES2    0.0000
     83 C41        2.1903    6.3074   12.0375 C.ar      2 RES2    0.0000
     84 H31        1.7740    6.0295   11.2297 H         2 RES2    0.0000
     85 C42        1.5604    7.1946   12.8301 C.ar      2 RES2    0.0000
     86 H32        0.7280    7.5662   12.5611 H         2 RES2    0.0000
     87 C43        2.1365    7.5693   14.0473 C.ar      2 RES2    0.0000
     88 H33        1.6791    8.1776   14.6152 H         2 RES2    0.0000
     89 C44        3.3392    7.0731   14.4280 C.ar      2 RES2    0.0000
     90 H34        3.7127    7.3315   15.2618 H         2 RES2    0.0000
     91 C45        4.0419    6.1787   13.5974 C.ar      2 RES2    0.0000
     92 C46        3.4452    5.7814   12.3768 C.ar      2 RES2    0.0000
     93 C47        6.4869    9.5609   14.3038 C.3       2 RES2    0.0000
     94 H35        6.1451    9.8686   15.1695 H         2 RES2    0.0000
     95 H36        6.0264   10.0385   13.5827 H         2 RES2    0.0000
     96 H37        7.4491    9.7390   14.2511 H         2 RES2    0.0000
     97 C48        8.2531    4.4485   12.7464 C.2       2 RES2    0.0000
     98 C49        9.4210    3.6601   13.2911 C.3       2 RES2    0.0000
     99 C50        9.6283    4.0327   14.7633 C.3       2 RES2    0.0000
    100 H38        9.8451    4.9868   14.8325 H         2 RES2    0.0000
    101 H39       10.3642    3.5036   15.1341 H         2 RES2    0.0000
    102 H40        8.8085    3.8484   15.2673 H         2 RES2    0.0000
    103 C51        9.1124    2.1821   13.1580 C.3       2 RES2    0.0000
    104 H41        8.3369    1.9587   13.7131 H         2 RES2    0.0000
    105 H42        9.8863    1.6592   13.4550 H         2 RES2    0.0000
    106 H43        8.9161    1.9721   12.2214 H         2 RES2    0.0000
    107 C52       10.6696    4.0193   12.5026 C.3       2 RES2    0.0000
    108 H44       10.5462    3.7702   11.5639 H         2 RES2    0.0000
    109 H45       11.4387    3.5345   12.8708 H         2 RES2    0.0000
    110 H46       10.8310    4.9837   12.5665 H         2 RES2    0.0000
@<TRIPOS>BOND
     1    1    8 1
     2    2   23 1
     3    3   42 2
     4    4    6 2
     5    5    6 2
     6    6   19 1
     7    7    8 ar
     8    8    9 ar
     9    9   10 1
    10   11    9 ar
    11   12   11 1
    12   13   14 1
    13   15   13 ar
    14   16   15 1
    15   17   15 ar
    16   18   17 1
    17   19   17 ar
    18   20    7 ar
    19   21   11 ar
    20   22    7 1
    21   23   22 ar
    22   24   23 ar
    23   25   24 1
    24   26   24 ar
    25   27   26 1
    26   28   29 1
    27   30   28 ar
    28   31   30 1
    29   32   30 ar
    30   33   32 1
    31   34   32 ar
    32   35   34 1
    33   36   22 ar
    34   37   26 ar
    35   38    1 1
    36   39   38 1
    37   40   38 1
    38   41   38 1
    39   42    2 1
    40   43   42 1
    41   44   43 1
    42   45   44 1
    43   46   44 1
    44   47   44 1
    45   48   43 1
    46   49   48 1
    47   50   48 1
    48   51   48 1
    49   52   43 1
    50   53   52 1
    51   54   52 1
    52   55   52 1
    53   56   63 1
    54   57   78 1
    55   58   97 2
    56   59   61 2
    57   60   61 2
    58   61   74 1
    59   62   63 ar
    60   63   64 ar
    61   64   65 1
    62   66   64 ar
    63   67   66 1
    64   68   69 1
    65   70   68 ar
    66   71   70 1
    67   72   70 ar
    68   73   72 1
    69   74   72 ar
    70   75   62 ar
    71   76   66 ar
    72   77   62 1
    73   78   77 ar
    74   79   78 ar
    75   80   79 1
    76   81   79 ar
    77   82   81 1
    78   83   84 1
    79   85   83 ar
    80   86   85 1
    81   87   85 ar
    82   88   87 1
    83   89   87 ar
    84   90   89 1
    85   91   77 ar
    86   92   81 ar
    87   93   56 1
    88   94   93 1
    89   95   93 1
    90   96   93 1
    91   97   57 1
    92   98   97 1
    93   99   98 1
    94  100   99 1
    95  101   99 1
    96  102   99 1
    97  103   98 1
    98  104  103 1
    99  105  103 1
   100  106  103 1
   101  107   98 1
   102  108  107 1
   103  109  107 1
   104  110  107 1
   105   13   21 ar
   106   19   20 ar
   107   20   21 ar
   108   28   37 ar
   109   34   36 ar
   110   36   37 ar
   111   68   76 ar
   112   74   75 ar
   113   75   76 ar
   114   83   92 ar
   115   89   91 ar
   116   91   92 ar
@<TRIPOS>SUBSTRUCTURE
     1 RES1 1
     2 RES2 56

@<TRIPOS>CRYSIN
  15.8256   10.2927   27.1708  90.0000  90.0000  90.0000  33 1

