# MOL2 file generated by ConQuest
# Please check atom types

@<TRIPOS>MOLECULE
VADJOA01
    24    25     1
SMALL
NO_CHARGES
****
Generated from CSD

@<TRIPOS>ATOM
      1 N1        -3.9418    3.6895    7.8020 N.ar      1 RES1    0.0000
      2 C1        -3.1362    2.8841    8.5049 C.ar      1 RES1    0.0000
      3 C2        -3.2083    2.7463    9.8786 C.ar      1 RES1    0.0000
      4 H1        -2.6221    2.1857   10.3329 H         1 RES1    0.0000
      5 C3        -4.1697    3.4610   10.5552 C.ar      1 RES1    0.0000
      6 H2        -4.2485    3.3812   11.4786 H         1 RES1    0.0000
      7 C4        -5.0029    4.2832    9.8701 C.ar      1 RES1    0.0000
      8 H3        -5.6550    4.7757   10.3149 H         1 RES1    0.0000
      9 C5        -4.8649    4.3747    8.5062 C.ar      1 RES1    0.0000
     10 H4        -5.4398    4.9405    8.0424 H         1 RES1    0.0000
     11 C6        -2.1348    2.1371    7.7077 C.2       1 RES1    0.0000
     12 N2        -1.7261    1.0294    8.2073 N.2       1 RES1    0.0000
     13 O1        -0.7511    0.4001    7.4391 O.3       1 RES1    0.0000
     14 H5        -0.5234   -0.2978    7.8042 H         1 RES1    0.0000
     15 C7        -1.6639    2.7064    6.4054 C.ar      1 RES1    0.0000
     16 N3        -0.9220    3.8190    6.4863 N.ar      1 RES1    0.0000
     17 C8        -0.5064    4.3588    5.3319 C.ar      1 RES1    0.0000
     18 H6         0.0209    5.1245    5.3687 H         1 RES1    0.0000
     19 C9        -0.8170    3.8433    4.0966 C.ar      1 RES1    0.0000
     20 H7        -0.5139    4.2566    3.3207 H         1 RES1    0.0000
     21 C10       -1.5808    2.7106    4.0323 C.ar      1 RES1    0.0000
     22 H8        -1.8121    2.3432    3.2096 H         1 RES1    0.0000
     23 C11       -2.0016    2.1218    5.2052 C.ar      1 RES1    0.0000
     24 H9        -2.5076    1.3412    5.1865 H         1 RES1    0.0000
@<TRIPOS>BOND
     1    1    2 ar
     2    2    3 ar
     3    3    4 1
     4    5    3 ar
     5    6    5 1
     6    7    5 ar
     7    8    7 1
     8    9    1 ar
     9   10    9 1
    10   11    2 1
    11   12   11 2
    12   13   12 1
    13   14   13 1
    14   15   11 1
    15   16   15 ar
    16   17   16 ar
    17   18   17 1
    18   19   17 ar
    19   20   19 1
    20   21   19 ar
    21   22   21 1
    22   23   15 ar
    23   24   23 1
    24    7    9 ar
    25   21   23 ar
@<TRIPOS>SUBSTRUCTURE
     1 RES1 1

@<TRIPOS>CRYSIN
   8.8811   10.6362   11.2050  90.0000 109.0850  90.0000 231 1

