# MOL2 file generated by ConQuest
# Please check atom types

@<TRIPOS>MOLECULE
VAFCEK
    60    62     2
SMALL
NO_CHARGES
****
Generated from CSD

@<TRIPOS>ATOM
      1 C1        -0.9997    1.2842    2.1169 C.3       1 RES1    0.0000
      2 C2        -0.4463    1.6950    0.7872 C.ar      1 RES1    0.0000
      3 C3         0.9334    1.7793    0.6139 C.ar      1 RES1    0.0000
      4 C4         1.4311    2.0597   -0.6509 C.ar      1 RES1    0.0000
      5 C5         0.5964    2.2563   -1.7133 C.ar      1 RES1    0.0000
      6 C6        -0.7493    2.1749   -1.5453 C.ar      1 RES1    0.0000
      7 C7        -1.2999    1.9046   -0.3003 C.ar      1 RES1    0.0000
      8 C8         1.8924    1.5732    1.7424 C.3       1 RES1    0.0000
      9 C9        -2.7965    1.8315   -0.1720 C.3       1 RES1    0.0000
     10 N1         0.3147    5.7368    8.3986 N.pl3     1 RES1    0.0000
     11 O1        -0.7670    2.3398    3.0959 O.3       1 RES1    0.0000
     12 C10       -1.2416    2.0735    4.3104 C.2       1 RES1    0.0000
     13 C11       -0.8131    3.0676    5.3318 C.ar      1 RES1    0.0000
     14 C12       -0.0373    4.1700    5.0355 C.ar      1 RES1    0.0000
     15 C13        0.3426    5.0442    6.0396 C.ar      1 RES1    0.0000
     16 C14       -0.0792    4.7996    7.3151 C.ar      1 RES1    0.0000
     17 C15       -0.8387    3.7242    7.6418 C.ar      1 RES1    0.0000
     18 C16       -1.2056    2.8462    6.6456 C.ar      1 RES1    0.0000
     19 O2         1.0574    6.6490    8.1036 O.2       1 RES1    0.0000
     20 O3        -1.9155    1.1112    4.5631 O.2       1 RES1    0.0000
     21 O4        -0.1667    5.5570    9.5073 O.2       1 RES1    0.0000
     22 C17        1.8168    9.1164    4.7907 C.3       2 RES2    0.0000
     23 C18        1.3728   10.5412    4.8767 C.ar      2 RES2    0.0000
     24 C19        0.0561   10.8455    5.2485 C.ar      2 RES2    0.0000
     25 C20       -0.3235   12.1712    5.3067 C.ar      2 RES2    0.0000
     26 C21        0.5626   13.1751    5.0196 C.ar      2 RES2    0.0000
     27 C22        1.8431   12.8830    4.6478 C.ar      2 RES2    0.0000
     28 C23        2.2696   11.5665    4.5684 C.ar      2 RES2    0.0000
     29 C24       -0.9487    9.7795    5.5753 C.3       2 RES2    0.0000
     30 C25        3.6830   11.2874    4.1411 C.3       2 RES2    0.0000
     31 N2         1.3502    6.0494   -2.3709 N.pl3     2 RES2    0.0000
     32 O5         1.6408    8.6931    3.3976 O.3       2 RES2    0.0000
     33 C26        1.9315    7.4206    3.1316 C.2       2 RES2    0.0000
     34 C27        1.7668    7.0946    1.6895 C.ar      2 RES2    0.0000
     35 C28        1.1539    7.9579    0.8097 C.ar      2 RES2    0.0000
     36 C29        1.0065    7.6236   -0.5226 C.ar      2 RES2    0.0000
     37 C30        1.5036    6.4202   -0.9473 C.ar      2 RES2    0.0000
     38 C31        2.1348    5.5496   -0.1006 C.ar      2 RES2    0.0000
     39 C32        2.2533    5.8845    1.2384 C.ar      2 RES2    0.0000
     40 O6         2.2835    6.6288    3.9585 O.2       2 RES2    0.0000
     41 O7         0.4899    6.6311   -3.0271 O.2       2 RES2    0.0000
     42 O8         2.1077    5.2027   -2.8128 O.2       2 RES2    0.0000
     43 H1        -0.5661    0.4783    2.4079 H         1 RES1    0.0000
     44 H2        -1.9433    1.1273    2.0361 H         1 RES1    0.0000
     45 H3         2.3808    2.1171   -0.7806 H         1 RES1    0.0000
     46 H4         0.9605    2.4531   -2.5799 H         1 RES1    0.0000
     47 H5        -1.3281    2.3062   -2.2994 H         1 RES1    0.0000
     48 H6         0.2393    4.3315    4.1305 H         1 RES1    0.0000
     49 H7         0.8924    5.8077    5.8425 H         1 RES1    0.0000
     50 H8        -1.1155    3.5780    8.5494 H         1 RES1    0.0000
     51 H9        -1.7374    2.0766    6.8626 H         1 RES1    0.0000
     52 H10        1.2820    8.5700    5.3715 H         2 RES2    0.0000
     53 H11        2.7397    9.0440    5.0434 H         2 RES2    0.0000
     54 H12       -1.2252   12.3943    5.5528 H         2 RES2    0.0000
     55 H13        0.2812   14.0903    5.0818 H         2 RES2    0.0000
     56 H14        2.4520   13.5945    4.4401 H         2 RES2    0.0000
     57 H15        0.8246    8.8030    1.1259 H         2 RES2    0.0000
     58 H16        0.5658    8.2198   -1.1338 H         2 RES2    0.0000
     59 H17        2.4899    4.7203   -0.4287 H         2 RES2    0.0000
     60 H18        2.6723    5.2772    1.8509 H         2 RES2    0.0000
@<TRIPOS>BOND
     1    1    2 1
     2    2    3 ar
     3    3    4 ar
     4    4    5 ar
     5    5    6 ar
     6    6    7 ar
     7    7    2 ar
     8    8    3 1
     9    9    7 1
    10   10   16 1
    11   11    1 1
    12   12   11 1
    13   13   12 1
    14   14   13 ar
    15   15   14 ar
    16   16   15 ar
    17   17   16 ar
    18   18   13 ar
    19   19   10 2
    20   20   12 2
    21   21   10 2
    22   22   23 1
    23   23   24 ar
    24   24   25 ar
    25   25   26 ar
    26   26   27 ar
    27   27   28 ar
    28   28   23 ar
    29   29   24 1
    30   30   28 1
    31   31   37 1
    32   32   22 1
    33   33   32 1
    34   34   33 1
    35   35   34 ar
    36   36   35 ar
    37   37   36 ar
    38   38   37 ar
    39   39   34 ar
    40   40   33 2
    41   41   31 2
    42   42   31 2
    43   43    1 1
    44   44    1 1
    45   45    4 1
    46   46    5 1
    47   47    6 1
    48   48   14 1
    49   49   15 1
    50   50   17 1
    51   51   18 1
    52   52   22 1
    53   53   22 1
    54   54   25 1
    55   55   26 1
    56   56   27 1
    57   57   35 1
    58   58   36 1
    59   59   38 1
    60   60   39 1
    61   17   18 ar
    62   38   39 ar
@<TRIPOS>SUBSTRUCTURE
     1 RES1 1
     2 RES2 22

@<TRIPOS>CRYSIN
   8.2080   13.4960   14.2150 105.6700 103.1300  93.9900   2 1

