# MOL2 file generated by ConQuest
# Please check atom types

@<TRIPOS>MOLECULE
VAFCIO01
    68    72     2
SMALL
NO_CHARGES
****
Generated from CSD

@<TRIPOS>ATOM
      1 H1         2.9451    4.2666    1.2815 H         1 RES1    0.0000
      2 H2         4.0453    9.4162   12.3695 H         2 RES2    0.0000
      3 H3         3.3620    8.7457   14.2175 H         2 RES2    0.0000
      4 O1         0.2603    7.4476    9.7484 O.3       2 RES2    0.0000
      5 O2        -1.0446    8.2195    8.0860 O.2       2 RES2    0.0000
      6 C1        -0.0725    6.1685    6.3948 C.ar      2 RES2    0.0000
      7 C2        -0.2855    7.3945    8.5333 C.2       2 RES2    0.0000
      8 C3         0.8366    5.1409    8.3646 C.ar      2 RES2    0.0000
      9 C4         1.0043    4.0575    6.2643 C.ar      2 RES2    0.0000
     10 C5         0.1696    6.1982    7.7615 C.ar      2 RES2    0.0000
     11 O3         1.0615    2.8315    4.3100 O.2       2 RES2    0.0000
     12 C6         0.3476    5.0976    5.6371 C.ar      2 RES2    0.0000
     13 O4         2.2649    2.1339    5.9593 O.2       2 RES2    0.0000
     14 N1         1.4826    2.9275    5.4496 N.pl3     2 RES2    0.0000
     15 C7         1.0487    8.7331   11.5945 C.ar      2 RES2    0.0000
     16 C8         1.2557    4.0582    7.6132 C.ar      2 RES2    0.0000
     17 C9        -0.0318    8.6506   10.5619 C.3       2 RES2    0.0000
     18 C10        0.5407    8.3362   12.8227 C.ar      2 RES2    0.0000
     19 C11        2.3591    9.1452   11.4131 C.ar      2 RES2    0.0000
     20 C12       -1.3231    8.5072   11.3322 C.3       2 RES2    0.0000
     21 C13        1.3735    8.3287   13.9167 C.ar      2 RES2    0.0000
     22 C14        2.6792    8.7007   13.7723 C.ar      2 RES2    0.0000
     23 C15       -0.9305    7.9754   12.6986 C.3       2 RES2    0.0000
     24 C16        3.1916    9.1252   12.5260 C.ar      2 RES2    0.0000
     25 O5         0.1158    9.0594    3.6082 O.3       1 RES1    0.0000
     26 C17        0.4632   12.0236    7.5258 C.ar      1 RES1    0.0000
     27 C18        0.0277   10.8934    5.0677 C.ar      1 RES1    0.0000
     28 C19        0.7531   10.2039    6.0364 C.ar      1 RES1    0.0000
     29 N2         0.7220   12.6449    8.8406 N.pl3     1 RES1    0.0000
     30 C20        0.9850   10.7721    7.2698 C.ar      1 RES1    0.0000
     31 C21       -0.2691   12.7254    6.5894 C.ar      1 RES1    0.0000
     32 C22        0.8368    7.3186    2.0971 C.ar      1 RES1    0.0000
     33 O6         1.3940   12.0363    9.6508 O.2       1 RES1    0.0000
     34 C23       -0.4680   12.1632    5.3579 C.ar      1 RES1    0.0000
     35 C24       -0.2449   10.3277    3.7203 C.2       1 RES1    0.0000
     36 O7        -0.7440   10.9451    2.8341 O.2       1 RES1    0.0000
     37 C25        0.2327    6.1065    1.8681 C.ar      1 RES1    0.0000
     38 C26       -0.1930    8.3837    2.3377 C.3       1 RES1    0.0000
     39 O8         0.2778   13.7570    9.0477 O.2       1 RES1    0.0000
     40 C27        1.0103    4.9893    1.5850 C.ar      1 RES1    0.0000
     41 C28        2.3715    5.1127    1.5351 C.ar      1 RES1    0.0000
     42 C29        2.2324    7.4469    2.0422 C.ar      1 RES1    0.0000
     43 C30       -1.2703    6.2072    1.9451 C.3       1 RES1    0.0000
     44 C31        2.9800    6.3327    1.7495 C.ar      1 RES1    0.0000
     45 C32       -1.5230    7.6013    2.4375 C.3       1 RES1    0.0000
     46 H4         2.6014    8.3255    2.1717 H         1 RES1    0.0000
     47 H5         1.0919    9.3860    5.8367 H         1 RES1    0.0000
     48 H6         1.0383    5.1909    9.2549 H         2 RES2    0.0000
     49 H7        -0.6036   13.5441    6.8120 H         1 RES1    0.0000
     50 H8        -0.0342    9.4044    9.9307 H         2 RES2    0.0000
     51 H9         1.4845   10.3162    7.9586 H         1 RES1    0.0000
     52 H10       -0.5288    6.9358    5.9891 H         2 RES2    0.0000
     53 H11        1.6921    3.3087    8.0260 H         2 RES2    0.0000
     54 H12        0.1872    5.0598    4.7347 H         2 RES2    0.0000
     55 H13       -0.1440    9.1349    1.6187 H         1 RES1    0.0000
     56 H14       -0.9239   12.6259    4.6942 H         1 RES1    0.0000
     57 H15        3.9310    6.4780    1.7131 H         1 RES1    0.0000
     58 H16        0.4680    4.1206    1.5108 H         1 RES1    0.0000
     59 H17       -1.9690    7.8782   10.8182 H         2 RES2    0.0000
     60 H18        2.7020    9.4257   10.4945 H         2 RES2    0.0000
     61 H19       -1.4633    8.3713   13.4891 H         2 RES2    0.0000
     62 H20       -1.6006    5.4021    2.3876 H         1 RES1    0.0000
     63 H21       -1.0650    6.9234   12.8146 H         2 RES2    0.0000
     64 H22       -1.6819    6.1266    0.9982 H         1 RES1    0.0000
     65 H23       -1.7309    9.4594   11.3983 H         2 RES2    0.0000
     66 H24       -2.2787    8.0308    2.1043 H         1 RES1    0.0000
     67 H25       -1.7649    7.6265    3.2913 H         1 RES1    0.0000
     68 H26        0.8979    8.0234   14.7840 H         2 RES2    0.0000
@<TRIPOS>BOND
     1    1   41 1
     2    2   24 1
     3    3   22 1
     4    4    7 1
     5    5    7 2
     6    6   10 ar
     7    7   10 1
     8    8   10 ar
     9    9   12 ar
    10   11   14 2
    11   12    6 ar
    12   13   14 2
    13   14    9 1
    14   15   17 1
    15   16    8 ar
    16   17    4 1
    17   18   15 ar
    18   19   15 ar
    19   20   17 1
    20   21   18 ar
    21   22   21 ar
    22   23   18 1
    23   24   19 ar
    24   25   35 1
    25   26   29 1
    26   27   28 ar
    27   28   30 ar
    28   29   33 2
    29   30   26 ar
    30   31   26 ar
    31   32   37 ar
    32   34   27 ar
    33   35   27 1
    34   36   35 2
    35   37   40 ar
    36   38   25 1
    37   39   29 2
    38   40   41 ar
    39   41   44 ar
    40   42   32 ar
    41   43   37 1
    42   44   42 ar
    43   45   38 1
    44   46   42 1
    45   47   28 1
    46   48    8 1
    47   49   31 1
    48   50   17 1
    49   51   30 1
    50   52    6 1
    51   53   16 1
    52   54   12 1
    53   55   38 1
    54   56   34 1
    55   57   44 1
    56   58   40 1
    57   59   20 1
    58   60   19 1
    59   61   23 1
    60   62   43 1
    61   63   23 1
    62   64   43 1
    63   65   20 1
    64   66   45 1
    65   67   45 1
    66   68   21 1
    67    9   16 ar
    68   20   23 1
    69   22   24 ar
    70   31   34 ar
    71   32   38 1
    72   43   45 1
@<TRIPOS>SUBSTRUCTURE
     1 RES1 1
     2 RES2 2

@<TRIPOS>CRYSIN
   8.1700   12.8160   13.9860 100.2160 100.9970  91.6080   2 1

