# MOL2 file generated by ConQuest
# Please check atom types

@<TRIPOS>MOLECULE
VAFCIO
    68    72     2
SMALL
NO_CHARGES
****
Generated from CSD

@<TRIPOS>ATOM
      1 C1         5.0951    8.2688   11.1172 C.3       1 RES1    0.0000
      2 C2         4.0740    9.3293   11.3689 C.ar      1 RES1    0.0000
      3 C3         4.6701   10.5438   11.5964 C.ar      1 RES1    0.0000
      4 C4         6.1696   10.4430   11.5210 C.3       1 RES1    0.0000
      5 C5         6.4191    9.0431   11.0096 C.3       1 RES1    0.0000
      6 C6         2.6865    9.2008   11.4133 C.ar      1 RES1    0.0000
      7 C7         1.9400   10.3162   11.7121 C.ar      1 RES1    0.0000
      8 C8         2.5417   11.5356   11.9275 C.ar      1 RES1    0.0000
      9 C9         3.8993   11.6472   11.8844 C.ar      1 RES1    0.0000
     10 O1         4.7903    7.5939    9.8575 O.3       1 RES1    0.0000
     11 C10        5.1525    6.3267    9.7538 C.2       1 RES1    0.0000
     12 O2         5.6483    5.7104   10.6300 O.2       1 RES1    0.0000
     13 C11        4.8826    5.7623    8.4025 C.ar      1 RES1    0.0000
     14 C12        4.1626    6.4495    7.4415 C.ar      1 RES1    0.0000
     15 C13        3.9345    5.8797    6.2006 C.ar      1 RES1    0.0000
     16 C14        4.4543    4.6214    5.9476 C.ar      1 RES1    0.0000
     17 C15        5.1842    3.9245    6.8857 C.ar      1 RES1    0.0000
     18 C16        5.3814    4.4881    8.1118 C.ar      1 RES1    0.0000
     19 N1         4.1948    4.0047    4.6367 N.pl3     1 RES1    0.0000
     20 O3         3.5176    4.6168    3.8305 O.2       1 RES1    0.0000
     21 O4         4.6441    2.8968    4.4334 O.2       1 RES1    0.0000
     22 C17        0.1321    2.2488   10.5277 C.3       2 RES2    0.0000
     23 C18        1.1977    2.3378   11.5668 C.ar      2 RES2    0.0000
     24 C19        0.6830    1.9334   12.8037 C.ar      2 RES2    0.0000
     25 C20       -0.7658    1.5762   12.6718 C.3       2 RES2    0.0000
     26 C21       -1.1511    2.1016   11.3016 C.3       2 RES2    0.0000
     27 C22        2.5009    2.7358   11.3878 C.ar      2 RES2    0.0000
     28 C23        3.3186    2.7138   12.5076 C.ar      2 RES2    0.0000
     29 C24        2.8176    2.3035   13.7418 C.ar      2 RES2    0.0000
     30 C25        1.5124    1.9326   13.8790 C.ar      2 RES2    0.0000
     31 O5         0.4191    1.0508    9.7242 O.3       2 RES2    0.0000
     32 C26       -0.1248    0.9973    8.5102 C.2       2 RES2    0.0000
     33 O6        -0.8791    1.8158    8.0728 O.2       2 RES2    0.0000
     34 C27        0.3302   -0.1991    7.7457 C.ar      2 RES2    0.0000
     35 C28        0.0915   -0.2298    6.3769 C.ar      2 RES2    0.0000
     36 C29        0.5208   -1.3019    5.6178 C.ar      2 RES2    0.0000
     37 C30        1.1676   -2.3349    6.2504 C.ar      2 RES2    0.0000
     38 C31        1.4157   -2.3351    7.5936 C.ar      2 RES2    0.0000
     39 C32        0.9983   -1.2507    8.3487 C.ar      2 RES2    0.0000
     40 N2         1.6468   -3.4699    5.4388 N.pl3     2 RES2    0.0000
     41 O7         1.2308   -3.5676    4.2962 O.2       2 RES2    0.0000
     42 O8         2.4223   -4.2549    5.9422 O.2       2 RES2    0.0000
     43 H1         5.1234    7.5966   11.8023 H         1 RES1    0.0000
     44 H2         6.5246   11.0957   10.9127 H         1 RES1    0.0000
     45 H3         6.5632   10.5646   12.3878 H         1 RES1    0.0000
     46 H4         6.7070    9.0750   10.0943 H         1 RES1    0.0000
     47 H5         7.0939    8.6154   11.5425 H         1 RES1    0.0000
     48 H6         2.2643    8.3569   11.2397 H         1 RES1    0.0000
     49 H7         0.9843   10.2422   11.7727 H         1 RES1    0.0000
     50 H8         2.0028   12.3092   12.1078 H         1 RES1    0.0000
     51 H9         4.3166   12.4944   12.0540 H         1 RES1    0.0000
     52 H10        3.8201    7.3254    7.6354 H         1 RES1    0.0000
     53 H11        3.4276    6.3457    5.5317 H         1 RES1    0.0000
     54 H12        5.5472    3.0596    6.6811 H         1 RES1    0.0000
     55 H13        5.8680    4.0050    8.7834 H         1 RES1    0.0000
     56 H14        0.0819    3.0052    9.9382 H         2 RES2    0.0000
     57 H15       -0.8883    0.6255   12.7189 H         2 RES2    0.0000
     58 H16       -1.2857    2.0001   13.3582 H         2 RES2    0.0000
     59 H17       -1.5899    2.9515   11.3824 H         2 RES2    0.0000
     60 H18       -1.7354    1.4807   10.8602 H         2 RES2    0.0000
     61 H19        2.8294    3.0139   10.5291 H         2 RES2    0.0000
     62 H20        4.2376    2.9848   12.4322 H         2 RES2    0.0000
     63 H21        3.3986    2.2795   14.5062 H         2 RES2    0.0000
     64 H22        1.1783    1.6708   14.7391 H         2 RES2    0.0000
     65 H23       -0.3731    0.4973    5.9570 H         2 RES2    0.0000
     66 H24        0.3696   -1.3239    4.6703 H         2 RES2    0.0000
     67 H25        1.8717   -3.0721    8.0055 H         2 RES2    0.0000
     68 H26        1.1735   -1.2295    9.2935 H         2 RES2    0.0000
@<TRIPOS>BOND
     1    1    2 1
     2    2    3 ar
     3    3    4 1
     4    4    5 1
     5    5    1 1
     6    6    2 ar
     7    7    6 ar
     8    8    7 ar
     9    9    3 ar
    10   10    1 1
    11   11   10 1
    12   12   11 2
    13   13   11 1
    14   14   13 ar
    15   15   14 ar
    16   16   15 ar
    17   17   16 ar
    18   18   13 ar
    19   19   16 1
    20   20   19 2
    21   21   19 2
    22   22   23 1
    23   23   24 ar
    24   24   25 1
    25   25   26 1
    26   26   22 1
    27   27   23 ar
    28   28   27 ar
    29   29   28 ar
    30   30   24 ar
    31   31   22 1
    32   32   31 1
    33   33   32 2
    34   34   32 1
    35   35   34 ar
    36   36   35 ar
    37   37   36 ar
    38   38   37 ar
    39   39   34 ar
    40   40   37 1
    41   41   40 2
    42   42   40 2
    43   43    1 1
    44   44    4 1
    45   45    4 1
    46   46    5 1
    47   47    5 1
    48   48    6 1
    49   49    7 1
    50   50    8 1
    51   51    9 1
    52   52   14 1
    53   53   15 1
    54   54   17 1
    55   55   18 1
    56   56   22 1
    57   57   25 1
    58   58   25 1
    59   59   26 1
    60   60   26 1
    61   61   27 1
    62   62   28 1
    63   63   29 1
    64   64   30 1
    65   65   35 1
    66   66   36 1
    67   67   38 1
    68   68   39 1
    69    8    9 ar
    70   17   18 ar
    71   29   30 ar
    72   38   39 ar
@<TRIPOS>SUBSTRUCTURE
     1 RES1 1
     2 RES2 22

@<TRIPOS>CRYSIN
   8.1160   12.7840   13.9540 100.1500 101.0300  91.6600   2 1

