# MOL2 file generated by ConQuest
# Please check atom types

@<TRIPOS>MOLECULE
VAFCOV
    30    32     1
SMALL
NO_CHARGES
****
Generated from CSD

@<TRIPOS>ATOM
      1 O1         5.0329   10.9189    2.1916 O.2       1 RES1    0.0000
      2 O2         3.1549   14.7941   10.0207 O.2       1 RES1    0.0000
      3 O3         2.0853   16.0809    8.6474 O.2       1 RES1    0.0000
      4 O4         5.6174    8.6147    7.0134 O.2       1 RES1    0.0000
      5 N1         2.7959   15.1569    8.9371 N.pl3     1 RES1    0.0000
      6 O5         3.2354   14.4517    7.8292 O.3       1 RES1    0.0000
      7 C1         4.1132   13.3538    8.1391 C.3       1 RES1    0.0000
      8 H1         3.7023   12.7723    8.7971 H         1 RES1    0.0000
      9 H2         4.9506   13.6853    8.5009 H         1 RES1    0.0000
     10 C2         4.3582   12.6040    6.8612 C.ar      1 RES1    0.0000
     11 C3         4.2185   13.1964    5.6076 C.ar      1 RES1    0.0000
     12 H3         3.9499   14.0853    5.5445 H         1 RES1    0.0000
     13 C4         4.4768   12.4733    4.4544 C.ar      1 RES1    0.0000
     14 H4         4.3761   12.8766    3.6224 H         1 RES1    0.0000
     15 C5         4.8841   11.1552    4.5385 C.ar      1 RES1    0.0000
     16 C6         5.1521   10.3869    3.2849 C.2       1 RES1    0.0000
     17 C7         5.5844    8.9719    3.4071 C.ar      1 RES1    0.0000
     18 C8         5.8274    8.2203    2.2547 C.ar      1 RES1    0.0000
     19 H5         5.7083    8.6025    1.4155 H         1 RES1    0.0000
     20 C9         6.2445    6.9103    2.3632 C.ar      1 RES1    0.0000
     21 H6         6.3900    6.4046    1.5959 H         1 RES1    0.0000
     22 C10        6.4479    6.3461    3.6087 C.ar      1 RES1    0.0000
     23 H7         6.7533    5.4698    3.6734 H         1 RES1    0.0000
     24 C11        6.2016    7.0701    4.7579 C.ar      1 RES1    0.0000
     25 H8         6.3281    6.6764    5.5906 H         1 RES1    0.0000
     26 C12        5.7640    8.3856    4.6697 C.ar      1 RES1    0.0000
     27 C13        5.4852    9.1425    5.9160 C.2       1 RES1    0.0000
     28 C14        5.0404   10.5493    5.7938 C.ar      1 RES1    0.0000
     29 C15        4.7692   11.2894    6.9519 C.ar      1 RES1    0.0000
     30 H9         4.8677   10.8917    7.7871 H         1 RES1    0.0000
@<TRIPOS>BOND
     1    1   16 2
     2    2    5 2
     3    3    5 2
     4    4   27 2
     5    5    6 1
     6    6    7 1
     7    7    8 1
     8    9    7 1
     9   10    7 1
    10   11   10 ar
    11   12   11 1
    12   13   11 ar
    13   14   13 1
    14   15   13 ar
    15   16   15 1
    16   17   16 1
    17   18   17 ar
    18   19   18 1
    19   20   18 ar
    20   21   20 1
    21   22   20 ar
    22   23   22 1
    23   24   22 ar
    24   25   24 1
    25   26   17 ar
    26   27   26 1
    27   28   15 ar
    28   29   10 ar
    29   30   29 1
    30   24   26 ar
    31   27   28 1
    32   28   29 ar
@<TRIPOS>SUBSTRUCTURE
     1 RES1 1

@<TRIPOS>CRYSIN
   6.9570   21.7400    8.1050  90.0000  93.1200  90.0000  14 1

