# MOL2 file generated by ConQuest
# Please check atom types

@<TRIPOS>MOLECULE
VAFQUQ
    33    34     1
SMALL
NO_CHARGES
****
Generated from CSD

@<TRIPOS>ATOM
      1 O1         0.8418   -1.9489    5.6372 O.3       1 RES1    0.0000
      2 O2         1.2361   -0.2746    9.8963 O.2       1 RES1    0.0000
      3 O3         3.0528   -1.3347    9.1189 O.3       1 RES1    0.0000
      4 O4        -0.7403   -0.0361    3.9824 O.3       1 RES1    0.0000
      5 H1        -1.4806   -0.4304    3.9359 H         1 RES1    0.0000
      6 N1        -0.4034   -1.2362    6.0052 N.3       1 RES1    0.0000
      7 C1        -0.3540    0.0728    5.3230 C.3       1 RES1    0.0000
      8 H2         0.5891    0.4036    5.3503 H         1 RES1    0.0000
      9 C2        -1.2058    0.9790    6.2254 C.3       1 RES1    0.0000
     10 C3        -0.7648    0.5131    7.6227 C.3       1 RES1    0.0000
     11 H3        -1.5188    0.5753    8.2605 H         1 RES1    0.0000
     12 H4        -0.0230    1.0784    7.9553 H         1 RES1    0.0000
     13 C4        -0.3011   -0.9519    7.4803 C.3       1 RES1    0.0000
     14 C5         1.1722   -1.1867    7.7332 C.2       1 RES1    0.0000
     15 C6         1.7062   -1.7731    6.6681 C.2       1 RES1    0.0000
     16 H5         2.6157   -2.0458    6.6310 H         1 RES1    0.0000
     17 C7        -0.8715    2.4425    5.9770 C.3       1 RES1    0.0000
     18 H6        -1.0910    2.6743    5.0507 H         1 RES1    0.0000
     19 H7         0.0848    2.5902    6.1333 H         1 RES1    0.0000
     20 H8        -1.3931    3.0046    6.5874 H         1 RES1    0.0000
     21 C8        -2.7032    0.7379    6.0226 C.3       1 RES1    0.0000
     22 H9        -2.9451    0.9504    5.0972 H         1 RES1    0.0000
     23 H10       -3.2115    1.3109    6.6338 H         1 RES1    0.0000
     24 H11       -2.9102   -0.2020    6.2072 H         1 RES1    0.0000
     25 C9        -1.1457   -1.9491    8.2537 C.3       1 RES1    0.0000
     26 H12       -0.8813   -2.8605    8.0093 H         1 RES1    0.0000
     27 H13       -2.0920   -1.8138    8.0368 H         1 RES1    0.0000
     28 H14       -1.0087   -1.8166    9.2151 H         1 RES1    0.0000
     29 C10        1.7994   -0.8722    9.0139 C.2       1 RES1    0.0000
     30 C11        3.7043   -1.0282   10.3727 C.3       1 RES1    0.0000
     31 H15        4.5891   -1.4489   10.3925 H         1 RES1    0.0000
     32 H16        3.1628   -1.3706   11.1148 H         1 RES1    0.0000
     33 H17        3.8029   -0.0572   10.4607 H         1 RES1    0.0000
@<TRIPOS>BOND
     1    1    6 1
     2    2   29 2
     3    3   29 1
     4    4    5 1
     5    6    7 1
     6    7    4 1
     7    8    7 1
     8    9    7 1
     9   10    9 1
    10   11   10 1
    11   12   10 1
    12   13    6 1
    13   14   13 1
    14   15    1 1
    15   16   15 1
    16   17    9 1
    17   18   17 1
    18   19   17 1
    19   20   17 1
    20   21    9 1
    21   22   21 1
    22   23   21 1
    23   24   21 1
    24   25   13 1
    25   26   25 1
    26   27   25 1
    27   28   25 1
    28   29   14 1
    29   30    3 1
    30   31   30 1
    31   32   30 1
    32   33   30 1
    33   10   13 1
    34   14   15 2
@<TRIPOS>SUBSTRUCTURE
     1 RES1 1

@<TRIPOS>CRYSIN
   7.6528    8.2681   10.5646  99.6290 110.2570 106.0720   2 1

