# MOL2 file generated by ConQuest
# Please check atom types

@<TRIPOS>MOLECULE
VAGWUW
    56    59     1
SMALL
NO_CHARGES
****
Generated from CSD

@<TRIPOS>ATOM
      1 O1        -0.1775    7.4319    3.1148 O.2       1 RES1    0.0000
      2 O2        -1.5477    6.2696    4.3247 O.2       1 RES1    0.0000
      3 N1        -0.4261    6.6836    4.0503 N.pl3     1 RES1    0.0000
      4 C1         3.8531    5.0523    7.3974 C.2       1 RES1    0.0000
      5 H1         3.5843    4.8679    8.2887 H         1 RES1    0.0000
      6 C2         5.1714    4.8924    7.1331 C.2       1 RES1    0.0000
      7 C3         5.7250    4.9352    5.7945 C.2       1 RES1    0.0000
      8 H2         5.1333    4.6820    5.0958 H         1 RES1    0.0000
      9 C4         6.9682    5.2872    5.4081 C.2       1 RES1    0.0000
     10 C5         6.0179    4.5427    8.2410 C.1       1 RES1    0.0000
     11 C6         6.6729    4.2114    9.1823 C.1       1 RES1    0.0000
     12 C7         7.8686    5.8863    6.3522 C.1       1 RES1    0.0000
     13 C8         8.6340    6.4273    7.0882 C.1       1 RES1    0.0000
     14 C9         2.7961    5.4724    6.4906 C.ar      1 RES1    0.0000
     15 C10        3.0115    6.2582    5.3676 C.ar      1 RES1    0.0000
     16 H3         3.8973    6.5229    5.1487 H         1 RES1    0.0000
     17 C11        1.9686    6.6637    4.5608 C.ar      1 RES1    0.0000
     18 H4         2.1254    7.2016    3.7942 H         1 RES1    0.0000
     19 C12        0.6869    6.2650    4.8995 C.ar      1 RES1    0.0000
     20 C13        0.4300    5.4930    5.9981 C.ar      1 RES1    0.0000
     21 H5        -0.4581    5.2283    6.2061 H         1 RES1    0.0000
     22 C14        1.4758    5.1074    6.7943 C.ar      1 RES1    0.0000
     23 H6         1.3044    4.5825    7.5676 H         1 RES1    0.0000
     24 C15        7.4573    3.8242   10.3208 C.ar      1 RES1    0.0000
     25 C16        6.9599    2.9053   11.2328 C.ar      1 RES1    0.0000
     26 H7         6.0929    2.5365   11.1130 H         1 RES1    0.0000
     27 C17        7.7296    2.5281   12.3187 C.ar      1 RES1    0.0000
     28 H8         7.3913    1.8922   12.9375 H         1 RES1    0.0000
     29 C18        8.9744    3.0629   12.5065 C.ar      1 RES1    0.0000
     30 H9         9.4940    2.8020   13.2577 H         1 RES1    0.0000
     31 C19        9.4713    3.9742   11.6147 C.ar      1 RES1    0.0000
     32 H10       10.3340    4.3483   11.7511 H         1 RES1    0.0000
     33 C20        8.7240    4.3506   10.5152 C.ar      1 RES1    0.0000
     34 H11        9.0798    4.9727    9.8920 H         1 RES1    0.0000
     35 C21        9.5805    7.0019    7.9947 C.ar      1 RES1    0.0000
     36 C22        9.1827    7.7395    9.0851 C.ar      1 RES1    0.0000
     37 H12        8.2578    7.8872    9.2447 H         1 RES1    0.0000
     38 C23       10.1242    8.2659    9.9459 C.ar      1 RES1    0.0000
     39 H13        9.8473    8.7732   10.7006 H         1 RES1    0.0000
     40 C24       11.4675    8.0547    9.7100 C.ar      1 RES1    0.0000
     41 H14       12.1132    8.4212   10.3021 H         1 RES1    0.0000
     42 C25       11.8719    7.3255    8.6363 C.ar      1 RES1    0.0000
     43 H15       12.7967    7.1786    8.4845 H         1 RES1    0.0000
     44 C26       10.9424    6.8022    7.7738 C.ar      1 RES1    0.0000
     45 H16       11.2293    6.3002    7.0193 H         1 RES1    0.0000
     46 C27        7.4709    5.1066    4.0354 C.ar      1 RES1    0.0000
     47 C28        8.7361    5.5313    3.6656 C.ar      1 RES1    0.0000
     48 H17        9.2870    5.9483    4.3171 H         1 RES1    0.0000
     49 C29        9.2199    5.3736    2.3972 C.ar      1 RES1    0.0000
     50 H18       10.0887    5.6889    2.1793 H         1 RES1    0.0000
     51 C30        8.4596    4.7638    1.4419 C.ar      1 RES1    0.0000
     52 H19        8.7822    4.6705    0.5529 H         1 RES1    0.0000
     53 C31        7.2130    4.2848    1.7907 C.ar      1 RES1    0.0000
     54 H20        6.6840    3.8403    1.1380 H         1 RES1    0.0000
     55 C32        6.7275    4.4417    3.0609 C.ar      1 RES1    0.0000
     56 H21        5.8717    4.0920    3.2828 H         1 RES1    0.0000
@<TRIPOS>BOND
     1    1    3 2
     2    2    3 2
     3    3   19 1
     4    4    5 1
     5    6    4 2
     6    7    6 1
     7    8    7 1
     8    9    7 2
     9   10    6 1
    10   11   10 3
    11   12    9 1
    12   13   12 3
    13   14    4 1
    14   15   14 ar
    15   16   15 1
    16   17   15 ar
    17   18   17 1
    18   19   17 ar
    19   20   19 ar
    20   21   20 1
    21   22   14 ar
    22   23   22 1
    23   24   11 1
    24   25   24 ar
    25   26   25 1
    26   27   25 ar
    27   28   27 1
    28   29   27 ar
    29   30   29 1
    30   31   29 ar
    31   32   31 1
    32   33   24 ar
    33   34   33 1
    34   35   13 1
    35   36   35 ar
    36   37   36 1
    37   38   36 ar
    38   39   38 1
    39   40   38 ar
    40   41   40 1
    41   42   40 ar
    42   43   42 1
    43   44   35 ar
    44   45   44 1
    45   46    9 1
    46   47   46 ar
    47   48   47 1
    48   49   47 ar
    49   50   49 1
    50   51   49 ar
    51   52   51 1
    52   53   51 ar
    53   54   53 1
    54   55   46 ar
    55   56   55 1
    56   20   22 ar
    57   31   33 ar
    58   42   44 ar
    59   53   55 ar
@<TRIPOS>SUBSTRUCTURE
     1 RES1 1

@<TRIPOS>CRYSIN
  13.5830    7.6515   23.3990  90.0000 100.0930  90.0000  14 1

