# MOL2 file generated by ConQuest
# Please check atom types

@<TRIPOS>MOLECULE
VAHFIU
    30    30     2
SMALL
NO_CHARGES
****
Generated from CSD

@<TRIPOS>ATOM
      1 C1         2.1839    2.5080    9.7639 C.3       1 RES1    0.0000
      2 C2         4.2523    1.0539    9.3140 C.2       1 RES1    0.0000
      3 C3         5.6381    1.8438   10.6360 C.2       1 RES1    0.0000
      4 C4         4.5177    2.6054   10.7493 C.2       1 RES1    0.0000
      5 N1         3.5956    2.0882    9.8954 N.pl3     1 RES1    0.0000
      6 N2         3.6714    0.2515    8.2463 N.pl3     1 RES1    0.0000
      7 N3         5.4640    0.8608    9.7393 N.2       1 RES1    0.0000
      8 N4         6.8481    1.9288   11.4258 N.pl3     1 RES1    0.0000
      9 N5         4.2540    3.7974   11.5380 N.pl3     1 RES1    0.0000
     10 O1         2.7828    0.7492    7.5869 O.2       1 RES1    0.0000
     11 O2         4.1454   -0.8643    8.0860 O.2       1 RES1    0.0000
     12 O3         7.7685    1.2062   11.1233 O.2       1 RES1    0.0000
     13 O4         6.8421    2.7117   12.3631 O.2       1 RES1    0.0000
     14 O5         5.0072    4.7291   11.3745 O.2       1 RES1    0.0000
     15 O6         3.2939    3.7833   12.2765 O.2       1 RES1    0.0000
     16 C5         6.7947    6.2842    2.8642 C.3       2 RES2    0.0000
     17 C6         4.7539    7.6197    2.0958 C.2       2 RES2    0.0000
     18 C7         3.2620    6.9466    3.3579 C.2       2 RES2    0.0000
     19 C8         4.3807    6.2346    3.6668 C.2       2 RES2    0.0000
     20 N6         5.3701    6.6738    2.8460 N.pl3     2 RES2    0.0000
     21 N7         5.4149    8.2980    0.9918 N.pl3     2 RES2    0.0000
     22 N8         3.5016    7.8233    2.3694 N.2       2 RES2    0.0000
     23 N9         1.9227    6.8173    3.8966 N.pl3     2 RES2    0.0000
     24 N10        4.5987    5.1630    4.6148 N.pl3     2 RES2    0.0000
     25 O7         6.3017    7.7011    0.4136 O.2       2 RES2    0.0000
     26 O8         5.0021    9.4086    0.7160 O.2       2 RES2    0.0000
     27 O9         1.1678    7.7490    3.7833 O.2       2 RES2    0.0000
     28 O10        1.6556    5.7617    4.4299 O.2       2 RES2    0.0000
     29 O11        4.1187    5.2693    5.7049 O.2       2 RES2    0.0000
     30 O12        5.2313    4.1977    4.2044 O.2       2 RES2    0.0000
@<TRIPOS>BOND
     1    1    5 1
     2    2    5 1
     3    3    4 2
     4    4    5 1
     5    6    2 1
     6    7    2 2
     7    8    3 1
     8    9    4 1
     9   10    6 2
    10   11    6 2
    11   12    8 2
    12   13    8 2
    13   14    9 2
    14   15    9 2
    15   16   20 1
    16   17   20 1
    17   18   19 2
    18   19   20 1
    19   21   17 1
    20   22   17 2
    21   23   18 1
    22   24   19 1
    23   25   21 2
    24   26   21 2
    25   27   23 2
    26   28   23 2
    27   29   24 2
    28   30   24 2
    29    3    7 1
    30   18   22 1
@<TRIPOS>SUBSTRUCTURE
     1 RES1 1
     2 RES2 16

@<TRIPOS>CRYSIN
   8.6183   17.7119   10.6873  90.0000  90.0000  90.0000  29 1

