# MOL2 file generated by ConQuest
# Please check atom types

@<TRIPOS>MOLECULE
VAJGES
    28    28     1
SMALL
NO_CHARGES
****
Generated from CSD

@<TRIPOS>ATOM
      1 O1         3.9389   -2.2009    0.0763 O.2       1 RES1    0.0000
      2 O2         3.5139   -1.9868   -2.0027 O.2       1 RES1    0.0000
      3 O3         2.7773    0.7328    1.1356 O.3       1 RES1    0.0000
      4 O4         0.0646    0.7830    0.2626 O.3       1 RES1    0.0000
      5 O5         1.0287   -0.1382    3.6695 O.3       1 RES1    0.0000
      6 O6         3.4503    3.3325    1.6301 O.3       1 RES1    0.0000
      7 O7         1.5547    5.0331    3.0078 O.3       1 RES1    0.0000
      8 N1         3.2948   -1.7409   -0.8480 N.pl3     1 RES1    0.0000
      9 C1         2.1231   -0.8490   -0.5619 C.3       1 RES1    0.0000
     10 C2         2.0018   -0.4539    0.8935 C.3       1 RES1    0.0000
     11 C3         0.6000   -0.0391    1.2838 C.3       1 RES1    0.0000
     12 C4         0.8706    0.7463    2.5661 C.3       1 RES1    0.0000
     13 C5         2.2182    1.4081    2.2888 C.3       1 RES1    0.0000
     14 C6         2.1457    2.8970    2.0013 C.3       1 RES1    0.0000
     15 C7         1.6844    3.6298    3.2410 C.3       1 RES1    0.0000
     16 H1         1.3240   -1.3213   -0.8070 H         1 RES1    0.0000
     17 H2         2.1962   -0.0489   -1.0857 H         1 RES1    0.0000
     18 H3         2.2697   -1.2234    1.3938 H         1 RES1    0.0000
     19 H4        -0.0420   -0.7340    1.4085 H         1 RES1    0.0000
     20 H5         0.1629    1.3580    2.7877 H         1 RES1    0.0000
     21 H6         2.7636    1.3213    3.0664 H         1 RES1    0.0000
     22 H7         1.5132    3.0707    1.3058 H         1 RES1    0.0000
     23 H8         2.3065    3.4745    3.9614 H         1 RES1    0.0000
     24 H9         0.8144    3.3032    3.5066 H         1 RES1    0.0000
     25 H10       -0.8564    0.7707    0.4695 H         1 RES1    0.0000
     26 H11        1.8284   -0.3915    3.9468 H         1 RES1    0.0000
     27 H12        3.3836    3.9149    0.8950 H         1 RES1    0.0000
     28 H13        0.7828    5.2729    3.3159 H         1 RES1    0.0000
@<TRIPOS>BOND
     1    1    8 2
     2    2    8 2
     3    3   10 1
     4    4   11 1
     5    5   12 1
     6    6   14 1
     7    7   15 1
     8    8    9 1
     9    9   10 1
    10   10   11 1
    11   11   12 1
    12   12   13 1
    13   13    3 1
    14   14   13 1
    15   15   14 1
    16   16    9 1
    17   17    9 1
    18   18   10 1
    19   19   11 1
    20   20   12 1
    21   21   13 1
    22   22   14 1
    23   23   15 1
    24   24   15 1
    25   25    4 1
    26   26    5 1
    27   27    6 1
    28   28    7 1
@<TRIPOS>SUBSTRUCTURE
     1 RES1 1

@<TRIPOS>CRYSIN
   5.2540   12.2340   14.6720  90.0000  90.0000  90.0000  19 1

