# MOL2 file generated by ConQuest
# Please check atom types

@<TRIPOS>MOLECULE
VAJXOW
    32    33     1
SMALL
NO_CHARGES
****
Generated from CSD

@<TRIPOS>ATOM
      1 C1         3.7310    2.3216    1.8565 C.ar      1 RES1    0.0000
      2 C2         4.0906    2.1698    0.5318 C.ar      1 RES1    0.0000
      3 H1         4.9418    2.4148    0.2479 H         1 RES1    0.0000
      4 C3         3.1880    1.6569   -0.3607 C.ar      1 RES1    0.0000
      5 H2         3.4223    1.5519   -1.2543 H         1 RES1    0.0000
      6 C4         1.9300    1.2973    0.0717 C.ar      1 RES1    0.0000
      7 H3         1.3137    0.9529   -0.5344 H         1 RES1    0.0000
      8 C5         1.5779    1.4449    1.4012 C.ar      1 RES1    0.0000
      9 H4         0.7245    1.1968    1.6758 H         1 RES1    0.0000
     10 C6         2.4692    1.9552    2.3359 C.ar      1 RES1    0.0000
     11 C7         2.0219    2.2011    3.7183 C.2       1 RES1    0.0000
     12 H5         2.1723    3.0542    4.0567 H         1 RES1    0.0000
     13 C8         1.4274    1.3370    4.5339 C.2       1 RES1    0.0000
     14 C9         1.2128   -0.1247    4.2577 C.3       1 RES1    0.0000
     15 H6         1.6075   -0.3513    3.4006 H         1 RES1    0.0000
     16 H7         1.6580   -0.6500    4.9414 H         1 RES1    0.0000
     17 C10       -1.0089   -0.9475    5.1784 C.2       1 RES1    0.0000
     18 H8        -0.7335   -1.1970    6.0309 H         1 RES1    0.0000
     19 C11        1.0270    1.7726    5.8976 C.2       1 RES1    0.0000
     20 C12        0.7813    3.6258    7.3589 C.3       1 RES1    0.0000
     21 H9        -0.1632    3.7846    7.4262 H         1 RES1    0.0000
     22 H10        1.2543    4.4527    7.4796 H         1 RES1    0.0000
     23 H11        1.0502    3.0021    8.0377 H         1 RES1    0.0000
     24 N1         4.7349    2.8855    2.7619 N.pl3     1 RES1    0.0000
     25 N2        -0.2167   -0.4614    4.2393 N.pl3     1 RES1    0.0000
     26 N3        -0.9705   -0.2262    3.1627 N.2       1 RES1    0.0000
     27 N4        -2.1762   -0.5716    3.4711 N.2       1 RES1    0.0000
     28 N5        -2.2316   -1.0264    4.7359 N.2       1 RES1    0.0000
     29 O1         5.6550    3.5231    2.2774 O.2       1 RES1    0.0000
     30 O2         4.6202    2.6996    3.9587 O.2       1 RES1    0.0000
     31 O3         1.0854    3.0840    6.0628 O.3       1 RES1    0.0000
     32 O4         0.6924    1.0027    6.7566 O.2       1 RES1    0.0000
@<TRIPOS>BOND
     1    1    2 ar
     2    2    3 1
     3    4    2 ar
     4    5    4 1
     5    6    4 ar
     6    7    6 1
     7    8    6 ar
     8    9    8 1
     9   10    1 ar
    10   11   10 1
    11   12   11 1
    12   13   11 2
    13   14   13 1
    14   15   14 1
    15   16   14 1
    16   17   18 1
    17   19   13 1
    18   20   21 1
    19   22   20 1
    20   23   20 1
    21   24    1 1
    22   25   14 1
    23   26   25 1
    24   27   26 2
    25   28   17 2
    26   29   24 2
    27   30   24 2
    28   31   19 1
    29   32   19 2
    30    8   10 ar
    31   17   25 1
    32   20   31 1
    33   27   28 1
@<TRIPOS>SUBSTRUCTURE
     1 RES1 1

@<TRIPOS>CRYSIN
   6.6504    6.7965   14.9061  94.9400  90.5560 103.8640   2 1

