# MOL2 file generated by ConQuest
# Please check atom types

@<TRIPOS>MOLECULE
VAKBIT
    46    50     1
SMALL
NO_CHARGES
****
Generated from CSD

@<TRIPOS>ATOM
      1 O1         7.7096   14.8821   -1.9511 O.3       1 RES1    0.0000
      2 O2         8.6294   13.2280   -0.7880 O.2       1 RES1    0.0000
      3 O3         1.0085    7.0268   -3.9773 O.2       1 RES1    0.0000
      4 O4         2.4966    5.8208   -2.9792 O.2       1 RES1    0.0000
      5 N1         2.0082    6.9065   -3.2779 N.pl3     1 RES1    0.0000
      6 C1         6.1723   13.3378   -1.0251 C.3       1 RES1    0.0000
      7 C2         5.8424   12.8100    0.3572 C.3       1 RES1    0.0000
      8 C3         6.1468   11.3379    0.5913 C.3       1 RES1    0.0000
      9 C4         6.9531   10.6206   -0.4187 C.2       1 RES1    0.0000
     10 C5         6.7656   10.9966   -1.6810 C.2       1 RES1    0.0000
     11 C6         5.7811   12.1048   -1.9406 C.3       1 RES1    0.0000
     12 C7         4.4155   11.7138   -1.2622 C.3       1 RES1    0.0000
     13 C8         4.7314   11.7995    0.2236 C.3       1 RES1    0.0000
     14 C9         5.6527   12.4055   -3.4295 C.3       1 RES1    0.0000
     15 C10        3.6070   11.6612    1.2097 C.3       1 RES1    0.0000
     16 C11        7.8932    9.5500    0.0510 C.3       1 RES1    0.0000
     17 C12        5.4293   14.6400   -1.3433 C.3       1 RES1    0.0000
     18 C13        6.3849   15.3979   -2.2558 C.3       1 RES1    0.0000
     19 C14        7.6215   13.7438   -1.2022 C.2       1 RES1    0.0000
     20 C15        3.8001   10.4297   -1.7650 C.ar      1 RES1    0.0000
     21 C16        4.1577    9.1741   -1.2712 C.ar      1 RES1    0.0000
     22 C17        3.5981    8.0177   -1.7740 C.ar      1 RES1    0.0000
     23 C18        2.6350    8.1275   -2.7601 C.ar      1 RES1    0.0000
     24 C19        2.2369    9.3455   -3.2629 C.ar      1 RES1    0.0000
     25 C20        2.8217   10.4958   -2.7586 C.ar      1 RES1    0.0000
     26 H1         5.8408   13.4085    1.0956 H         1 RES1    0.0000
     27 H2         6.2802   11.0778    1.4949 H         1 RES1    0.0000
     28 H3         7.2376   10.5815   -2.3924 H         1 RES1    0.0000
     29 H4         3.8001   12.4115   -1.4558 H         1 RES1    0.0000
     30 H5         6.5008   12.6566   -3.7762 H         1 RES1    0.0000
     31 H6         5.0353   13.1153   -3.5585 H         1 RES1    0.0000
     32 H7         5.3415   11.6311   -3.8827 H         1 RES1    0.0000
     33 H8         2.9751   12.3574    1.0686 H         1 RES1    0.0000
     34 H9         3.9510   11.7213    2.0937 H         1 RES1    0.0000
     35 H10        3.1824   10.8206    1.0911 H         1 RES1    0.0000
     36 H11        8.2576    9.0974   -0.7009 H         1 RES1    0.0000
     37 H12        7.4224    8.9320    0.5958 H         1 RES1    0.0000
     38 H13        8.5966    9.9455    0.5538 H         1 RES1    0.0000
     39 H14        5.2574   15.1332   -0.5493 H         1 RES1    0.0000
     40 H15        4.6091   14.4596   -1.7875 H         1 RES1    0.0000
     41 H16        6.1688   15.2385   -3.1668 H         1 RES1    0.0000
     42 H17        6.3430   16.3302   -2.0787 H         1 RES1    0.0000
     43 H18        4.8000    9.1154   -0.5733 H         1 RES1    0.0000
     44 H19        3.8682    7.1666   -1.4498 H         1 RES1    0.0000
     45 H20        1.5746    9.3966   -3.9428 H         1 RES1    0.0000
     46 H21        2.5525   11.3424   -3.0948 H         1 RES1    0.0000
@<TRIPOS>BOND
     1    1   18 1
     2    2   19 2
     3    3    5 2
     4    4    5 2
     5    5   23 1
     6    6    7 1
     7    7    8 1
     8    8    9 1
     9    9   10 2
    10   10   11 1
    11   11    6 1
    12   12   11 1
    13   13    7 1
    14   14   11 1
    15   15   13 1
    16   16    9 1
    17   17    6 1
    18   18   17 1
    19   19    1 1
    20   20   12 1
    21   21   20 ar
    22   22   21 ar
    23   23   22 ar
    24   24   23 ar
    25   25   20 ar
    26   26    7 1
    27   27    8 1
    28   28   10 1
    29   29   12 1
    30   30   14 1
    31   31   14 1
    32   32   14 1
    33   33   15 1
    34   34   15 1
    35   35   15 1
    36   36   16 1
    37   37   16 1
    38   38   16 1
    39   39   17 1
    40   40   17 1
    41   41   18 1
    42   42   18 1
    43   43   21 1
    44   44   22 1
    45   45   24 1
    46   46   25 1
    47    6   19 1
    48    8   13 1
    49   12   13 1
    50   24   25 ar
@<TRIPOS>SUBSTRUCTURE
     1 RES1 1

@<TRIPOS>CRYSIN
   7.6525   15.0370   15.0090  90.0000  90.4180  90.0000 231 1

