# MOL2 file generated by ConQuest
# Please check atom types

@<TRIPOS>MOLECULE
VAKJOG
    18    19     1
SMALL
NO_CHARGES
****
Generated from CSD

@<TRIPOS>ATOM
      1 C1         0.9221    5.6314    8.0377 C.ar      1 RES1    0.0000
      2 C2         0.6454    4.8572    6.9094 C.ar      1 RES1    0.0000
      3 C3         1.1451    3.6114    6.8028 C.ar      1 RES1    0.0000
      4 C4         1.9310    3.0792    7.8143 C.ar      1 RES1    0.0000
      5 C5         2.2274    3.8039    8.9279 C.ar      1 RES1    0.0000
      6 C6         1.7472    5.0963    9.0470 C.ar      1 RES1    0.0000
      7 N1         2.0725    5.8890   10.1537 N.3       1 RES1    0.0000
      8 N2         0.3982    6.9149    8.1829 N.3       1 RES1    0.0000
      9 C7         1.5514    7.1059   10.2411 C.2       1 RES1    0.0000
     10 C8         0.7133    7.6100    9.2794 C.2       1 RES1    0.0000
     11 O1        -0.3995    7.3916    7.2904 O.2       1 RES1    0.0000
     12 O2         2.8802    5.4316   11.0553 O.2       1 RES1    0.0000
     13 H1         0.1908    5.1740    6.3957 H         1 RES1    0.0000
     14 H2         1.0399    3.0496    5.9194 H         1 RES1    0.0000
     15 H3         2.2348    2.3316    7.7452 H         1 RES1    0.0000
     16 H4         2.7410    3.4641    9.5936 H         1 RES1    0.0000
     17 H5         1.8532    7.6315   10.9430 H         1 RES1    0.0000
     18 H6         0.3655    8.4161    9.3781 H         1 RES1    0.0000
@<TRIPOS>BOND
     1    1    2 ar
     2    2    3 ar
     3    3    4 ar
     4    4    5 ar
     5    5    6 ar
     6    6    1 ar
     7    7    6 1
     8    8    1 1
     9    9    7 1
    10   10    8 1
    11   11    8 1
    12   12    7 1
    13   13    2 1
    14   14    3 1
    15   15    4 1
    16   16    5 1
    17   17    9 1
    18   18   10 1
    19    9   10 2
@<TRIPOS>SUBSTRUCTURE
     1 RES1 1

@<TRIPOS>CRYSIN
   4.1120    7.4020   11.3780  90.0000  94.6900  90.0000   4 1

