# MOL2 file generated by ConQuest
# Please check atom types

@<TRIPOS>MOLECULE
VAKNEB
    42    43     1
SMALL
NO_CHARGES
****
Generated from CSD

@<TRIPOS>ATOM
      1 O1         3.7522    1.0471   12.4120 O.3       1 RES1    0.0000
      2 O2         1.5276    0.3930   12.2772 O.3       1 RES1    0.0000
      3 N1         4.2975    1.3362   11.0759 N.3       1 RES1    0.0000
      4 H1         4.7756    2.1599   11.2105 H         1 RES1    0.0000
      5 C1         3.0747    1.6399   10.2970 C.3       1 RES1    0.0000
      6 C2         2.2691    2.4536   11.3056 C.3       1 RES1    0.0000
      7 H2         2.6947    3.3334   11.4918 H         1 RES1    0.0000
      8 H3         1.3004    2.5810   10.9935 H         1 RES1    0.0000
      9 C3         2.4024    1.5201   12.4861 C.3       1 RES1    0.0000
     10 C4         1.5914   -0.1799   11.0247 C.2       1 RES1    0.0000
     11 C5         2.3371    0.3431   10.0599 C.2       1 RES1    0.0000
     12 H4         2.4278   -0.1543    9.2006 H         1 RES1    0.0000
     13 C6         3.4530    2.3646    9.0181 C.3       1 RES1    0.0000
     14 H5         3.9847    3.1866    9.2141 H         1 RES1    0.0000
     15 H6         4.0947    1.7061    8.3970 H         1 RES1    0.0000
     16 H7         2.6335    2.5969    8.3970 H         1 RES1    0.0000
     17 C7         2.1270    2.0165   13.9114 C.3       1 RES1    0.0000
     18 C8         3.0593    3.1933   14.2340 C.3       1 RES1    0.0000
     19 H8         2.8184    4.0095   13.6064 H         1 RES1    0.0000
     20 H9         2.8995    3.5565   15.2466 H         1 RES1    0.0000
     21 H10        4.1517    2.7773   14.1047 H         1 RES1    0.0000
     22 C9         2.3930    0.8816   14.9117 C.3       1 RES1    0.0000
     23 H11        1.7673    0.0503   14.7033 H         1 RES1    0.0000
     24 H12        2.1138    1.2473   15.9230 H         1 RES1    0.0000
     25 H13        3.4494    0.4806   14.7303 H         1 RES1    0.0000
     26 C10        0.6669    2.4728   14.0164 C.3       1 RES1    0.0000
     27 H14        0.5293    2.7202   14.9667 H         1 RES1    0.0000
     28 H15        0.5070    3.3619   13.3774 H         1 RES1    0.0000
     29 H16        0.1986    1.5996   13.9252 H         1 RES1    0.0000
     30 C11        0.6632   -1.3779   10.9507 C.3       1 RES1    0.0000
     31 C12        0.9342   -2.3134   12.1326 C.3       1 RES1    0.0000
     32 H17        1.9209   -2.7152   12.0365 H         1 RES1    0.0000
     33 H18        0.7129   -1.7330   13.0153 H         1 RES1    0.0000
     34 H19        0.3117   -3.0935   11.9438 H         1 RES1    0.0000
     35 C13       -0.7770   -0.8564   11.0312 C.3       1 RES1    0.0000
     36 H20       -0.9284   -0.2172   11.8749 H         1 RES1    0.0000
     37 H21       -0.9501   -0.3213   10.1075 H         1 RES1    0.0000
     38 H22       -1.3974   -1.6390   10.9605 H         1 RES1    0.0000
     39 C14        0.8665   -2.1498    9.6523 C.3       1 RES1    0.0000
     40 H23        0.2757   -2.9324    9.6212 H         1 RES1    0.0000
     41 H24        0.6489   -1.5837    8.8759 H         1 RES1    0.0000
     42 H25        1.8892   -2.5030    9.5688 H         1 RES1    0.0000
@<TRIPOS>BOND
     1    1    3 1
     2    2    9 1
     3    3    4 1
     4    5    3 1
     5    6    5 1
     6    7    6 1
     7    8    6 1
     8    9    1 1
     9   10    2 1
    10   11    5 1
    11   12   11 1
    12   13    5 1
    13   14   13 1
    14   15   13 1
    15   16   13 1
    16   17    9 1
    17   18   17 1
    18   19   18 1
    19   20   18 1
    20   21   18 1
    21   22   17 1
    22   23   22 1
    23   24   22 1
    24   25   22 1
    25   26   17 1
    26   27   26 1
    27   28   26 1
    28   29   26 1
    29   30   10 1
    30   31   30 1
    31   32   31 1
    32   33   31 1
    33   34   31 1
    34   35   30 1
    35   36   35 1
    36   37   35 1
    37   38   35 1
    38   39   30 1
    39   40   39 1
    40   41   39 1
    41   42   39 1
    42    6    9 1
    43   10   11 2
@<TRIPOS>SUBSTRUCTURE
     1 RES1 1

@<TRIPOS>CRYSIN
  11.7550    8.3880   16.0820  90.0000 111.4780  90.0000 231 1

