# MOL2 file generated by ConQuest
# Please check atom types

@<TRIPOS>MOLECULE
VALHOF
    38    41     1
SMALL
NO_CHARGES
****
Generated from CSD

@<TRIPOS>ATOM
      1 O1        -0.2049    4.4836    1.9676 O.2       1 RES1    0.0000
      2 O2        -2.3189    3.2656    2.8742 O.3       1 RES1    0.0000
      3 O3         1.3413    1.6507    3.2890 O.3       1 RES1    0.0000
      4 N1        -1.0227    2.7843    3.2878 N.am      1 RES1    0.0000
      5 N2         1.2624    3.0460    2.9111 N.am      1 RES1    0.0000
      6 C1        -0.9683    2.6618    4.7727 C.3       1 RES1    0.0000
      7 C2        -2.0648    1.7077    5.2036 C.3       1 RES1    0.0000
      8 C3        -3.4092    2.3114    4.8084 C.3       1 RES1    0.0000
      9 C4        -3.1397    3.5716    3.9848 C.3       1 RES1    0.0000
     10 C5        -2.4992    4.5849    4.8753 C.3       1 RES1    0.0000
     11 C6        -1.1846    4.0297    5.4017 C.3       1 RES1    0.0000
     12 C7         2.0125    0.9014    2.2072 C.3       1 RES1    0.0000
     13 C8         3.4922    1.2285    2.3524 C.3       1 RES1    0.0000
     14 C9         3.6018    2.7716    2.4088 C.3       1 RES1    0.0000
     15 C10        2.3086    3.3838    1.9123 C.3       1 RES1    0.0000
     16 C11        1.9152    2.7505    0.5760 C.3       1 RES1    0.0000
     17 C12        1.4438    1.3214    0.8847 C.3       1 RES1    0.0000
     18 C13       -0.0236    3.5125    2.6669 C.2       1 RES1    0.0000
     19 H1        -0.0072    2.2861    5.0918 H         1 RES1    0.0000
     20 H2        -1.9244    0.7473    4.7267 H         1 RES1    0.0000
     21 H3        -2.0402    1.5832    6.2749 H         1 RES1    0.0000
     22 H4        -3.9953    2.5479    5.6840 H         1 RES1    0.0000
     23 H5        -3.9471    1.6043    4.1967 H         1 RES1    0.0000
     24 H6        -4.0681    3.9812    3.6150 H         1 RES1    0.0000
     25 H7        -2.3127    5.4905    4.3165 H         1 RES1    0.0000
     26 H8        -3.1530    4.8044    5.7059 H         1 RES1    0.0000
     27 H9        -1.2255    3.9368    6.4754 H         1 RES1    0.0000
     28 H10       -0.3730    4.6862    5.1276 H         1 RES1    0.0000
     29 H11        1.8650   -0.1647    2.2775 H         1 RES1    0.0000
     30 H12        3.8908    0.7874    3.2532 H         1 RES1    0.0000
     31 H13        4.0332    0.8507    1.4988 H         1 RES1    0.0000
     32 H14        4.4226    3.0988    1.7891 H         1 RES1    0.0000
     33 H15        3.7781    3.0735    3.4295 H         1 RES1    0.0000
     34 H16        2.4244    4.4498    1.7891 H         1 RES1    0.0000
     35 H17        1.1179    3.3162    0.1187 H         1 RES1    0.0000
     36 H18        2.7657    2.7231   -0.0876 H         1 RES1    0.0000
     37 H19        1.7871    0.6480    0.1140 H         1 RES1    0.0000
     38 H20        0.3648    1.2982    0.9285 H         1 RES1    0.0000
@<TRIPOS>BOND
     1    1   18 2
     2    2    4 1
     3    3    5 1
     4    4    6 1
     5    5   15 1
     6    6    7 1
     7    7    8 1
     8    8    9 1
     9    9    2 1
    10   10    9 1
    11   11    6 1
    12   12    3 1
    13   13   12 1
    14   14   13 1
    15   15   14 1
    16   16   15 1
    17   17   12 1
    18   18    4 1
    19   19    6 1
    20   20    7 1
    21   21    7 1
    22   22    8 1
    23   23    8 1
    24   24    9 1
    25   25   10 1
    26   26   10 1
    27   27   11 1
    28   28   11 1
    29   29   12 1
    30   30   13 1
    31   31   13 1
    32   32   14 1
    33   33   14 1
    34   34   15 1
    35   35   16 1
    36   36   16 1
    37   37   17 1
    38   38   17 1
    39    5   18 1
    40   10   11 1
    41   16   17 1
@<TRIPOS>SUBSTRUCTURE
     1 RES1 1

@<TRIPOS>CRYSIN
  10.2470   21.1090   11.5200  90.0000  90.0000  90.0000  41 1

