# MOL2 file generated by ConQuest
# Please check atom types

@<TRIPOS>MOLECULE
VALLOL
    80    80     3
SMALL
NO_CHARGES
****
Generated from CSD

@<TRIPOS>ATOM
      1 C1        -2.1694    0.2270   -2.8703 C.3       1 RES1    0.0000
      2 H1        -2.7427    0.4712   -3.5994 H         1 RES1    0.0000
      3 H2        -2.6933    0.1221   -2.0733 H         1 RES1    0.0000
      4 H3        -1.7259   -0.5990   -3.0742 H         1 RES1    0.0000
      5 C2        -1.1519    1.2991   -2.6562 C.2       1 RES1    0.0000
      6 C3        -0.4111    1.3811   -1.3884 C.ar      1 RES1    0.0000
      7 C4         0.4413    2.4608   -1.1318 C.ar      1 RES1    0.0000
      8 H4         0.5191    3.1418   -1.7623 H         1 RES1    0.0000
      9 C5         1.1628    2.5371    0.0306 C.ar      1 RES1    0.0000
     10 H5         1.7261    3.2639    0.1699 H         1 RES1    0.0000
     11 C6         1.0695    1.5490    1.0010 C.ar      1 RES1    0.0000
     12 C7         0.2238    0.4903    0.7511 C.ar      1 RES1    0.0000
     13 H6         0.1444   -0.1774    1.3918 H         1 RES1    0.0000
     14 C8        -0.5193    0.3834   -0.4266 C.ar      1 RES1    0.0000
     15 H7        -1.0787   -0.3453   -0.5659 H         1 RES1    0.0000
     16 C9         1.7779    1.5680    2.2738 C.2       1 RES1    0.0000
     17 H8         1.5644    0.8699    2.8499 H         1 RES1    0.0000
     18 C10        2.6784    2.4207    2.7412 C.2       1 RES1    0.0000
     19 C11        3.3768    2.4036    4.0378 C.ar      1 RES1    0.0000
     20 C12        4.2588    3.4776    4.0939 C.ar      1 RES1    0.0000
     21 C13        4.1881    4.2158    2.7666 C.3       1 RES1    0.0000
     22 H9         5.0392    4.1414    2.2874 H         1 RES1    0.0000
     23 C14        5.0133    3.7465    5.1985 C.ar      1 RES1    0.0000
     24 H10        5.5703    4.4905    5.2359 H         1 RES1    0.0000
     25 C15        4.9132    2.8614    6.2657 C.ar      1 RES1    0.0000
     26 H11        5.4413    2.9968    7.0203 H         1 RES1    0.0000
     27 C16        4.0638    1.8046    6.2352 C.ar      1 RES1    0.0000
     28 H12        4.0086    1.2380    6.9710 H         1 RES1    0.0000
     29 C17        3.2752    1.5547    5.1169 C.ar      1 RES1    0.0000
     30 H13        2.6919    0.8317    5.0999 H         1 RES1    0.0000
     31 C18        3.7977    5.6618    2.9230 C.3       1 RES1    0.0000
     32 H14        4.4132    6.0986    3.5314 H         1 RES1    0.0000
     33 H15        2.9075    5.7152    3.3037 H         1 RES1    0.0000
     34 C19       -4.5977    8.7578    5.7389 C.3       2 RES2    0.0000
     35 H16       -4.1289    9.5857    5.6132 H         2 RES2    0.0000
     36 H17       -5.1538    8.8207    6.5190 H         2 RES2    0.0000
     37 H18       -5.1445    8.5804    4.9691 H         2 RES2    0.0000
     38 C20       -3.6155    7.6533    5.9157 C.2       2 RES2    0.0000
     39 C21       -2.8279    7.5846    7.1851 C.ar      2 RES2    0.0000
     40 C22       -2.7935    8.6300    8.0807 C.ar      2 RES2    0.0000
     41 H19       -3.3057    9.3892    7.9159 H         2 RES2    0.0000
     42 C23       -2.0246    8.5728    9.1955 C.ar      2 RES2    0.0000
     43 H20       -2.0066    9.3110    9.7614 H         2 RES2    0.0000
     44 C24       -1.2623    7.4625    9.5320 C.ar      2 RES2    0.0000
     45 C25       -1.2878    6.3943    8.6007 C.ar      2 RES2    0.0000
     46 H21       -0.7827    5.6312    8.7622 H         2 RES2    0.0000
     47 C26       -2.0525    6.4801    7.4604 C.ar      2 RES2    0.0000
     48 H22       -2.0460    5.7724    6.8588 H         2 RES2    0.0000
     49 C27       -0.4916    7.4587   10.7539 C.2       2 RES2    0.0000
     50 H23       -0.4821    8.2752   11.1991 H         2 RES2    0.0000
     51 C28        0.2075    6.5011   11.3623 C.2       2 RES2    0.0000
     52 C29        0.9571    6.5564   12.6131 C.ar      2 RES2    0.0000
     53 C30        1.5158    5.3584   12.8187 C.ar      2 RES2    0.0000
     54 C31        1.0531    4.4046   11.7633 C.3       2 RES2    0.0000
     55 H24        0.4550    3.7351   12.1559 H         2 RES2    0.0000
     56 C32        2.3287    5.1047   13.9369 C.ar      2 RES2    0.0000
     57 H25        2.7084    4.2692   14.0762 H         2 RES2    0.0000
     58 C33        2.5373    6.1215   14.8002 C.ar      2 RES2    0.0000
     59 H26        3.0791    5.9860   15.5428 H         2 RES2    0.0000
     60 C34        1.9583    7.3595   14.5946 C.ar      2 RES2    0.0000
     61 H27        2.1038    8.0443   15.2081 H         2 RES2    0.0000
     62 C35        1.1719    7.5827   13.4967 C.ar      2 RES2    0.0000
     63 H28        0.7898    8.4182   13.3523 H         2 RES2    0.0000
     64 C36        2.1292    3.7503   11.0513 C.3       2 RES2    0.0000
     65 H29        2.6773    3.2620   11.6852 H         2 RES2    0.0000
     66 H30        2.6879    4.4237   10.6332 H         2 RES2    0.0000
     67 N1         3.8189    6.3771    1.5788 N.pl3     1 RES1    0.0000
     68 N2         1.6260    2.7870    9.9841 N.pl3     2 RES2    0.0000
     69 O1        -0.9139    2.0926   -3.5518 O.2       1 RES1    0.0000
     70 O2         3.1312    3.5195    2.0418 O.3       1 RES1    0.0000
     71 O3         4.7134    6.1615    0.8191 O.2       1 RES1    0.0000
     72 O4         2.7485    6.8960    1.2916 O.2       1 RES1    0.0000
     73 O5         2.3312    2.6401    9.0222 O.2       2 RES2    0.0000
     74 O6         0.5583    2.2395   10.0537 O.2       2 RES2    0.0000
     75 O7        -3.4595    6.8063    5.0473 O.2       2 RES2    0.0000
     76 O8         0.3213    5.2438   10.8538 O.3       2 RES2    0.0000
     77 O9         4.2385    5.5549    0.7324 Du        3 SUP3    0.0000
     78 O10        3.7628    7.4530    1.4411 Du        3 SUP3    0.0000
     79 O11        2.0209    3.1552    8.9457 Du        3 SUP3    0.0000
     80 O12        1.2716    1.7855   10.4514 Du        3 SUP3    0.0000
@<TRIPOS>BOND
     1    1    2 1
     2    3    1 1
     3    4    1 1
     4    5    1 1
     5    6    5 1
     6    7    6 ar
     7    8    7 1
     8    9    7 ar
     9   10    9 1
    10   11    9 ar
    11   12   11 ar
    12   13   12 1
    13   14    6 ar
    14   15   14 1
    15   16   11 1
    16   17   16 1
    17   18   16 2
    18   19   18 1
    19   20   19 ar
    20   21   20 1
    21   22   21 1
    22   23   20 ar
    23   24   23 1
    24   25   23 ar
    25   26   25 1
    26   27   25 ar
    27   28   27 1
    28   29   19 ar
    29   30   29 1
    30   31   21 1
    31   32   31 1
    32   33   31 1
    33   34   35 1
    34   36   34 1
    35   37   34 1
    36   38   34 1
    37   39   38 1
    38   40   39 ar
    39   41   40 1
    40   42   40 ar
    41   43   42 1
    42   44   42 ar
    43   45   44 ar
    44   46   45 1
    45   47   39 ar
    46   48   47 1
    47   49   44 1
    48   50   49 1
    49   51   49 2
    50   52   51 1
    51   53   52 ar
    52   54   53 1
    53   55   54 1
    54   56   53 ar
    55   57   56 1
    56   58   56 ar
    57   59   58 1
    58   60   58 ar
    59   61   60 1
    60   62   52 ar
    61   63   62 1
    62   64   54 1
    63   65   64 1
    64   66   64 1
    65   67   31 1
    66   68   64 1
    67   69    5 2
    68   70   18 1
    69   71   67 2
    70   72   67 2
    71   73   68 2
    72   74   68 2
    73   75   38 2
    74   76   51 1
    75   12   14 ar
    76   21   70 1
    77   27   29 ar
    78   45   47 ar
    79   54   76 1
    80   60   62 ar
@<TRIPOS>SUBSTRUCTURE
     1 RES1 1
     2 RES2 34
     3 SUP3 77

@<TRIPOS>CRYSIN
   4.8303   19.0760   16.9950  90.0000  90.5760  90.0000   4 1

