# MOL2 file generated by ConQuest
# Please check atom types

@<TRIPOS>MOLECULE
VALLIF
    33    35     1
SMALL
NO_CHARGES
****
Generated from CSD

@<TRIPOS>ATOM
      1 C1         2.2312    4.4665    6.0232 C.ar      1 RES1    0.0000
      2 C2         2.4767    3.9778    7.2872 C.ar      1 RES1    0.0000
      3 H1         3.2354    3.4624    7.4400 H         1 RES1    0.0000
      4 C3         1.6155    4.2406    8.3290 C.ar      1 RES1    0.0000
      5 H2         1.7953    3.9116    9.1786 H         1 RES1    0.0000
      6 C4         0.4787    4.9990    8.0994 C.ar      1 RES1    0.0000
      7 H3        -0.1186    5.1639    8.7932 H         1 RES1    0.0000
      8 C5         0.2355    5.5092    6.8440 C.ar      1 RES1    0.0000
      9 H4        -0.5300    6.0186    6.6996 H         1 RES1    0.0000
     10 C6         1.1067    5.2799    5.7900 C.ar      1 RES1    0.0000
     11 C7         1.0098    5.9215    4.4984 C.2       1 RES1    0.0000
     12 H5         0.1898    6.2548    4.2122 H         1 RES1    0.0000
     13 C8         2.0736    6.0418    3.7155 C.2       1 RES1    0.0000
     14 C9         3.1024    4.1942    4.8414 C.3       1 RES1    0.0000
     15 H6         3.9864    3.9262    5.1689 H         1 RES1    0.0000
     16 C10        2.5502    3.0604    3.9795 C.3       1 RES1    0.0000
     17 H7         2.5451    2.2358    4.4895 H         1 RES1    0.0000
     18 H8         1.6372    3.2614    3.7214 H         1 RES1    0.0000
     19 C11        2.2473    6.9179    2.5417 C.ar      1 RES1    0.0000
     20 C12        3.3523    6.7951    1.7082 C.ar      1 RES1    0.0000
     21 H9         3.9842    6.1328    1.8718 H         1 RES1    0.0000
     22 C13        3.5182    7.6532    0.6322 C.ar      1 RES1    0.0000
     23 H10        4.2614    7.5630    0.0804 H         1 RES1    0.0000
     24 C14        2.5975    8.6315    0.3752 C.ar      1 RES1    0.0000
     25 H11        2.7194    9.2070   -0.3439 H         1 RES1    0.0000
     26 C15        1.4936    8.7620    1.1807 C.ar      1 RES1    0.0000
     27 H12        0.8578    9.4157    0.9983 H         1 RES1    0.0000
     28 C16        1.3282    7.9220    2.2630 C.ar      1 RES1    0.0000
     29 H13        0.5884    8.0302    2.8174 H         1 RES1    0.0000
     30 N1         3.3846    2.8886    2.7661 N.pl3     1 RES1    0.0000
     31 O1         4.5186    2.5133    2.9141 O.2       1 RES1    0.0000
     32 O2         2.8808    3.1781    1.6965 O.2       1 RES1    0.0000
     33 O3         3.2638    5.3830    4.0256 O.3       1 RES1    0.0000
@<TRIPOS>BOND
     1    1    2 ar
     2    2    3 1
     3    4    2 ar
     4    5    4 1
     5    6    4 ar
     6    7    6 1
     7    8    6 ar
     8    9    8 1
     9   10    1 ar
    10   11   10 1
    11   12   11 1
    12   13   11 2
    13   14    1 1
    14   15   14 1
    15   16   14 1
    16   17   16 1
    17   18   16 1
    18   19   13 1
    19   20   19 ar
    20   21   20 1
    21   22   20 ar
    22   23   22 1
    23   24   22 ar
    24   25   24 1
    25   26   24 ar
    26   27   26 1
    27   28   19 ar
    28   29   28 1
    29   30   16 1
    30   31   30 2
    31   32   30 2
    32   33   13 1
    33    8   10 ar
    34   14   33 1
    35   26   28 ar
@<TRIPOS>SUBSTRUCTURE
     1 RES1 1

@<TRIPOS>CRYSIN
   5.5668    8.5894   27.7300  90.0000  90.0000  90.0000  19 1

