# MOL2 file generated by ConQuest
# Please check atom types

@<TRIPOS>MOLECULE
VALPII01
    20    19     1
SMALL
NO_CHARGES
****
Generated from CSD

@<TRIPOS>ATOM
      1 O1         2.3273    0.2883    8.1791 O.2       1 RES1    0.0000
      2 O2        -1.5815   -0.6556    8.1611 O.2       1 RES1    0.0000
      3 O3        -3.5148    0.0898    8.8185 O.2       1 RES1    0.0000
      4 O4         3.9454   -1.0781    5.3492 O.2       1 RES1    0.0000
      5 O5         2.0465   -0.3527    4.5916 O.2       1 RES1    0.0000
      6 N1         1.6647    2.3548    8.7624 N.am      1 RES1    0.0000
      7 N2         3.7722    2.0202    7.9647 N.am      1 RES1    0.0000
      8 N3        -1.9288    1.5007    8.2493 N.3       1 RES1    0.0000
      9 N4        -2.3506    0.2539    8.4176 N.pl3     1 RES1    0.0000
     10 N5         3.5758    1.0863    5.1929 N.3       1 RES1    0.0000
     11 N6         3.1752   -0.1705    5.0506 N.pl3     1 RES1    0.0000
     12 C1         2.5659    1.4952    8.2874 C.2       1 RES1    0.0000
     13 C2         0.3207    1.9704    9.1071 C.3       1 RES1    0.0000
     14 C3        -0.5749    1.8235    7.8986 C.3       1 RES1    0.0000
     15 C4         4.8099    1.2631    7.3233 C.3       1 RES1    0.0000
     16 C5         4.8255    1.4064    5.8182 C.3       1 RES1    0.0000
     17 H1         1.8867    3.1555    8.7984 H         1 RES1    0.0000
     18 H2         3.8066    2.9107    8.0368 H         1 RES1    0.0000
     19 H3        -2.4860    2.0855    8.4176 H         1 RES1    0.0000
     20 H4         2.9854    1.6412    5.0305 H         1 RES1    0.0000
@<TRIPOS>BOND
     1    1   12 2
     2    2    9 2
     3    3    9 2
     4    4   11 2
     5    5   11 2
     6    6   12 1
     7    7   12 1
     8    8    9 1
     9   10   11 1
    10   13    6 1
    11   14    8 1
    12   15    7 1
    13   16   10 1
    14   17    6 1
    15   18    7 1
    16   19    8 1
    17   20   10 1
    18   13   14 1
    19   15   16 1
@<TRIPOS>SUBSTRUCTURE
     1 RES1 1

@<TRIPOS>CRYSIN
  11.0981    9.0675   20.0420  90.0000  90.0000  90.0000  61 1

