# MOL2 file generated by ConQuest
# Please check atom types

@<TRIPOS>MOLECULE
VALSUY
    57    56     1
SMALL
NO_CHARGES
****
Generated from CSD

@<TRIPOS>ATOM
      1 O1         9.4109    0.3841    5.0380 O.3       1 RES1    0.0000
      2 O2         7.9408    1.0881    6.5555 O.3       1 RES1    0.0000
      3 C1         8.3178    0.0000    5.8030 C.3       1 RES1    0.0000
      4 O3        11.6467    0.9766    3.0570 O.2       1 RES1    0.0000
      5 C2        10.4225    2.4458    4.3318 C.3       1 RES1    0.0000
      6 O4         5.7546    4.4667    7.6869 O.2       1 RES1    0.0000
      7 N1         5.4212    2.2593    8.9682 N.pl3     1 RES1    0.0000
      8 O5         4.3803    1.9193    8.4462 O.2       1 RES1    0.0000
      9 O6        11.2012    3.8140    2.5936 O.2       1 RES1    0.0000
     10 N2         7.8575    2.4884    8.8361 N.pl3     1 RES1    0.0000
     11 O7         5.6312    2.5593   10.1160 O.2       1 RES1    0.0000
     12 N3        11.7111    1.7082    4.0133 N.pl3     1 RES1    0.0000
     13 C3         6.5987    2.3141    8.0074 C.3       1 RES1    0.0000
     14 O8        12.6772    1.9230    4.7230 O.2       1 RES1    0.0000
     15 C4         9.2036    1.5532    4.2494 C.3       1 RES1    0.0000
     16 H1         8.4076    2.0413    4.5794 H         1 RES1    0.0000
     17 H2         9.0398    1.2972    3.3078 H         1 RES1    0.0000
     18 O9         8.2128    1.4930    9.4216 O.2       1 RES1    0.0000
     19 N4         6.4109    3.5936    7.1847 N.pl3     1 RES1    0.0000
     20 O10        8.3734    3.5764    8.8555 O.2       1 RES1    0.0000
     21 O11        9.1714    4.0956    3.3152 O.2       1 RES1    0.0000
     22 O12       10.4714    2.4687    6.6431 O.2       1 RES1    0.0000
     23 N5        10.6662    3.1336    5.6572 N.pl3     1 RES1    0.0000
     24 N6        10.2658    3.5623    3.3004 N.pl3     1 RES1    0.0000
     25 O13        6.9545    3.6172    6.1015 O.2       1 RES1    0.0000
     26 O14       11.0974    4.2682    5.6088 O.2       1 RES1    0.0000
     27 C5         6.6644    1.0441    7.1881 C.3       1 RES1    0.0000
     28 H3         6.5877    0.2456    7.7697 H         1 RES1    0.0000
     29 H4         5.9389    1.0216    6.5158 H         1 RES1    0.0000
     30 O1A        7.2247   -0.3841    5.0380 O.3       1 RES1    0.0000
     31 O2A        8.6948   -1.0881    6.5555 O.3       1 RES1    0.0000
     32 O3A        4.9889   -0.9766    3.0570 O.2       1 RES1    0.0000
     33 C2A        6.2131   -2.4458    4.3318 C.3       1 RES1    0.0000
     34 O4A       10.8810   -4.4667    7.6869 O.2       1 RES1    0.0000
     35 N1A       11.2144   -2.2593    8.9682 N.pl3     1 RES1    0.0000
     36 O5A       12.2553   -1.9193    8.4462 O.2       1 RES1    0.0000
     37 O6A        5.4344   -3.8140    2.5936 O.2       1 RES1    0.0000
     38 N2A        8.7781   -2.4884    8.8361 N.pl3     1 RES1    0.0000
     39 O7A       11.0044   -2.5593   10.1160 O.2       1 RES1    0.0000
     40 N3A        4.9245   -1.7082    4.0133 N.pl3     1 RES1    0.0000
     41 C3A       10.0369   -2.3141    8.0074 C.3       1 RES1    0.0000
     42 O8A        3.9584   -1.9230    4.7230 O.2       1 RES1    0.0000
     43 C4A        7.4320   -1.5532    4.2494 C.3       1 RES1    0.0000
     44 H1A        8.2280   -2.0413    4.5794 H         1 RES1    0.0000
     45 H2A        7.5958   -1.2972    3.3078 H         1 RES1    0.0000
     46 O9A        8.4228   -1.4930    9.4216 O.2       1 RES1    0.0000
     47 N4A       10.2247   -3.5936    7.1847 N.pl3     1 RES1    0.0000
     48 O10A       8.2622   -3.5764    8.8555 O.2       1 RES1    0.0000
     49 O11A       7.4642   -4.0956    3.3152 O.2       1 RES1    0.0000
     50 O12A       6.1642   -2.4687    6.6431 O.2       1 RES1    0.0000
     51 N5A        5.9694   -3.1336    5.6572 N.pl3     1 RES1    0.0000
     52 N6A        6.3698   -3.5623    3.3004 N.pl3     1 RES1    0.0000
     53 O13A       9.6811   -3.6172    6.1015 O.2       1 RES1    0.0000
     54 O14A       5.5382   -4.2682    5.6088 O.2       1 RES1    0.0000
     55 C5A        9.9712   -1.0441    7.1881 C.3       1 RES1    0.0000
     56 H3A       10.0479   -0.2456    7.7697 H         1 RES1    0.0000
     57 H4A       10.6967   -1.0216    6.5158 H         1 RES1    0.0000
@<TRIPOS>BOND
     1    1    3 1
     2    2    3 1
     3    3   30 1
     4    4   12 2
     5    5   12 1
     6    6   19 2
     7    7    8 2
     8    9   24 2
     9   10   13 1
    10   11    7 2
    11   12   14 2
    12   13    7 1
    13   15    1 1
    14   16   15 1
    15   17   15 1
    16   18   10 2
    17   19   13 1
    18   20   10 2
    19   21   24 2
    20   22   23 2
    21   23    5 1
    22   24    5 1
    23   25   19 2
    24   26   23 2
    25   27    2 1
    26   28   27 1
    27   29   27 1
    28   30   43 1
    29   31    3 1
    30   32   40 2
    31   33   40 1
    32   34   47 2
    33   35   36 2
    34   37   52 2
    35   38   41 1
    36   39   35 2
    37   40   42 2
    38   41   35 1
    39   43   33 1
    40   44   43 1
    41   45   43 1
    42   46   38 2
    43   47   41 1
    44   48   38 2
    45   49   52 2
    46   50   51 2
    47   51   33 1
    48   52   33 1
    49   53   47 2
    50   54   51 2
    51   55   31 1
    52   56   55 1
    53   57   55 1
    54    5   15 1
    55   13   27 1
    56   41   55 1
@<TRIPOS>SUBSTRUCTURE
     1 RES1 1

@<TRIPOS>CRYSIN
  16.6356   18.7450   16.0963  90.0000  90.0000  90.0000  43 1

