# MOL2 file generated by ConQuest
# Please check atom types

@<TRIPOS>MOLECULE
VALSEJ
    37    38     1
SMALL
NO_CHARGES
****
Generated from CSD

@<TRIPOS>ATOM
      1 N1         1.4837   11.7991    1.8465 N.am      1 RES1    0.0000
      2 N2         1.9451   12.8369   -0.2977 N.2       1 RES1    0.0000
      3 O1         1.2940    9.6727    2.8128 O.2       1 RES1    0.0000
      4 O2         2.2119   12.3509   -1.6148 O.3       1 RES1    0.0000
      5 C1         1.4530   10.4196    1.8869 C.2       1 RES1    0.0000
      6 C2         1.7642   11.8326    0.4574 C.2       1 RES1    0.0000
      7 C3         1.7381   10.3550    0.4120 C.2       1 RES1    0.0000
      8 C4         1.9362    9.4557   -0.5499 C.2       1 RES1    0.0000
      9 H1         2.1210    9.8078   -1.3908 H         1 RES1    0.0000
     10 C5         1.9066    7.9942   -0.4776 C.ar      1 RES1    0.0000
     11 C6         1.6509    7.3074    0.6895 C.ar      1 RES1    0.0000
     12 H2         1.4772    7.7772    1.4732 H         1 RES1    0.0000
     13 C7         1.6506    5.9302    0.7029 C.ar      1 RES1    0.0000
     14 H3         1.4952    5.4788    1.5018 H         1 RES1    0.0000
     15 C8         1.8744    5.2214   -0.4372 C.ar      1 RES1    0.0000
     16 H4         1.8599    4.2921   -0.4187 H         1 RES1    0.0000
     17 C9         2.1230    5.8805   -1.6161 C.ar      1 RES1    0.0000
     18 H5         2.2814    5.4026   -2.3981 H         1 RES1    0.0000
     19 C10        2.1342    7.2693   -1.6296 C.ar      1 RES1    0.0000
     20 H6         2.2982    7.7183   -2.4267 H         1 RES1    0.0000
     21 C11        2.2921   13.4730   -2.4771 C.3       1 RES1    0.0000
     22 H7         1.4429   13.9198   -2.5007 H         1 RES1    0.0000
     23 H8         2.5238   13.1798   -3.3617 H         1 RES1    0.0000
     24 H9         2.9633   14.0779   -2.1542 H         1 RES1    0.0000
     25 C12        1.4826   12.7884    2.9615 C.3       1 RES1    0.0000
     26 C13        1.4813   14.1899    2.3594 C.3       1 RES1    0.0000
     27 H10        2.2788   14.3157    1.8398 H         1 RES1    0.0000
     28 H11        1.4513   14.8410    3.0640 H         1 RES1    0.0000
     29 H12        0.7120   14.2949    1.7944 H         1 RES1    0.0000
     30 C14        2.7260   12.5576    3.8074 C.3       1 RES1    0.0000
     31 H13        2.7042   11.6698    4.1723 H         1 RES1    0.0000
     32 H14        2.7502   13.1971    4.5221 H         1 RES1    0.0000
     33 H15        3.5083   12.6592    3.2608 H         1 RES1    0.0000
     34 C15        0.2186   12.5680    3.7855 C.3       1 RES1    0.0000
     35 H16       -0.5511   12.6476    3.2171 H         1 RES1    0.0000
     36 H17        0.1712   13.2271    4.4817 H         1 RES1    0.0000
     37 H18        0.2397   11.6918    4.1756 H         1 RES1    0.0000
@<TRIPOS>BOND
     1    1    5 1
     2    2    4 1
     3    3    5 2
     4    4   21 1
     5    5    7 1
     6    6    1 1
     7    7    6 1
     8    8    7 2
     9    9    8 1
    10   10    8 1
    11   11   10 ar
    12   12   11 1
    13   13   11 ar
    14   14   13 1
    15   15   13 ar
    16   16   15 1
    17   17   15 ar
    18   18   17 1
    19   19   10 ar
    20   20   19 1
    21   21   22 1
    22   23   21 1
    23   24   21 1
    24   25    1 1
    25   26   25 1
    26   27   26 1
    27   28   26 1
    28   29   26 1
    29   30   25 1
    30   31   30 1
    31   32   30 1
    32   33   30 1
    33   34   25 1
    34   35   34 1
    35   36   34 1
    36   37   34 1
    37    2    6 2
    38   17   19 ar
@<TRIPOS>SUBSTRUCTURE
     1 RES1 1

@<TRIPOS>CRYSIN
   7.2370   11.5440   16.8700  90.0000  94.5460  90.0000 231 1

