# MOL2 file generated by ConQuest
# Please check atom types

@<TRIPOS>MOLECULE
VALSUY01
    57    56     1
SMALL
NO_CHARGES
****
Generated from CSD

@<TRIPOS>ATOM
      1 O1         7.7785   12.9540   10.5521 O.3       1 RES1    0.0000
      2 C1         6.6780   13.3560   11.3123 C.3       1 RES1    0.0000
      3 C2         8.5225   13.9851    9.9186 C.3       1 RES1    0.0000
      4 H1         8.9098   14.6035   10.5883 H         1 RES1    0.0000
      5 H2         7.9522   14.5019    9.2957 H         1 RES1    0.0000
      6 C3         9.5829   13.2679    9.1886 C.3       1 RES1    0.0000
      7 O2        10.4390   15.3661    8.6772 O.2       1 RES1    0.0000
      8 N1        10.6274   12.6308   10.0890 N.pl3     1 RES1    0.0000
      9 N2         9.0474   12.1379    8.3515 N.pl3     1 RES1    0.0000
     10 N3        10.3576   14.2121    8.3198 N.pl3     1 RES1    0.0000
     11 O3        10.3549   12.4879   11.2157 O.2       1 RES1    0.0000
     12 O4         9.3332   11.0240    8.5144 O.2       1 RES1    0.0000
     13 O5        10.4377   13.6525    7.1237 O.2       1 RES1    0.0000
     14 O6         8.1351   12.4104    7.6772 O.2       1 RES1    0.0000
     15 O7        11.7332   12.5667    9.5596 O.2       1 RES1    0.0000
     16 O1A        5.5775   13.7580   10.5521 O.3       1 RES1    0.0000
     17 O1N        7.0800   14.4565   12.0724 O.3       1 RES1    0.0000
     18 O1O        6.2760   12.2555   12.0724 O.3       1 RES1    0.0000
     19 C2A        4.8335   12.7269    9.9186 C.3       1 RES1    0.0000
     20 C2N        6.0489   15.2005   12.7059 C.3       1 RES1    0.0000
     21 C2O        7.3071   11.5115   12.7059 C.3       1 RES1    0.0000
     22 H1A        4.4462   12.1085   10.5883 H         1 RES1    0.0000
     23 H1N        5.4305   15.5878   12.0362 H         1 RES1    0.0000
     24 H1O        7.9255   11.1242   12.0362 H         1 RES1    0.0000
     25 H2A        5.4038   12.2101    9.2957 H         1 RES1    0.0000
     26 H2N        5.5321   14.6302   13.3288 H         1 RES1    0.0000
     27 H2O        7.8239   12.0818   13.3288 H         1 RES1    0.0000
     28 C3A        3.7731   13.4441    9.1886 C.3       1 RES1    0.0000
     29 C3N        6.7661   16.2609   13.4359 C.3       1 RES1    0.0000
     30 C3O        6.5899   10.4511   13.4359 C.3       1 RES1    0.0000
     31 O2A        2.9170   11.3459    8.6772 O.2       1 RES1    0.0000
     32 O2N        4.6679   17.1170   13.9473 O.2       1 RES1    0.0000
     33 O2O        8.6881    9.5950   13.9473 O.2       1 RES1    0.0000
     34 N1A        2.7286   14.0812   10.0890 N.pl3     1 RES1    0.0000
     35 N1N        7.4032   17.3054   12.5355 N.pl3     1 RES1    0.0000
     36 N1O        5.9528    9.4066   12.5355 N.pl3     1 RES1    0.0000
     37 N2A        4.3086   14.5741    8.3515 N.pl3     1 RES1    0.0000
     38 N2N        7.8961   15.7254   14.2730 N.pl3     1 RES1    0.0000
     39 N2O        5.4599   10.9866   14.2730 N.pl3     1 RES1    0.0000
     40 N3A        2.9984   12.4999    8.3198 N.pl3     1 RES1    0.0000
     41 N3N        5.8219   17.0356   14.3047 N.pl3     1 RES1    0.0000
     42 N3O        7.5341    9.6764   14.3047 N.pl3     1 RES1    0.0000
     43 O3A        3.0011   14.2241   11.2157 O.2       1 RES1    0.0000
     44 O3N        7.5461   17.0329   11.4088 O.2       1 RES1    0.0000
     45 O3O        5.8099    9.6791   11.4088 O.2       1 RES1    0.0000
     46 O4A        4.0228   15.6880    8.5144 O.2       1 RES1    0.0000
     47 O4N        9.0100   16.0112   14.1101 O.2       1 RES1    0.0000
     48 O4O        4.3460   10.7008   14.1101 O.2       1 RES1    0.0000
     49 O5A        2.9183   13.0595    7.1237 O.2       1 RES1    0.0000
     50 O5N        6.3815   17.1157   15.5008 O.2       1 RES1    0.0000
     51 O5O        6.9745    9.5963   15.5008 O.2       1 RES1    0.0000
     52 O6A        5.2209   14.3016    7.6772 O.2       1 RES1    0.0000
     53 O6N        7.6236   14.8131   14.9473 O.2       1 RES1    0.0000
     54 O6O        5.7324   11.8989   14.9473 O.2       1 RES1    0.0000
     55 O7A        1.6228   14.1453    9.5596 O.2       1 RES1    0.0000
     56 O7N        7.4673   18.4112   13.0649 O.2       1 RES1    0.0000
     57 O7O        5.8887    8.3008   13.0649 O.2       1 RES1    0.0000
@<TRIPOS>BOND
     1    1    2 1
     2    2   16 1
     3    3    1 1
     4    4    3 1
     5    5    3 1
     6    6    3 1
     7    7   10 2
     8    8    6 1
     9    9    6 1
    10   10    6 1
    11   11    8 2
    12   12    9 2
    13   13   10 2
    14   14    9 2
    15   15    8 2
    16   16   19 1
    17   17    2 1
    18   18    2 1
    19   19   22 1
    20   20   17 1
    21   21   18 1
    22   23   20 1
    23   24   21 1
    24   25   19 1
    25   26   20 1
    26   27   21 1
    27   28   19 1
    28   29   20 1
    29   30   21 1
    30   31   40 2
    31   32   41 2
    32   33   42 2
    33   34   28 1
    34   35   29 1
    35   36   30 1
    36   37   28 1
    37   38   29 1
    38   39   30 1
    39   40   28 1
    40   41   29 1
    41   42   30 1
    42   43   34 2
    43   44   35 2
    44   45   36 2
    45   46   37 2
    46   47   38 2
    47   48   39 2
    48   49   40 2
    49   50   41 2
    50   51   42 2
    51   52   37 2
    52   53   38 2
    53   54   39 2
    54   55   34 2
    55   56   35 2
    56   57   36 2
@<TRIPOS>SUBSTRUCTURE
     1 RES1 1

@<TRIPOS>CRYSIN
  13.3560   13.3560   15.0830  90.0000  90.0000  90.0000 122 1

