# MOL2 file generated by ConQuest
# Please check atom types

@<TRIPOS>MOLECULE
VALVIO
    86    90     2
SMALL
NO_CHARGES
****
Generated from CSD

@<TRIPOS>ATOM
      1 N1         8.0999    8.5144   19.7786 N.pl3     1 RES1    0.0000
      2 C1         7.9167    9.8471   20.4136 C.3       1 RES1    0.0000
      3 H1         8.4980    9.9235   21.1853 H         1 RES1    0.0000
      4 H2         8.1566   10.5447   19.7839 H         1 RES1    0.0000
      5 C2         6.5801   10.0084   20.8106 C.3       1 RES1    0.0000
      6 H3         6.4641   10.8957   21.1853 H         1 RES1    0.0000
      7 H4         6.3732    9.3622   21.5042 H         1 RES1    0.0000
      8 C3         5.5834    9.8187   19.6119 C.3       1 RES1    0.0000
      9 H5         4.6674    9.8801   19.9253 H         1 RES1    0.0000
     10 H6         5.7272   10.5085   18.9461 H         1 RES1    0.0000
     11 C4         5.8340    8.4782   19.0232 C.3       1 RES1    0.0000
     12 H7         5.5744    7.7961   19.6615 H         1 RES1    0.0000
     13 H8         5.2847    8.3698   18.2308 H         1 RES1    0.0000
     14 C5         7.1964    8.2932   18.6728 C.3       1 RES1    0.0000
     15 H9         7.4228    8.9037   17.9532 H         1 RES1    0.0000
     16 H10        7.3179    7.3893   18.3428 H         1 RES1    0.0000
     17 C6         9.2916    7.9018   19.8594 C.2       1 RES1    0.0000
     18 H11        9.8757    8.2368   20.5010 H         1 RES1    0.0000
     19 C7         9.7537    6.8587   19.1282 C.2       1 RES1    0.0000
     20 H12        9.2321    6.4973   18.4480 H         1 RES1    0.0000
     21 C8        11.0315    6.3234   19.4047 C.2       1 RES1    0.0000
     22 H13       11.5209    6.7764   20.0528 H         1 RES1    0.0000
     23 C9        11.6367    5.2656   18.8725 C.2       1 RES1    0.0000
     24 H14       12.4737    5.0452   19.2116 H         1 RES1    0.0000
     25 C10       11.1191    4.4300   17.8229 C.2       1 RES1    0.0000
     26 C11       11.1942    2.7644   16.4279 C.2       1 RES1    0.0000
     27 C12       10.0236    3.4316   16.3155 C.2       1 RES1    0.0000
     28 H15        9.3498    3.2207   15.7106 H         1 RES1    0.0000
     29 C13       11.7660    1.6139   15.7863 C.ar      1 RES1    0.0000
     30 C14       13.0780    1.1855   16.0231 C.ar      1 RES1    0.0000
     31 H16       13.6108    1.6534   16.6242 H         1 RES1    0.0000
     32 C15       13.5829    0.0945   15.3867 C.ar      1 RES1    0.0000
     33 H17       14.4510   -0.1889   15.5658 H         1 RES1    0.0000
     34 C16       12.8156   -0.5829   14.4858 C.ar      1 RES1    0.0000
     35 C17       11.5333   -0.1760   14.2168 C.ar      1 RES1    0.0000
     36 H18       11.0064   -0.6378   13.6041 H         1 RES1    0.0000
     37 C18       11.0528    0.9096   14.8596 C.ar      1 RES1    0.0000
     38 H19       10.1890    1.1926   14.6608 H         1 RES1    0.0000
     39 O1        11.9133    3.3938   17.3789 O.3       1 RES1    0.0000
     40 N2         9.9690    4.4540   17.2110 N.2       1 RES1    0.0000
     41 N3        13.3327   -1.7932   13.8031 N.pl3     1 RES1    0.0000
     42 O2        14.4343   -2.1927   14.1376 O.2       1 RES1    0.0000
     43 O3        12.6798   -2.3101   12.9096 O.2       1 RES1    0.0000
     44 N4        13.4011   -0.7153    6.1091 N.pl3     2 RES2    0.0000
     45 C19       14.2960   -0.3605    7.2009 C.3       2 RES2    0.0000
     46 H20       14.0030   -0.7970    8.0156 H         2 RES2    0.0000
     47 H21       14.2692    0.5981    7.3451 H         2 RES2    0.0000
     48 C20       15.6888   -0.7791    6.8833 C.3       2 RES2    0.0000
     49 H22       16.0844   -0.0938    6.3229 H         2 RES2    0.0000
     50 H23       16.1909   -0.7946    7.7122 H         2 RES2    0.0000
     51 C21       15.8843   -2.0870    6.2094 C.3       2 RES2    0.0000
     52 H24       15.8452   -2.7884    6.8779 H         2 RES2    0.0000
     53 H25       16.7728   -2.1042    5.8195 H         2 RES2    0.0000
     54 C22       14.8933   -2.3912    5.1455 C.3       2 RES2    0.0000
     55 H26       15.2032   -2.0026    4.3129 H         2 RES2    0.0000
     56 H27       14.8551   -3.3526    5.0231 H         2 RES2    0.0000
     57 C23       13.5822   -1.9139    5.4073 C.3       2 RES2    0.0000
     58 H28       13.1338   -1.8191    4.5525 H         2 RES2    0.0000
     59 H29       13.1140   -2.6084    5.8971 H         2 RES2    0.0000
     60 C24       12.2120   -0.0676    6.0274 C.2       2 RES2    0.0000
     61 H30       11.6358   -0.3997    5.3782 H         2 RES2    0.0000
     62 C25       11.7288    0.9668    6.7223 C.2       2 RES2    0.0000
     63 H31       12.2282    1.3143    7.4261 H         2 RES2    0.0000
     64 C26       10.4813    1.5423    6.4128 C.2       2 RES2    0.0000
     65 H32       10.0246    1.1480    5.7057 H         2 RES2    0.0000
     66 C27        9.8548    2.5865    6.9991 C.2       2 RES2    0.0000
     67 H33        8.9931    2.7765    6.7073 H         2 RES2    0.0000
     68 C28       10.3864    3.4204    8.0166 C.2       2 RES2    0.0000
     69 C29       10.3063    5.0771    9.4407 C.2       2 RES2    0.0000
     70 C30       11.4811    4.4256    9.5258 C.2       2 RES2    0.0000
     71 H34       12.1666    4.6603   10.1083 H         2 RES2    0.0000
     72 C31        9.7387    6.2321   10.0942 C.ar      2 RES2    0.0000
     73 C32       10.5087    6.9886   11.0093 C.ar      2 RES2    0.0000
     74 H35       11.3936    6.7515   11.1736 H         2 RES2    0.0000
     75 C33        9.9740    8.0461   11.6430 C.ar      2 RES2    0.0000
     76 H36       10.4774    8.5046   12.2768 H         2 RES2    0.0000
     77 C34        8.6885    8.4600   11.3663 C.ar      2 RES2    0.0000
     78 C35        7.9250    7.7609   10.4541 C.ar      2 RES2    0.0000
     79 H37        7.0576    8.0378   10.2652 H         2 RES2    0.0000
     80 C36        8.4340    6.6789    9.8358 C.ar      2 RES2    0.0000
     81 H38        7.9089    6.2169    9.2240 H         2 RES2    0.0000
     82 O4         9.5848    4.4236    8.4374 O.3       2 RES2    0.0000
     83 N5        11.5423    3.3641    8.6413 N.2       2 RES2    0.0000
     84 N6         8.1282    9.5994   12.0443 N.pl3     2 RES2    0.0000
     85 O5         8.7873   10.1043   12.9088 O.2       2 RES2    0.0000
     86 O6         7.0636   10.0234   11.6873 O.2       2 RES2    0.0000
@<TRIPOS>BOND
     1    1    2 1
     2    2    3 1
     3    4    2 1
     4    5    2 1
     5    6    5 1
     6    7    5 1
     7    8    5 1
     8    9    8 1
     9   10    8 1
    10   11    8 1
    11   12   11 1
    12   13   11 1
    13   14    1 1
    14   15   14 1
    15   16   14 1
    16   17    1 1
    17   18   17 1
    18   19   17 2
    19   20   19 1
    20   21   19 1
    21   22   21 1
    22   23   21 2
    23   24   23 1
    24   25   23 1
    25   26   27 2
    26   27   28 1
    27   29   26 1
    28   30   29 ar
    29   31   30 1
    30   32   30 ar
    31   33   32 1
    32   34   32 ar
    33   35   34 ar
    34   36   35 1
    35   37   29 ar
    36   38   37 1
    37   39   25 1
    38   40   25 2
    39   41   34 1
    40   42   41 2
    41   43   41 2
    42   44   45 1
    43   45   46 1
    44   47   45 1
    45   48   45 1
    46   49   48 1
    47   50   48 1
    48   51   48 1
    49   52   51 1
    50   53   51 1
    51   54   51 1
    52   55   54 1
    53   56   54 1
    54   57   44 1
    55   58   57 1
    56   59   57 1
    57   60   44 1
    58   61   60 1
    59   62   60 2
    60   63   62 1
    61   64   62 1
    62   65   64 1
    63   66   64 2
    64   67   66 1
    65   68   66 1
    66   69   70 2
    67   70   71 1
    68   72   69 1
    69   73   72 ar
    70   74   73 1
    71   75   73 ar
    72   76   75 1
    73   77   75 ar
    74   78   77 ar
    75   79   78 1
    76   80   72 ar
    77   81   80 1
    78   82   68 1
    79   83   68 2
    80   84   77 1
    81   85   84 2
    82   86   84 2
    83   11   14 1
    84   26   39 1
    85   27   40 1
    86   35   37 ar
    87   54   57 1
    88   69   82 1
    89   70   83 1
    90   78   80 ar
@<TRIPOS>SUBSTRUCTURE
     1 RES1 1
     2 RES2 44

@<TRIPOS>CRYSIN
  16.1810    5.9390   17.3370  90.0000  96.1300  90.0000   4 1

