# MOL2 file generated by ConQuest
# Please check atom types

@<TRIPOS>MOLECULE
VALVEK
    92    96     2
SMALL
NO_CHARGES
****
Generated from CSD

@<TRIPOS>ATOM
      1 N1         1.4948   10.5724    3.7605 N.pl3     1 RES1    0.0000
      2 C1         1.3615    9.5910    2.6706 C.3       1 RES1    0.0000
      3 H1         1.5503    8.7206    3.0570 H         1 RES1    0.0000
      4 H2         0.4289    9.5844    2.4100 H         1 RES1    0.0000
      5 C2         2.1272    9.6789    1.4590 C.3       1 RES1    0.0000
      6 H3         3.0606    9.6536    1.7196 H         1 RES1    0.0000
      7 H4         1.9586    8.8579    0.9684 H         1 RES1    0.0000
      8 C3         2.0059   10.7471    0.5081 C.3       1 RES1    0.0000
      9 H5         1.1876   10.6086    0.0043 H         1 RES1    0.0000
     10 H6         2.7433   10.6779   -0.1172 H         1 RES1    0.0000
     11 C4         1.9872   12.0868    1.0248 C.3       1 RES1    0.0000
     12 H7         2.9147   12.3429    1.1420 H         1 RES1    0.0000
     13 H8         1.6381   12.6451    0.3127 H         1 RES1    0.0000
     14 C5         1.3040   12.4978    2.2190 C.3       1 RES1    0.0000
     15 H9         0.3661   12.3176    2.0670 H         1 RES1    0.0000
     16 H10        1.3943   13.4638    2.2580 H         1 RES1    0.0000
     17 C6         1.5815   12.0275    3.5477 C.3       1 RES1    0.0000
     18 H11        0.9656   12.4616    4.1557 H         1 RES1    0.0000
     19 H12        2.4772   12.3143    3.7909 H         1 RES1    0.0000
     20 C7         2.0899    9.9569    4.9112 C.2       1 RES1    0.0000
     21 H13        2.2481    9.0459    4.9156 H         1 RES1    0.0000
     22 C8         2.4323   10.7131    6.0012 C.2       1 RES1    0.0000
     23 H14        2.4200   11.6428    5.9838 H         1 RES1    0.0000
     24 C9         2.7959    9.9844    7.1476 C.2       1 RES1    0.0000
     25 H15        2.6146    9.0733    7.1041 H         1 RES1    0.0000
     26 C10        3.3685   10.3987    8.3026 C.2       1 RES1    0.0000
     27 H16        3.5165   11.3164    8.3330 H         1 RES1    0.0000
     28 C11        3.8057    9.7009    9.5011 C.2       1 RES1    0.0000
     29 O1         3.9975   10.4009   10.6484 O.3       1 RES1    0.0000
     30 C12        4.4501    9.3690   11.4813 C.2       1 RES1    0.0000
     31 C13        4.5005    8.2480   10.8777 C.2       1 RES1    0.0000
     32 H17        4.7690    7.4380   11.2424 H         1 RES1    0.0000
     33 N2         4.0732    8.4524    9.5663 N.2       1 RES1    0.0000
     34 C14        4.9959    9.7712   12.8404 C.ar      1 RES1    0.0000
     35 C15        4.9562   11.1570   13.2920 C.ar      1 RES1    0.0000
     36 H18        4.7627   11.8208   12.6711 H         1 RES1    0.0000
     37 C16        5.1975   11.5164   14.5687 C.ar      1 RES1    0.0000
     38 H19        5.1480   12.4099   14.8206 H         1 RES1    0.0000
     39 C17        5.5132   10.5284   15.5153 C.ar      1 RES1    0.0000
     40 C18        5.5354    9.1657   15.1766 C.ar      1 RES1    0.0000
     41 H20        5.7030    8.5194   15.8236 H         1 RES1    0.0000
     42 C19        5.3168    8.8151   13.8913 C.ar      1 RES1    0.0000
     43 H21        5.3701    7.9150   13.6698 H         1 RES1    0.0000
     44 N3         5.8048   10.8735   16.8832 N.pl3     1 RES1    0.0000
     45 O2         5.8656   12.0857   17.1785 O.2       1 RES1    0.0000
     46 O3         6.1231    9.9932   17.7082 O.2       1 RES1    0.0000
     47 N4         9.9105   10.6878   17.7039 N.pl3     2 RES2    0.0000
     48 C20       10.0749    9.6470   18.7330 C.3       2 RES2    0.0000
     49 H22       10.2413    8.8162   18.2597 H         2 RES2    0.0000
     50 H23       10.8953    9.8602   19.2064 H         2 RES2    0.0000
     51 C21        9.0897    9.3580   19.7318 C.3       2 RES2    0.0000
     52 H24        8.2226    9.2382   19.3106 H         2 RES2    0.0000
     53 H25        9.3180    8.5359   20.1921 H         2 RES2    0.0000
     54 C22        9.0244   10.4383   20.6784 C.3       2 RES2    0.0000
     55 H26        9.9041   10.5405   21.0692 H         2 RES2    0.0000
     56 H27        8.4248   10.1679   21.3906 H         2 RES2    0.0000
     57 C23        8.5935   11.7373   20.2225 C.3       2 RES2    0.0000
     58 H28        7.7985   11.6263   19.6797 H         2 RES2    0.0000
     59 H29        8.3610   12.2725   20.9911 H         2 RES2    0.0000
     60 C24        9.5888   12.4319   19.4495 C.3       2 RES2    0.0000
     61 H30       10.4613   12.2462   19.8273 H         2 RES2    0.0000
     62 H31        9.4287   13.3847   19.5320 H         2 RES2    0.0000
     63 C25        9.6039   12.0857   18.0600 C.3       2 RES2    0.0000
     64 H32       10.2589   12.6517   17.6170 H         2 RES2    0.0000
     65 H33        8.7373   12.3066   17.6865 H         2 RES2    0.0000
     66 C26        9.3988   10.1108   16.4924 C.2       2 RES2    0.0000
     67 H34        9.2083    9.2030   16.4620 H         2 RES2    0.0000
     68 C27        9.1912   10.8867   15.3851 C.2       2 RES2    0.0000
     69 H35        9.1949   11.8164   15.4241 H         2 RES2    0.0000
     70 C28        8.9781   10.1822   14.1866 C.2       2 RES2    0.0000
     71 H36        9.0408    9.2580   14.2604 H         2 RES2    0.0000
     72 C29        8.6838   10.6383   12.9446 C.2       2 RES2    0.0000
     73 H37        8.7673   11.5593   12.8491 H         2 RES2    0.0000
     74 C30        8.2768    9.9459   11.7331 C.2       2 RES2    0.0000
     75 O4         7.8592   10.6669   10.6614 O.3       2 RES2    0.0000
     76 C31        7.6400    9.6272    9.7486 C.2       2 RES2    0.0000
     77 C32        7.8905    8.4843   10.2524 C.2       2 RES2    0.0000
     78 H38        7.8005    7.6633    9.8225 H         2 RES2    0.0000
     79 N5         8.3178    8.6799   11.5638 N.2       2 RES2    0.0000
     80 C33        7.1170   10.0020    8.3721 C.ar      2 RES2    0.0000
     81 C34        6.6762   11.3483    8.0291 C.ar      2 RES2    0.0000
     82 H39        6.7798   12.0242    8.6587 H         2 RES2    0.0000
     83 C35        6.1344   11.6549    6.8306 C.ar      2 RES2    0.0000
     84 H40        5.8680   12.5264    6.6482 H         2 RES2    0.0000
     85 C36        5.9760   10.6471    5.8666 C.ar      2 RES2    0.0000
     86 C37        6.3740    9.3239    6.1141 C.ar      2 RES2    0.0000
     87 H41        6.2634    8.6667    5.4627 H         2 RES2    0.0000
     88 C38        6.9158    9.0239    7.3126 C.ar      2 RES2    0.0000
     89 H42        7.1784    8.1447    7.4689 H         2 RES2    0.0000
     90 N6         5.4662   11.0131    4.5725 N.pl3     2 RES2    0.0000
     91 O5         5.3146   12.2275    4.3294 O.2       2 RES2    0.0000
     92 O6         5.3136   10.1515    3.6823 O.2       2 RES2    0.0000
@<TRIPOS>BOND
     1    1    2 1
     2    2    3 1
     3    4    2 1
     4    5    2 1
     5    6    5 1
     6    7    5 1
     7    8    5 1
     8    9    8 1
     9   10    8 1
    10   11    8 1
    11   12   11 1
    12   13   11 1
    13   14   11 1
    14   15   14 1
    15   16   14 1
    16   17    1 1
    17   18   17 1
    18   19   17 1
    19   20    1 1
    20   21   20 1
    21   22   20 2
    22   23   22 1
    23   24   22 1
    24   25   24 1
    25   26   24 2
    26   27   26 1
    27   28   26 1
    28   29   28 1
    29   30   29 1
    30   31   30 2
    31   32   31 1
    32   33   28 2
    33   34   30 1
    34   35   34 ar
    35   36   35 1
    36   37   35 ar
    37   38   37 1
    38   39   37 ar
    39   40   39 ar
    40   41   40 1
    41   42   34 ar
    42   43   42 1
    43   44   39 1
    44   45   44 2
    45   46   44 2
    46   47   48 1
    47   48   49 1
    48   50   48 1
    49   51   48 1
    50   52   51 1
    51   53   51 1
    52   54   51 1
    53   55   54 1
    54   56   54 1
    55   57   54 1
    56   58   57 1
    57   59   57 1
    58   60   57 1
    59   61   60 1
    60   62   60 1
    61   63   47 1
    62   64   63 1
    63   65   63 1
    64   66   47 1
    65   67   66 1
    66   68   66 2
    67   69   68 1
    68   70   68 1
    69   71   70 1
    70   72   70 2
    71   73   72 1
    72   74   72 1
    73   75   74 1
    74   76   75 1
    75   77   76 2
    76   78   77 1
    77   79   74 2
    78   80   76 1
    79   81   80 ar
    80   82   81 1
    81   83   81 ar
    82   84   83 1
    83   85   83 ar
    84   86   85 ar
    85   87   86 1
    86   88   80 ar
    87   89   88 1
    88   90   85 1
    89   91   90 2
    90   92   90 2
    91   14   17 1
    92   31   33 1
    93   40   42 ar
    94   60   63 1
    95   77   79 1
    96   86   88 ar
@<TRIPOS>SUBSTRUCTURE
     1 RES1 1
     2 RES2 47

@<TRIPOS>CRYSIN
   7.4700   10.9900   43.4340  90.0000  91.2400  90.0000  14 1

