# MOL2 file generated by ConQuest
# Please check atom types

@<TRIPOS>MOLECULE
VALWOW
    18    17     1
SMALL
NO_CHARGES
****
Generated from CSD

@<TRIPOS>ATOM
      1 O1        -0.1789   -0.7492    4.6576 O.3       1 RES1    0.0000
      2 N1        -1.0898    1.8522    3.8087 N.3       1 RES1    0.0000
      3 O2        -0.7495    2.4004    1.7062 O.2       1 RES1    0.0000
      4 O3        -1.1639   -2.4012    5.7904 O.2       1 RES1    0.0000
      5 O4         0.9219    1.6725    2.9023 O.2       1 RES1    0.0000
      6 N2        -0.2643    1.9848    2.7685 N.pl3     1 RES1    0.0000
      7 O5         0.1670   -2.8077    4.1140 O.2       1 RES1    0.0000
      8 N3        -0.4241   -2.0927    4.8837 N.pl3     1 RES1    0.0000
      9 C1        -0.5460    1.5290    5.1241 C.3       1 RES1    0.0000
     10 C2        -0.9052    0.1299    5.5573 C.3       1 RES1    0.0000
     11 C3        -2.4602    2.3046    3.6437 C.3       1 RES1    0.0000
     12 H1         0.4212    1.6574    5.1131 H         1 RES1    0.0000
     13 H2        -0.5805   -0.0391    6.4716 H         1 RES1    0.0000
     14 H3        -1.8396   -0.0221    5.4704 H         1 RES1    0.0000
     15 H4        -0.9389    2.1821    5.7455 H         1 RES1    0.0000
     16 H5        -2.9161    1.7858    2.9759 H         1 RES1    0.0000
     17 H6        -2.9306    2.0884    4.4520 H         1 RES1    0.0000
     18 H7        -2.4656    3.2396    3.5109 H         1 RES1    0.0000
@<TRIPOS>BOND
     1    1    8 1
     2    2    6 1
     3    3    6 2
     4    4    8 2
     5    5    6 2
     6    7    8 2
     7    9    2 1
     8   10    1 1
     9   11    2 1
    10   12    9 1
    11   13   10 1
    12   14   10 1
    13   15    9 1
    14   16   11 1
    15   17   11 1
    16   18   11 1
    17    9   10 1
@<TRIPOS>SUBSTRUCTURE
     1 RES1 1

@<TRIPOS>CRYSIN
   9.7280    7.3794   11.7814  90.0000 125.8160  90.0000  14 1

