# MOL2 file generated by ConQuest
# Please check atom types

@<TRIPOS>MOLECULE
VAMBET
    36    39     1
SMALL
NO_CHARGES
****
Generated from CSD

@<TRIPOS>ATOM
      1 O1         4.9671   -1.0521    9.4410 O.2       1 RES1    0.0000
      2 O2         6.6259   10.2079    5.7053 O.2       1 RES1    0.0000
      3 O3         6.9740    8.8421    4.0839 O.2       1 RES1    0.0000
      4 N1         4.5343    2.8242   10.7138 N.2       1 RES1    0.0000
      5 N2         5.1894    1.1861    9.1297 N.am      1 RES1    0.0000
      6 N3         3.6376    2.1592   12.7427 N.ar      1 RES1    0.0000
      7 N4         6.6726    9.0704    5.2378 N.pl3     1 RES1    0.0000
      8 C1         5.0072    2.4729    9.5656 C.2       1 RES1    0.0000
      9 C2         4.8395    0.0846    9.8780 C.2       1 RES1    0.0000
     10 C3         3.8856   -0.5515   12.0960 C.ar      1 RES1    0.0000
     11 H1         3.9831   -1.4517   11.8878 H         1 RES1    0.0000
     12 C4         3.3407   -0.1738   13.2777 C.ar      1 RES1    0.0000
     13 H2         3.0427   -0.8087   13.8889 H         1 RES1    0.0000
     14 C5         3.2378    1.1829   13.5561 C.ar      1 RES1    0.0000
     15 H3         2.8617    1.4273   14.3702 H         1 RES1    0.0000
     16 C6         4.1595    1.7865   11.5545 C.ar      1 RES1    0.0000
     17 C7         4.2981    0.4303   11.1955 C.ar      1 RES1    0.0000
     18 C8         5.4294    3.3881    8.4971 C.2       1 RES1    0.0000
     19 C9         5.9554    2.5569    7.3516 C.3       1 RES1    0.0000
     20 H4         6.8992    2.7295    7.2075 H         1 RES1    0.0000
     21 H5         5.4733    2.7562    6.5330 H         1 RES1    0.0000
     22 C10        5.7274    1.0995    7.7767 C.3       1 RES1    0.0000
     23 H6         5.0975    0.6627    7.1834 H         1 RES1    0.0000
     24 H7         6.5620    0.6048    7.7682 H         1 RES1    0.0000
     25 C11        5.3058    4.7153    8.6354 C.2       1 RES1    0.0000
     26 H8         4.9198    4.9910    9.4347 H         1 RES1    0.0000
     27 C12        5.6847    5.7997    7.7233 C.ar      1 RES1    0.0000
     28 C13        6.3525    5.5993    6.5080 C.ar      1 RES1    0.0000
     29 H9         6.5845    4.7373    6.2466 H         1 RES1    0.0000
     30 C14        6.6697    6.6721    5.6950 C.ar      1 RES1    0.0000
     31 H10        7.1003    6.5377    4.8821 H         1 RES1    0.0000
     32 C15        6.3378    7.9453    6.1076 C.ar      1 RES1    0.0000
     33 C16        5.7017    8.1863    7.3016 C.ar      1 RES1    0.0000
     34 H11        5.5006    9.0552    7.5646 H         1 RES1    0.0000
     35 C17        5.3680    7.1135    8.1029 C.ar      1 RES1    0.0000
     36 H12        4.9267    7.2641    8.9068 H         1 RES1    0.0000
@<TRIPOS>BOND
     1    1    9 2
     2    2    7 2
     3    3    7 2
     4    4    8 2
     5    5    8 1
     6    6   14 ar
     7    7   32 1
     8    8   18 1
     9    9    5 1
    10   10   11 1
    11   12   10 ar
    12   13   12 1
    13   14   12 ar
    14   15   14 1
    15   16    4 1
    16   17    9 1
    17   18   19 1
    18   19   20 1
    19   21   19 1
    20   22    5 1
    21   23   22 1
    22   24   22 1
    23   25   18 2
    24   26   25 1
    25   27   25 1
    26   28   27 ar
    27   29   28 1
    28   30   28 ar
    29   31   30 1
    30   32   30 ar
    31   33   32 ar
    32   34   33 1
    33   35   27 ar
    34   36   35 1
    35    6   16 ar
    36   10   17 ar
    37   16   17 ar
    38   19   22 1
    39   33   35 ar
@<TRIPOS>SUBSTRUCTURE
     1 RES1 1

@<TRIPOS>CRYSIN
   7.1755   11.5855   17.2515  90.0000  90.3600  90.0000  14 1

