# MOL2 file generated by ConQuest
# Please check atom types

@<TRIPOS>MOLECULE
VAMPEG
    92    96     2
SMALL
NO_CHARGES
****
Generated from CSD

@<TRIPOS>ATOM
      1 O1         1.5690   -0.7271    3.9001 O.2       1 RES1    0.0000
      2 O2         4.6616   -3.2803    9.8423 O.2       1 RES1    0.0000
      3 O3         4.7676   -4.7907    8.3292 O.2       1 RES1    0.0000
      4 N1         2.6707    1.1035    4.5656 N.am      1 RES1    0.0000
      5 N2         3.5263    1.7914    5.4920 N.3       1 RES1    0.0000
      6 H1         4.3325    1.6049    5.1665 H         1 RES1    0.0000
      7 N3         4.4872   -3.6718    8.7118 N.pl3     1 RES1    0.0000
      8 C1         2.3157   -0.1787    4.7214 C.2       1 RES1    0.0000
      9 C2         3.2214    3.2131    5.2152 C.3       1 RES1    0.0000
     10 H2         2.3526    3.4465    5.6542 H         1 RES1    0.0000
     11 C3         3.0319    3.2461    3.6957 C.3       1 RES1    0.0000
     12 H3         2.5040    4.0588    3.4467 H         1 RES1    0.0000
     13 C4         2.1721    1.9873    3.4565 C.3       1 RES1    0.0000
     14 C5         2.8706   -1.0028    5.8659 C.ar      1 RES1    0.0000
     15 C6         2.9091   -2.3731    5.6329 C.ar      1 RES1    0.0000
     16 H4         2.5750   -2.7146    4.8124 H         1 RES1    0.0000
     17 C7         3.4187   -3.2427    6.5647 C.ar      1 RES1    0.0000
     18 H5         3.4538   -4.1761    6.3876 H         1 RES1    0.0000
     19 C8         3.8733   -2.7396    7.7475 C.ar      1 RES1    0.0000
     20 C9         3.8075   -1.4045    8.0420 C.ar      1 RES1    0.0000
     21 H6         4.0961   -1.0790    8.8878 H         1 RES1    0.0000
     22 C10        3.3121   -0.5338    7.0820 C.ar      1 RES1    0.0000
     23 H7         3.2763    0.3972    7.2656 H         1 RES1    0.0000
     24 C11        4.3065    4.1453    5.7500 C.3       1 RES1    0.0000
     25 H8         3.9528    5.0695    5.7590 H         1 RES1    0.0000
     26 H9         4.5056    3.8926    6.6875 H         1 RES1    0.0000
     27 C12        5.5900    4.1317    4.9674 C.3       1 RES1    0.0000
     28 H10        6.0187    3.2348    5.0798 H         1 RES1    0.0000
     29 C13        5.2946    4.3377    3.4944 C.3       1 RES1    0.0000
     30 H11        6.1415    4.3115    2.9843 H         1 RES1    0.0000
     31 H12        4.8841    5.2289    3.3636 H         1 RES1    0.0000
     32 C14        4.3536    3.2655    2.9666 C.3       1 RES1    0.0000
     33 H13        4.1897    3.4248    2.0016 H         1 RES1    0.0000
     34 H14        4.7869    2.3811    3.0565 H         1 RES1    0.0000
     35 C15        6.5482    5.1982    5.5176 C.3       1 RES1    0.0000
     36 H15        6.1372    6.0825    5.4302 H         1 RES1    0.0000
     37 H16        7.3875    5.1754    5.0111 H         1 RES1    0.0000
     38 H17        6.7319    5.0160    6.4635 H         1 RES1    0.0000
     39 C16        2.3851    1.3545    2.0828 C.3       1 RES1    0.0000
     40 H18        3.3102    1.0403    2.0088 H         1 RES1    0.0000
     41 H19        2.2097    2.0214    1.3874 H         1 RES1    0.0000
     42 H20        1.7726    0.5976    1.9727 H         1 RES1    0.0000
     43 C17        0.6897    2.2775    3.6700 C.3       1 RES1    0.0000
     44 H21        0.1892    1.4353    3.6743 H         1 RES1    0.0000
     45 H22        0.3612    2.8489    2.9445 H         1 RES1    0.0000
     46 H23        0.5669    2.7362    4.5270 H         1 RES1    0.0000
     47 O4         5.6398    0.0214    4.4435 O.2       2 RES2    0.0000
     48 O5         9.1435   -2.5951   10.1483 O.2       2 RES2    0.0000
     49 O6         8.9698   -0.4769   10.4052 O.2       2 RES2    0.0000
     50 N4         6.7061   -1.7543    3.5616 N.am      2 RES2    0.0000
     51 N5         7.6705   -2.8087    3.6808 N.3       2 RES2    0.0000
     52 H24        8.4677   -2.4244    3.5840 H         2 RES2    0.0000
     53 N6         8.8097   -1.4888    9.7502 N.pl3     2 RES2    0.0000
     54 C18        6.4121   -0.9367    4.5895 C.2       2 RES2    0.0000
     55 C19        7.3680   -3.6627    2.5287 C.3       2 RES2    0.0000
     56 H25        6.5553   -4.2011    2.7530 H         2 RES2    0.0000
     57 C20        6.9828   -2.6702    1.4177 C.3       2 RES2    0.0000
     58 H26        6.4171   -3.1323    0.7334 H         2 RES2    0.0000
     59 C21        6.1332   -1.6333    2.1826 C.3       2 RES2    0.0000
     60 C22        7.0630   -1.1610    5.9252 C.ar      2 RES2    0.0000
     61 C23        7.4268   -0.0239    6.6376 C.ar      2 RES2    0.0000
     62 H27        7.2781    0.8354    6.2576 H         2 RES2    0.0000
     63 C24        8.0011   -0.1263    7.8852 C.ar      2 RES2    0.0000
     64 H28        8.2687    0.6511    8.3603 H         2 RES2    0.0000
     65 C25        8.1791   -1.3772    8.4293 C.ar      2 RES2    0.0000
     66 C26        7.8012   -2.5211    7.7674 C.ar      2 RES2    0.0000
     67 H29        7.9202   -3.3748    8.1688 H         2 RES2    0.0000
     68 C27        7.2457   -2.4050    6.5108 C.ar      2 RES2    0.0000
     69 H30        6.9840   -3.1870    6.0408 H         2 RES2    0.0000
     70 C28        8.4851   -4.6302    2.1927 C.3       2 RES2    0.0000
     71 H31        8.1117   -5.3598    1.6367 H         2 RES2    0.0000
     72 H32        8.8129   -5.0354    3.0348 H         2 RES2    0.0000
     73 C29        9.6744   -4.0156    1.4531 C.3       2 RES2    0.0000
     74 H33       10.1525   -3.4066    2.0847 H         2 RES2    0.0000
     75 C30        9.1739   -3.1835    0.2833 C.3       2 RES2    0.0000
     76 H34        9.9448   -2.7704   -0.1806 H         2 RES2    0.0000
     77 H35        8.7068   -3.7709   -0.3613 H         2 RES2    0.0000
     78 C31        8.2274   -2.0977    0.7537 C.3       2 RES2    0.0000
     79 H36        7.9567   -1.5445   -0.0217 H         2 RES2    0.0000
     80 H37        8.6985   -1.5115    1.3982 H         2 RES2    0.0000
     81 C32       10.6587   -5.0946    0.9990 C.3       2 RES2    0.0000
     82 H38       10.2058   -5.7149    0.3902 H         2 RES2    0.0000
     83 H39       10.9879   -5.5863    1.7812 H         2 RES2    0.0000
     84 H40       11.4136   -4.6746    0.5347 H         2 RES2    0.0000
     85 C33        6.2522   -0.2174    1.6301 C.3       2 RES2    0.0000
     86 H41        5.6415    0.3756    2.1172 H         2 RES2    0.0000
     87 H42        6.0189   -0.2174    0.6792 H         2 RES2    0.0000
     88 H43        7.1729    0.1002    1.7414 H         2 RES2    0.0000
     89 C34        4.6612   -2.0590    2.2086 C.3       2 RES2    0.0000
     90 H44        4.5965   -2.9901    2.5074 H         2 RES2    0.0000
     91 H45        4.2819   -1.9771    1.3079 H         2 RES2    0.0000
     92 H46        4.1650   -1.4819    2.8253 H         2 RES2    0.0000
@<TRIPOS>BOND
     1    1    8 2
     2    2    7 2
     3    3    7 2
     4    4    5 1
     5    5    6 1
     6    7   19 1
     7    8    4 1
     8    9    5 1
     9   10    9 1
    10   11    9 1
    11   12   11 1
    12   13    4 1
    13   14    8 1
    14   15   14 ar
    15   16   15 1
    16   17   15 ar
    17   18   17 1
    18   19   17 ar
    19   20   19 ar
    20   21   20 1
    21   22   14 ar
    22   23   22 1
    23   24    9 1
    24   25   24 1
    25   26   24 1
    26   27   24 1
    27   28   27 1
    28   29   27 1
    29   30   29 1
    30   31   29 1
    31   32   11 1
    32   33   32 1
    33   34   32 1
    34   35   27 1
    35   36   35 1
    36   37   35 1
    37   38   35 1
    38   39   13 1
    39   40   39 1
    40   41   39 1
    41   42   39 1
    42   43   13 1
    43   44   43 1
    44   45   43 1
    45   46   43 1
    46   47   54 2
    47   48   53 2
    48   49   53 2
    49   50   51 1
    50   51   52 1
    51   53   65 1
    52   54   50 1
    53   55   51 1
    54   56   55 1
    55   57   55 1
    56   58   57 1
    57   59   50 1
    58   60   54 1
    59   61   60 ar
    60   62   61 1
    61   63   61 ar
    62   64   63 1
    63   65   63 ar
    64   66   65 ar
    65   67   66 1
    66   68   60 ar
    67   69   68 1
    68   70   55 1
    69   71   70 1
    70   72   70 1
    71   73   70 1
    72   74   73 1
    73   75   73 1
    74   76   75 1
    75   77   75 1
    76   78   57 1
    77   79   78 1
    78   80   78 1
    79   81   73 1
    80   82   81 1
    81   83   81 1
    82   84   81 1
    83   85   59 1
    84   86   85 1
    85   87   85 1
    86   88   85 1
    87   89   59 1
    88   90   89 1
    89   91   89 1
    90   92   89 1
    91   11   13 1
    92   20   22 ar
    93   29   32 1
    94   57   59 1
    95   66   68 ar
    96   75   78 1
@<TRIPOS>SUBSTRUCTURE
     1 RES1 1
     2 RES2 47

@<TRIPOS>CRYSIN
   8.0912   11.3820   36.3190  90.0000  95.8610  90.0000 231 1

