# MOL2 file generated by ConQuest
# Please check atom types

@<TRIPOS>MOLECULE
VAMSEH
    53    54     1
SMALL
NO_CHARGES
****
Generated from CSD

@<TRIPOS>ATOM
      1 C1        -1.1177   -0.6689    4.1846 C.2       1 RES1    0.0000
      2 C2        -0.7888   -0.7921    2.9044 C.2       1 RES1    0.0000
      3 C3        -0.9080   -2.1462    2.2373 C.3       1 RES1    0.0000
      4 C4         0.3804   -3.0389    2.2705 C.3       1 RES1    0.0000
      5 C5         0.9551   -2.9660    3.6667 C.2       1 RES1    0.0000
      6 C6         2.1500   -2.5071    4.0603 C.2       1 RES1    0.0000
      7 C7         2.5201   -2.3122    5.4980 C.3       1 RES1    0.0000
      8 C8         2.7806   -0.8374    5.8129 C.3       1 RES1    0.0000
      9 C9         1.6982    0.1169    5.3323 C.3       1 RES1    0.0000
     10 C10        0.3436   -0.0465    6.0201 C.3       1 RES1    0.0000
     11 C11       -0.8256    0.4338    5.1541 C.3       1 RES1    0.0000
     12 C12       -0.1935    0.3206    2.0799 C.3       1 RES1    0.0000
     13 C13        1.3870   -2.6076    1.2098 C.3       1 RES1    0.0000
     14 C14       -0.0331   -4.4835    1.9846 C.3       1 RES1    0.0000
     15 O1         0.3738    0.7544    7.2589 O.3       1 RES1    0.0000
     16 C15        0.5828    0.0968    8.4024 C.2       1 RES1    0.0000
     17 O2         0.6504   -1.1014    8.5143 O.2       1 RES1    0.0000
     18 C16        0.7542    1.0247    9.5666 C.ar      1 RES1    0.0000
     19 C17        0.5688    0.4979   10.8428 C.ar      1 RES1    0.0000
     20 C18        0.8028    1.2686   11.9614 C.ar      1 RES1    0.0000
     21 C19        1.2406    2.5611   11.7750 C.ar      1 RES1    0.0000
     22 C20        1.4311    3.1168   10.5237 C.ar      1 RES1    0.0000
     23 C21        1.1611    2.3373    9.4051 C.ar      1 RES1    0.0000
     24 N1         1.5422    3.3633   12.9682 N.pl3     1 RES1    0.0000
     25 O3         2.2192    4.3754   12.8191 O.2       1 RES1    0.0000
     26 O4         1.1125    2.9836   14.0496 O.2       1 RES1    0.0000
     27 H1        -1.6188   -1.3956    4.5575 H         1 RES1    0.0000
     28 H2        -1.1405   -2.0117    1.3258 H         1 RES1    0.0000
     29 H3        -1.5967   -2.6278    2.6931 H         1 RES1    0.0000
     30 H4         0.3973   -3.2816    4.3504 H         1 RES1    0.0000
     31 H5         2.7887   -2.3009    3.3974 H         1 RES1    0.0000
     32 H6         3.3037   -2.8164    5.6762 H         1 RES1    0.0000
     33 H7         1.8174   -2.6278    6.0491 H         1 RES1    0.0000
     34 H8         3.5907   -0.5909    5.3862 H         1 RES1    0.0000
     35 H9         2.8549   -0.7418    6.7534 H         1 RES1    0.0000
     36 H10        1.5820   -0.0251    4.3918 H         1 RES1    0.0000
     37 H11        1.9940    1.0058    5.5105 H         1 RES1    0.0000
     38 H12        0.1987   -0.9681    6.1734 H         1 RES1    0.0000
     39 H13       -0.5886    1.2196    4.6818 H         1 RES1    0.0000
     40 H14       -1.5746    0.6161    5.7176 H         1 RES1    0.0000
     41 H15       -0.1692    1.1190    2.6102 H         1 RES1    0.0000
     42 H16        0.6843    0.0880    1.8230 H         1 RES1    0.0000
     43 H17       -0.7211    0.4652    1.3258 H         1 RES1    0.0000
     44 H18        1.6556   -1.7099    1.3673 H         1 RES1    0.0000
     45 H19        2.1338   -3.1810    1.2430 H         1 RES1    0.0000
     46 H20        0.9860   -2.6529    0.3315 H         1 RES1    0.0000
     47 H21       -0.6622   -4.7652    2.6516 H         1 RES1    0.0000
     48 H22       -0.4268   -4.5263    1.1187 H         1 RES1    0.0000
     49 H23        0.7211   -5.0418    2.0302 H         1 RES1    0.0000
     50 H24        0.2722   -0.4023   10.9380 H         1 RES1    0.0000
     51 H25        0.6622    0.9178   12.8439 H         1 RES1    0.0000
     52 H26        1.7438    4.0108   10.4409 H         1 RES1    0.0000
     53 H27        1.2509    2.7032    8.5350 H         1 RES1    0.0000
@<TRIPOS>BOND
     1    1    2 2
     2    2    3 1
     3    3    4 1
     4    4    5 1
     5    5    6 2
     6    6    7 1
     7    7    8 1
     8    8    9 1
     9    9   10 1
    10   10   11 1
    11   11    1 1
    12   12    2 1
    13   13    4 1
    14   14    4 1
    15   15   10 1
    16   16   15 1
    17   17   16 2
    18   18   16 1
    19   19   18 ar
    20   20   19 ar
    21   21   20 ar
    22   22   21 ar
    23   23   18 ar
    24   24   21 1
    25   25   24 2
    26   26   24 2
    27   27    1 1
    28   28    3 1
    29   29    3 1
    30   30    5 1
    31   31    6 1
    32   32    7 1
    33   33    7 1
    34   34    8 1
    35   35    8 1
    36   36    9 1
    37   37    9 1
    38   38   10 1
    39   39   11 1
    40   40   11 1
    41   41   12 1
    42   42   12 1
    43   43   12 1
    44   44   13 1
    45   45   13 1
    46   46   13 1
    47   47   14 1
    48   48   14 1
    49   49   14 1
    50   50   19 1
    51   51   20 1
    52   52   22 1
    53   53   23 1
    54   22   23 ar
@<TRIPOS>SUBSTRUCTURE
     1 RES1 1

@<TRIPOS>CRYSIN
   7.3580   12.5730   41.4320  90.0000  90.0000  90.0000  61 1

