# MOL2 file generated by ConQuest
# Please check atom types

@<TRIPOS>MOLECULE
VAMXUD
    33    34     1
SMALL
NO_CHARGES
****
Generated from CSD

@<TRIPOS>ATOM
      1 O1         4.3420    5.5847    8.3126 O.2       1 RES1    0.0000
      2 O2         0.4272    6.5653    6.2473 O.2       1 RES1    0.0000
      3 O3        -1.5519    3.0167    8.9172 O.2       1 RES1    0.0000
      4 N1         2.3615    6.1001    7.3184 N.am      1 RES1    0.0000
      5 N2         0.3940    4.9481    7.9684 N.am      1 RES1    0.0000
      6 N3        -0.7098    2.8522    9.8446 N.3       1 RES1    0.0000
      7 N4         1.2369    2.9882   10.9258 N.2       1 RES1    0.0000
      8 C1         1.1215    4.2803    8.8802 C.2       1 RES1    0.0000
      9 C2         2.4694    4.4938    8.9667 C.2       1 RES1    0.0000
     10 C3         3.1374    5.3956    8.2031 C.2       1 RES1    0.0000
     11 C4         1.0177    5.9179    7.1007 C.2       1 RES1    0.0000
     12 C5         0.5753    3.3622    9.8901 C.2       1 RES1    0.0000
     13 C6        -1.0227    2.2184   11.1632 C.3       1 RES1    0.0000
     14 C7         0.4076    2.0103   11.6994 C.3       1 RES1    0.0000
     15 C8        -1.8228    0.9466   10.9100 C.3       1 RES1    0.0000
     16 C9        -1.8184    3.2575   11.9284 C.3       1 RES1    0.0000
     17 C10        0.9969    0.6393   11.3794 C.3       1 RES1    0.0000
     18 C11        0.5818    2.2796   13.1887 C.3       1 RES1    0.0000
     19 H1         2.7530    6.7122    6.8561 H         1 RES1    0.0000
     20 H2        -0.4487    4.7958    7.9016 H         1 RES1    0.0000
     21 H3         2.9554    3.9933    9.5814 H         1 RES1    0.0000
     22 H4        -2.6877    1.1751   10.5615 H         1 RES1    0.0000
     23 H5        -1.9265    0.4638   11.7336 H         1 RES1    0.0000
     24 H6        -1.3584    0.3972   10.2741 H         1 RES1    0.0000
     25 H7        -2.6941    3.3377   11.5429 H         1 RES1    0.0000
     26 H8        -1.3696    4.1048   11.8815 H         1 RES1    0.0000
     27 H9        -1.8968    2.9868   12.8459 H         1 RES1    0.0000
     28 H10        1.8800    0.5767   11.7520 H         1 RES1    0.0000
     29 H11        1.0421    0.5250   10.4278 H         1 RES1    0.0000
     30 H12        0.4402   -0.0449   11.7577 H         1 RES1    0.0000
     31 H13        1.4981    2.1340   13.4348 H         1 RES1    0.0000
     32 H14        0.0173    1.6852   13.6894 H         1 RES1    0.0000
     33 H15        0.3378    3.1881   13.3807 H         1 RES1    0.0000
@<TRIPOS>BOND
     1    1   10 2
     2    2   11 2
     3    3    6 1
     4    4   10 1
     5    5    8 1
     6    6   12 1
     7    7   12 2
     8    8    9 2
     9    9   10 1
    10   11    4 1
    11   12    8 1
    12   13    6 1
    13   14    7 1
    14   15   13 1
    15   16   13 1
    16   17   14 1
    17   18   14 1
    18   19    4 1
    19   20    5 1
    20   21    9 1
    21   22   15 1
    22   23   15 1
    23   24   15 1
    24   25   16 1
    25   26   16 1
    26   27   16 1
    27   28   17 1
    28   29   17 1
    29   30   17 1
    30   31   18 1
    31   32   18 1
    32   33   18 1
    33    5   11 1
    34   13   14 1
@<TRIPOS>SUBSTRUCTURE
     1 RES1 1

@<TRIPOS>CRYSIN
  13.3744   13.6012   15.1086  90.0000 109.7010  90.0000  15 1

