# MOL2 file generated by ConQuest
# Please check atom types

@<TRIPOS>MOLECULE
VANCOD
    18    18     1
SMALL
NO_CHARGES
****
Generated from CSD

@<TRIPOS>ATOM
      1 N1         2.3835    4.4836    4.7617 N.am      1 RES1    0.0000
      2 C1         1.5861    5.1064    3.8310 C.2       1 RES1    0.0000
      3 O1         0.6897    5.8608    4.1841 O.2       1 RES1    0.0000
      4 N2         1.8262    4.8267    2.5063 N.am      1 RES1    0.0000
      5 C2         1.0052    5.4972    1.4927 C.3       1 RES1    0.0000
      6 C3         2.8005    3.9151    2.0713 C.2       1 RES1    0.0000
      7 O2         2.8768    3.6481    0.8811 O.2       1 RES1    0.0000
      8 C4         3.6664    3.3544    3.0927 C.2       1 RES1    0.0000
      9 N3         4.6731    2.5850    2.6214 N.2       1 RES1    0.0000
     10 O3         5.4681    2.0575    3.4613 O.2       1 RES1    0.0000
     11 C5         3.4186    3.6462    4.4692 C.2       1 RES1    0.0000
     12 N4         4.1220    3.1551    5.4558 N.3       1 RES1    0.0000
     13 H1         2.2128    4.6375    5.6118 H         1 RES1    0.0000
     14 H2         0.3909    6.1226    1.9312 H         1 RES1    0.0000
     15 H3         0.4908    4.8288    0.9944 H         1 RES1    0.0000
     16 H4         1.5863    5.9884    0.8747 H         1 RES1    0.0000
     17 H5         3.9230    3.3672    6.2862 H         1 RES1    0.0000
     18 H6         4.7947    2.6123    5.2895 H         1 RES1    0.0000
@<TRIPOS>BOND
     1    1    2 1
     2    2    3 2
     3    4    2 1
     4    5    4 1
     5    6    4 1
     6    7    6 2
     7    8    6 1
     8    9    8 1
     9   10    9 2
    10   11    1 1
    11   12   11 1
    12   13    1 1
    13   14    5 1
    14   15    5 1
    15   16    5 1
    16   17   12 1
    17   18   12 1
    18    8   11 2
@<TRIPOS>SUBSTRUCTURE
     1 RES1 1

@<TRIPOS>CRYSIN
   4.9634   11.1829   11.7960  90.0000 102.6650  90.0000  14 1

