# MOL2 file generated by ConQuest
# Please check atom types

@<TRIPOS>MOLECULE
VANCEV
    35    30     2
SMALL
NO_CHARGES
****
Generated from CSD

@<TRIPOS>ATOM
      1 C1         7.2057    5.2106    6.1751 C.ar      1 RES1    0.0000
      2 C2         5.9359    5.2106    6.8315 C.ar      1 RES1    0.0000
      3 C3         5.8862    5.2106    8.1996 C.ar      1 RES1    0.0000
      4 H1         5.0362    5.2106    8.6242 H         1 RES1    0.0000
      5 C4         7.0502    5.2106    9.0108 C.ar      1 RES1    0.0000
      6 C5         8.2466    5.2106    8.3540 C.ar      1 RES1    0.0000
      7 C6         8.3994    5.2106    6.9469 C.ar      1 RES1    0.0000
      8 C7         9.6595    5.2106    6.2990 C.ar      1 RES1    0.0000
      9 H2        10.4517    5.2106    6.8236 H         1 RES1    0.0000
     10 C8         9.7612    5.2106    4.9316 C.ar      1 RES1    0.0000
     11 C9         8.5692    5.2106    4.1776 C.ar      1 RES1    0.0000
     12 H3         8.6241    5.2106    3.2296 H         1 RES1    0.0000
     13 C10        7.3400    5.2106    4.7682 C.ar      1 RES1    0.0000
     14 H4         6.5613    5.2106    4.2246 H         1 RES1    0.0000
     15 C11        4.6666    5.2106    6.0215 C.3       1 RES1    0.0000
     16 C12        6.9221    5.2106   10.5279 C.3       1 RES1    0.0000
     17 H5         7.8450    5.2106   10.9115 H         1 RES1    0.0000
     18 C13        6.2155    3.9573   11.0202 C.3       1 RES1    0.0000
     19 H6         6.1506    3.9809   11.9976 H         1 RES1    0.0000
     20 H7         6.7243    3.1660   10.7460 H         1 RES1    0.0000
     21 H8         5.3152    3.9163   10.6346 H         1 RES1    0.0000
     22 C14       11.1011    5.2106    4.2445 C.3       1 RES1    0.0000
     23 N1         9.4959    5.2106    9.1377 N.pl3     1 RES1    0.0000
     24 O1         9.9898    6.2662    9.4386 O.2       1 RES1    0.0000
     25 H9         4.5675    6.0742    5.5684 Du        2 SUP2    0.0000
     26 H10        3.8998    5.0640    6.6150 Du        2 SUP2    0.0000
     27 H11        4.7055    4.4936    5.3538 Du        2 SUP2    0.0000
     28 H12       11.3592    4.2894    4.0340 Du        2 SUP2    0.0000
     29 H13       11.7715    5.6108    4.8360 Du        2 SUP2    0.0000
     30 H14       11.0442    5.7317    3.4166 Du        2 SUP2    0.0000
     31 C13F       6.2155    6.4640   11.0202 C.3       1 RES1    0.0000
     32 H6F        6.1506    6.4403   11.9976 H         1 RES1    0.0000
     33 H7F        6.7243    7.2553   10.7460 H         1 RES1    0.0000
     34 H8F        5.3152    6.5049   10.6346 H         1 RES1    0.0000
     35 O1F        9.9898    4.1551    9.4386 O.2       1 RES1    0.0000
@<TRIPOS>BOND
     1    1    2 ar
     2    2    3 ar
     3    3    4 1
     4    5    3 ar
     5    6    5 ar
     6    7    1 ar
     7    8    7 ar
     8    9    8 1
     9   10    8 ar
    10   11   10 ar
    11   12   11 1
    12   13    1 ar
    13   14   13 1
    14   15    2 1
    15   16    5 1
    16   17   16 1
    17   18   16 1
    18   19   18 1
    19   20   18 1
    20   21   18 1
    21   22   10 1
    22   23    6 1
    23   24   23 2
    24   31   16 1
    25   32   31 1
    26   33   31 1
    27   34   31 1
    28   35   23 2
    29    6    7 ar
    30   11   13 ar
@<TRIPOS>SUBSTRUCTURE
     1 RES1 1
     2 SUP2 25

@<TRIPOS>CRYSIN
  15.6744    6.9475   11.9880  90.0000  90.0000  90.0000  62 1

