# MOL2 file generated by ConQuest
# Please check atom types

@<TRIPOS>MOLECULE
VANDEV
    96    83     2
SMALL
NO_CHARGES
****
Generated from CSD

@<TRIPOS>ATOM
      1 O1         1.3620    1.5513    6.4655 O.2       1 RES1    0.0000
      2 O2         3.3122    2.4878    6.7083 O.2       1 RES1    0.0000
      3 N1         2.5805    1.6097    6.2148 N.pl3     1 RES1    0.0000
      4 N2         3.4562   -3.4751    1.2308 N.pl3     1 RES1    0.0000
      5 N3         5.6056   -3.8421    1.1360 N.pl3     1 RES1    0.0000
      6 C1         3.1559    0.6315    5.3495 C.ar      1 RES1    0.0000
      7 C2         4.4883    0.7701    4.9538 C.ar      1 RES1    0.0000
      8 H1         5.0055    1.5081    5.2540 H         1 RES1    0.0000
      9 C3         5.0358   -0.1692    4.1302 C.ar      1 RES1    0.0000
     10 H2         5.9476   -0.0741    3.8789 H         1 RES1    0.0000
     11 C4         4.3080   -1.2860    3.6277 C.ar      1 RES1    0.0000
     12 C5         5.0112   -2.1667    2.7709 C.2       1 RES1    0.0000
     13 H3         5.9536   -2.0998    2.8777 H         1 RES1    0.0000
     14 C6         4.6528   -3.1066    1.8092 C.2       1 RES1    0.0000
     15 C7         2.1491   -2.9081    1.4770 C.ar      1 RES1    0.0000
     16 C8         1.9166   -1.5761    1.1027 C.ar      1 RES1    0.0000
     17 C9         0.6585   -1.0567    1.3979 C.ar      1 RES1    0.0000
     18 H4         0.4650   -0.1527    1.1784 H         1 RES1    0.0000
     19 C10       -0.3143   -1.8285    2.0038 C.ar      1 RES1    0.0000
     20 H5        -1.1629   -1.4486    2.2044 H         1 RES1    0.0000
     21 C11       -0.0620   -3.1467    2.3199 C.ar      1 RES1    0.0000
     22 H6        -0.7498   -3.6710    2.7129 H         1 RES1    0.0000
     23 C12        1.1824   -3.7246    2.0736 C.ar      1 RES1    0.0000
     24 C13        1.4797   -5.1588    2.4900 C.3       1 RES1    0.0000
     25 H7         2.1099   -5.5156    1.8004 H         1 RES1    0.0000
     26 C14        0.3145   -6.0972    2.6527 C.3       1 RES1    0.0000
     27 H8        -0.2103   -5.8329    3.4377 H         1 RES1    0.0000
     28 H9         0.6451   -7.0118    2.7750 H         1 RES1    0.0000
     29 H10       -0.2504   -6.0588    1.8535 H         1 RES1    0.0000
     30 C15        2.3897   -5.2001    3.7442 C.3       1 RES1    0.0000
     31 H11        1.9050   -4.8288    4.5115 H         1 RES1    0.0000
     32 H12        3.1972   -4.6696    3.5795 H         1 RES1    0.0000
     33 H13        2.6407   -6.1283    3.9339 H         1 RES1    0.0000
     34 C16        2.9617   -0.7448    0.3744 C.3       1 RES1    0.0000
     35 H14        3.8588   -1.0627    0.6822 H         1 RES1    0.0000
     36 C17        2.8833   -1.0018   -1.1334 C.3       1 RES1    0.0000
     37 H15        3.0370   -1.9535   -1.3113 H         1 RES1    0.0000
     38 H16        3.5664   -0.4701   -1.5913 H         1 RES1    0.0000
     39 H17        1.9953   -0.7463   -1.4619 H         1 RES1    0.0000
     40 C18        2.8811    0.7522    0.6835 C.3       1 RES1    0.0000
     41 H18        2.0379    1.1121    0.3385 H         1 RES1    0.0000
     42 H19        3.6326    1.2145    0.2569 H         1 RES1    0.0000
     43 H20        2.9224    0.8880    1.6533 H         1 RES1    0.0000
     44 C19        3.6896   -4.4165    0.2275 C.2       1 RES1    0.0000
     45 H21        3.0285   -4.8306   -0.3154 H         1 RES1    0.0000
     46 C20        5.0031   -4.6320    0.1664 C.2       1 RES1    0.0000
     47 H22        5.4474   -5.2202   -0.4324 H         1 RES1    0.0000
     48 C21        7.0283   -3.6016    1.2096 C.ar      1 RES1    0.0000
     49 C22        7.5683   -2.6138    0.3819 C.ar      1 RES1    0.0000
     50 C23        8.9501   -2.4265    0.4389 C.ar      1 RES1    0.0000
     51 H23        9.3555   -1.7669   -0.1116 H         1 RES1    0.0000
     52 C24        9.7395   -3.1835    1.2833 C.ar      1 RES1    0.0000
     53 H24       10.6806   -3.0518    1.2936 H         1 RES1    0.0000
     54 C25        9.1690   -4.1323    2.1145 C.ar      1 RES1    0.0000
     55 H25        9.7226   -4.6367    2.6988 H         1 RES1    0.0000
     56 C26        7.7918   -4.3589    2.1073 C.ar      1 RES1    0.0000
     57 C27        7.1499   -5.3835    3.0287 C.3       1 RES1    0.0000
     58 H26        6.1688   -5.1928    3.0301 H         1 RES1    0.0000
     59 C28        7.8167   -5.5192    4.3457 C.3       1 RES1    0.0000
     60 H27        8.7096   -5.9043    4.2209 H         1 RES1    0.0000
     61 H28        7.2848   -6.1082    4.9209 H         1 RES1    0.0000
     62 H29        7.8965   -4.6376    4.7649 H         1 RES1    0.0000
     63 C29        7.0824   -6.7191    2.2664 C.3       1 RES1    0.0000
     64 H30        7.9898   -7.0529    2.1105 H         1 RES1    0.0000
     65 H31        6.6327   -6.5829    1.4070 H         1 RES1    0.0000
     66 H32        6.5808   -7.3739    2.7980 H         1 RES1    0.0000
     67 C30        6.7140   -1.7376   -0.5227 C.3       1 RES1    0.0000
     68 H33        5.7677   -2.0458   -0.4288 H         1 RES1    0.0000
     69 C31        7.0910   -1.8757   -1.9838 C.3       1 RES1    0.0000
     70 H34        8.0170   -1.5794   -2.1122 H         1 RES1    0.0000
     71 H35        6.4933   -1.3243   -2.5287 H         1 RES1    0.0000
     72 H36        7.0075   -2.8140   -2.2558 H         1 RES1    0.0000
     73 C32        6.7652   -0.2787   -0.0707 C.3       1 RES1    0.0000
     74 H37        6.4927   -0.2177    0.8683 H         1 RES1    0.0000
     75 H38        6.1564    0.2561   -0.6220 H         1 RES1    0.0000
     76 H39        7.6797    0.0613   -0.1683 H         1 RES1    0.0000
     77 C33        2.9656   -1.3989    4.0914 C.ar      1 RES1    0.0000
     78 H40        2.4434   -2.1455    3.8204 H         1 RES1    0.0000
     79 C34        2.4086   -0.4603    4.9164 C.ar      1 RES1    0.0000
     80 H41        1.5050   -0.5542    5.1955 H         1 RES1    0.0000
     81 C35        0.2636   -6.0268    2.0662 Du        2 SUP2    0.0000
     82 H42        0.4540   -6.9715    2.2558 Du        2 SUP2    0.0000
     83 H43        0.1012   -5.9162    1.1057 Du        2 SUP2    0.0000
     84 H44       -0.5287   -5.7479    2.5659 Du        2 SUP2    0.0000
     85 C36        1.4689   -5.1891    4.0313 Du        2 SUP2    0.0000
     86 H45        0.7201   -4.6504    4.3627 Du        2 SUP2    0.0000
     87 H46        2.3104   -4.8215    4.3715 Du        2 SUP2    0.0000
     88 H47        1.3672   -6.1137    4.3396 Du        2 SUP2    0.0000
     89 C37        7.0762   -4.7757    4.5098 Du        2 SUP2    0.0000
     90 H48        6.6532   -5.4251    5.1087 Du        2 SUP2    0.0000
     91 H49        6.5512   -3.9499    4.4974 Du        2 SUP2    0.0000
     92 H50        7.9827   -4.5809    4.8269 Du        2 SUP2    0.0000
     93 C38        7.9015   -6.7264    3.1630 Du        2 SUP2    0.0000
     94 H51        8.8141   -6.5600    3.4784 Du        2 SUP2    0.0000
     95 H52        7.9346   -7.1709    2.2894 Du        2 SUP2    0.0000
     96 H53        7.4322   -7.3008    3.8027 Du        2 SUP2    0.0000
@<TRIPOS>BOND
     1    1    3 2
     2    2    3 2
     3    3    6 1
     4    4   14 1
     5    5   14 1
     6    6    7 ar
     7    7    8 1
     8    9    7 ar
     9   10    9 1
    10   11    9 ar
    11   12   11 1
    12   13   12 1
    13   14   12 2
    14   15    4 1
    15   16   15 ar
    16   17   16 ar
    17   18   17 1
    18   19   17 ar
    19   20   19 1
    20   21   19 ar
    21   22   21 1
    22   23   15 ar
    23   24   23 1
    24   25   24 1
    25   26   24 1
    26   27   26 1
    27   28   26 1
    28   29   26 1
    29   30   24 1
    30   31   30 1
    31   32   30 1
    32   33   30 1
    33   34   16 1
    34   35   34 1
    35   36   34 1
    36   37   36 1
    37   38   36 1
    38   39   36 1
    39   40   34 1
    40   41   40 1
    41   42   40 1
    42   43   40 1
    43   44    4 1
    44   45   44 1
    45   46    5 1
    46   47   46 1
    47   48    5 1
    48   49   48 ar
    49   50   49 ar
    50   51   50 1
    51   52   50 ar
    52   53   52 1
    53   54   52 ar
    54   55   54 1
    55   56   48 ar
    56   57   56 1
    57   58   57 1
    58   59   57 1
    59   60   59 1
    60   61   59 1
    61   62   59 1
    62   63   57 1
    63   64   63 1
    64   65   63 1
    65   66   63 1
    66   67   49 1
    67   68   67 1
    68   69   67 1
    69   70   69 1
    70   71   69 1
    71   72   69 1
    72   73   67 1
    73   74   73 1
    74   75   73 1
    75   76   73 1
    76   77   11 ar
    77   78   77 1
    78   79    6 ar
    79   80   79 1
    80   21   23 ar
    81   44   46 2
    82   54   56 ar
    83   77   79 ar
@<TRIPOS>SUBSTRUCTURE
     1 RES1 1
     2 SUP2 81

@<TRIPOS>CRYSIN
  18.7758    9.1454   18.1216  90.0000 102.0840  90.0000  14 1

