# MOL2 file generated by ConQuest
# Please check atom types

@<TRIPOS>MOLECULE
VANKEA
    84    89     1
SMALL
NO_CHARGES
****
Generated from CSD

@<TRIPOS>ATOM
      1 O1         6.4246    2.1745   10.0175 O.3       1 RES1    0.0000
      2 N1         6.0153    0.8817    9.4723 N.3       1 RES1    0.0000
      3 C1         4.6532    1.1059    8.9452 C.3       1 RES1    0.0000
      4 C2         4.5647    1.5001    7.4429 C.3       1 RES1    0.0000
      5 C3         3.8853    0.3493    6.6621 C.2       1 RES1    0.0000
      6 O2         4.0416   -0.7865    7.0291 O.2       1 RES1    0.0000
      7 C4         6.1538   -0.1663   10.5212 C.3       1 RES1    0.0000
      8 C5         5.9855   -1.5020    9.8088 C.3       1 RES1    0.0000
      9 C6         7.6028   -0.0542   11.0322 C.3       1 RES1    0.0000
     10 C7         5.2167   -0.0579   11.6942 C.3       1 RES1    0.0000
     11 C8         5.8759    1.7672    6.7107 C.ar      1 RES1    0.0000
     12 C9         6.1345    2.9908    6.1476 C.ar      1 RES1    0.0000
     13 C10        7.2959    3.2094    5.4279 C.ar      1 RES1    0.0000
     14 C11        8.2007    2.2044    5.2660 C.ar      1 RES1    0.0000
     15 C12        7.9558    0.9714    5.8057 C.ar      1 RES1    0.0000
     16 C13        6.7999    0.7547    6.5380 C.ar      1 RES1    0.0000
     17 C14        3.0715    0.6183    5.4027 C.ar      1 RES1    0.0000
     18 C15        2.3452   -0.4390    4.9008 C.ar      1 RES1    0.0000
     19 C16        1.5714   -0.2727    3.7476 C.ar      1 RES1    0.0000
     20 C17        1.5734    0.9247    3.0981 C.ar      1 RES1    0.0000
     21 C18        2.2869    1.9708    3.5712 C.ar      1 RES1    0.0000
     22 C19        3.0527    1.8307    4.7443 C.ar      1 RES1    0.0000
     23 O3         3.7622    2.6807    7.4249 O.3       1 RES1    0.0000
     24 N2         3.2427    3.0375    8.7311 N.3       1 RES1    0.0000
     25 C20        4.0620    2.2978    9.6792 C.3       1 RES1    0.0000
     26 C21        5.3226    3.0562   10.2352 C.3       1 RES1    0.0000
     27 C22        5.1361    3.3103   11.7266 C.2       1 RES1    0.0000
     28 O4         4.0439    3.4990   12.1980 O.2       1 RES1    0.0000
     29 C23        1.7627    2.7685    8.7833 C.3       1 RES1    0.0000
     30 C24        1.1626    3.5587    7.6103 C.3       1 RES1    0.0000
     31 C25        1.3673    1.3226    8.6861 C.3       1 RES1    0.0000
     32 C26        1.2805    3.3887   10.0822 C.3       1 RES1    0.0000
     33 C27        5.6251    4.3863    9.5605 C.ar      1 RES1    0.0000
     34 C28        4.7431    5.4549    9.6720 C.ar      1 RES1    0.0000
     35 C29        5.0539    6.6579    9.0675 C.ar      1 RES1    0.0000
     36 C30        6.2157    6.8186    8.3821 C.ar      1 RES1    0.0000
     37 C31        7.1022    5.7930    8.2849 C.ar      1 RES1    0.0000
     38 C32        6.8026    4.5619    8.8480 C.ar      1 RES1    0.0000
     39 C33        6.3479    3.3364   12.6694 C.ar      1 RES1    0.0000
     40 C34        6.1388    2.9759   13.9809 C.ar      1 RES1    0.0000
     41 C35        7.2412    2.9572   14.8661 C.ar      1 RES1    0.0000
     42 C36        8.4851    3.3215   14.4343 C.ar      1 RES1    0.0000
     43 C37        8.6901    3.6764   13.1353 C.ar      1 RES1    0.0000
     44 C38        7.5993    3.6783   12.2430 C.ar      1 RES1    0.0000
     45 H1         4.2082    0.2746    9.0639 H         1 RES1    0.0000
     46 H2         5.5078    3.6988    6.2537 H         1 RES1    0.0000
     47 H3         7.4636    4.0631    5.0465 H         1 RES1    0.0000
     48 H4         9.0017    2.3594    4.7802 H         1 RES1    0.0000
     49 H5         8.5772    0.2634    5.6780 H         1 RES1    0.0000
     50 H6         6.6407   -0.0990    6.9248 H         1 RES1    0.0000
     51 H7         2.3698   -1.2815    5.3380 H         1 RES1    0.0000
     52 H8         1.0448   -0.9920    3.4201 H         1 RES1    0.0000
     53 H9         1.0676    1.0256    2.3011 H         1 RES1    0.0000
     54 H10        2.2713    2.8022    3.1107 H         1 RES1    0.0000
     55 H11        3.5525    2.5649    5.0807 H         1 RES1    0.0000
     56 H12        6.0657   -2.2100   10.4385 H         1 RES1    0.0000
     57 H13        6.6564   -1.5935    9.1431 H         1 RES1    0.0000
     58 H14        5.1280   -1.5374    9.4004 H         1 RES1    0.0000
     59 H15        7.7507   -0.7043   11.7086 H         1 RES1    0.0000
     60 H16        7.7459    0.8126   11.3902 H         1 RES1    0.0000
     61 H17        8.2042   -0.2036   10.3125 H         1 RES1    0.0000
     62 H18        4.3192   -0.1270   11.3884 H         1 RES1    0.0000
     63 H19        5.3424    0.7790   12.1224 H         1 RES1    0.0000
     64 H20        5.3962   -0.7603   12.3077 H         1 RES1    0.0000
     65 H21        0.2220    3.4280    7.5887 H         1 RES1    0.0000
     66 H22        1.5429    3.2505    6.7953 H         1 RES1    0.0000
     67 H23        1.3531    4.4816    7.7200 H         1 RES1    0.0000
     68 H24        1.7419    0.8425    9.4148 H         1 RES1    0.0000
     69 H25        1.6904    0.9602    7.8693 H         1 RES1    0.0000
     70 H26        0.4202    1.2516    8.7113 H         1 RES1    0.0000
     71 H27        0.3456    3.2486   10.1704 H         1 RES1    0.0000
     72 H28        1.4635    4.3209   10.0750 H         1 RES1    0.0000
     73 H29        1.7323    2.9834   10.8127 H         1 RES1    0.0000
     74 H30        3.4777    2.1072   10.4043 H         1 RES1    0.0000
     75 H31        3.9325    5.3577   10.1596 H         1 RES1    0.0000
     76 H32        4.4460    7.3846    9.1341 H         1 RES1    0.0000
     77 H33        6.4097    7.6517    7.9701 H         1 RES1    0.0000
     78 H34        7.9274    5.9200    7.8333 H         1 RES1    0.0000
     79 H35        7.4063    3.8352    8.7455 H         1 RES1    0.0000
     80 H36        5.2696    2.7442   14.2868 H         1 RES1    0.0000
     81 H37        7.1156    2.6882   15.7692 H         1 RES1    0.0000
     82 H38        9.2123    3.3252   15.0460 H         1 RES1    0.0000
     83 H39        9.5574    3.9211   12.8367 H         1 RES1    0.0000
     84 H40        7.7355    3.9193   11.3344 H         1 RES1    0.0000
@<TRIPOS>BOND
     1    1    2 1
     2    2    3 1
     3    3    4 1
     4    4    5 1
     5    5    6 2
     6    7    2 1
     7    8    7 1
     8    9    7 1
     9   10    7 1
    10   11    4 1
    11   12   11 ar
    12   13   12 ar
    13   14   13 ar
    14   15   14 ar
    15   16   11 ar
    16   17    5 1
    17   18   17 ar
    18   19   18 ar
    19   20   19 ar
    20   21   20 ar
    21   22   17 ar
    22   23    4 1
    23   24   23 1
    24   25    3 1
    25   26    1 1
    26   27   26 1
    27   28   27 2
    28   29   24 1
    29   30   29 1
    30   31   29 1
    31   32   29 1
    32   33   26 1
    33   34   33 ar
    34   35   34 ar
    35   36   35 ar
    36   37   36 ar
    37   38   33 ar
    38   39   27 1
    39   40   39 ar
    40   41   40 ar
    41   42   41 ar
    42   43   42 ar
    43   44   39 ar
    44   45    3 1
    45   46   12 1
    46   47   13 1
    47   48   14 1
    48   49   15 1
    49   50   16 1
    50   51   18 1
    51   52   19 1
    52   53   20 1
    53   54   21 1
    54   55   22 1
    55   56    8 1
    56   57    8 1
    57   58    8 1
    58   59    9 1
    59   60    9 1
    60   61    9 1
    61   62   10 1
    62   63   10 1
    63   64   10 1
    64   65   30 1
    65   66   30 1
    66   67   30 1
    67   68   31 1
    68   69   31 1
    69   70   31 1
    70   71   32 1
    71   72   32 1
    72   73   32 1
    73   74   25 1
    74   75   34 1
    75   76   35 1
    76   77   36 1
    77   78   37 1
    78   79   38 1
    79   80   40 1
    80   81   41 1
    81   82   42 1
    82   83   43 1
    83   84   44 1
    84   15   16 ar
    85   21   22 ar
    86   24   25 1
    87   25   26 1
    88   37   38 ar
    89   43   44 ar
@<TRIPOS>SUBSTRUCTURE
     1 RES1 1

@<TRIPOS>CRYSIN
   9.5240   18.6810   17.9940  90.0000  91.0200  90.0000   9 1

