# MOL2 file generated by ConQuest
# Please check atom types

@<TRIPOS>MOLECULE
VANKAW
    80    87     1
SMALL
NO_CHARGES
****
Generated from CSD

@<TRIPOS>ATOM
      1 O1         9.6584   -1.0093    7.4184 O.3       1 RES1    0.0000
      2 N1         8.7796    0.0358    7.8770 N.3       1 RES1    0.0000
      3 C1         9.5783    0.9266    8.7186 C.3       1 RES1    0.0000
      4 C2         9.3437    0.7251   10.2300 C.3       1 RES1    0.0000
      5 C3         9.5334    2.0660   10.9714 C.2       1 RES1    0.0000
      6 O2         9.4378    3.1044   10.3449 O.2       1 RES1    0.0000
      7 C4         8.0034    0.6289    6.8390 C.ar      1 RES1    0.0000
      8 C5         7.3336    1.8139    7.0894 C.ar      1 RES1    0.0000
      9 C6         6.5435    2.3948    6.1133 C.ar      1 RES1    0.0000
     10 C7         6.4092    1.7904    4.8798 C.ar      1 RES1    0.0000
     11 C8         7.0279    0.6006    4.6520 C.ar      1 RES1    0.0000
     12 C9         7.8118   -0.0047    5.6193 C.ar      1 RES1    0.0000
     13 C10        7.9816    0.1416   10.5590 C.ar      1 RES1    0.0000
     14 C11        6.8835    0.9736   10.6562 C.ar      1 RES1    0.0000
     15 C12        5.6289    0.4604   10.9390 C.ar      1 RES1    0.0000
     16 C13        5.4622   -0.8818   11.1148 C.ar      1 RES1    0.0000
     17 C14        6.5444   -1.7298   11.0078 C.ar      1 RES1    0.0000
     18 C15        7.8010   -1.2207   10.7269 C.ar      1 RES1    0.0000
     19 C16        9.7913    2.1123   12.4416 C.ar      1 RES1    0.0000
     20 C17        9.4924    1.0595   13.2920 C.ar      1 RES1    0.0000
     21 C18        9.7414    1.2024   14.6620 C.ar      1 RES1    0.0000
     22 C19       10.2660    2.3686   15.1393 C.ar      1 RES1    0.0000
     23 C20       10.5650    3.3980   14.3104 C.ar      1 RES1    0.0000
     24 C21       10.3246    3.2819   12.9571 C.ar      1 RES1    0.0000
     25 O3        10.3526   -0.2257   10.6218 O.3       1 RES1    0.0000
     26 N2        11.4920   -0.0563    9.7586 N.3       1 RES1    0.0000
     27 C22       11.0445    0.5416    8.5085 C.3       1 RES1    0.0000
     28 C23       10.9905   -0.4326    7.3192 C.3       1 RES1    0.0000
     29 C24       11.1027    0.3415    5.9797 C.2       1 RES1    0.0000
     30 O4        11.3472    1.5275    6.0150 O.2       1 RES1    0.0000
     31 C25       12.6199    0.5020   10.4195 C.ar      1 RES1    0.0000
     32 C26       12.6935    0.6268   11.7905 C.ar      1 RES1    0.0000
     33 C27       13.8586    1.1388   12.3679 C.ar      1 RES1    0.0000
     34 C28       14.9315    1.4830   11.6058 C.ar      1 RES1    0.0000
     35 C29       14.8612    1.3113   10.2634 C.ar      1 RES1    0.0000
     36 C30       13.7187    0.8334    9.6604 C.ar      1 RES1    0.0000
     37 C31       12.0200   -1.5346    7.4174 C.ar      1 RES1    0.0000
     38 C32       11.8026   -2.6402    8.2168 C.ar      1 RES1    0.0000
     39 C33       12.7893   -3.5947    8.3631 C.ar      1 RES1    0.0000
     40 C34       13.9919   -3.4560    7.7268 C.ar      1 RES1    0.0000
     41 C35       14.2153   -2.3629    6.9333 C.ar      1 RES1    0.0000
     42 C36       13.2429   -1.4067    6.7742 C.ar      1 RES1    0.0000
     43 C37       10.8877   -0.3526    4.6804 C.ar      1 RES1    0.0000
     44 C38       10.9829    0.4288    3.5334 C.ar      1 RES1    0.0000
     45 C39       10.7523   -0.1311    2.3019 C.ar      1 RES1    0.0000
     46 C40       10.4269   -1.4520    2.1900 C.ar      1 RES1    0.0000
     47 C41       10.3278   -2.2427    3.3174 C.ar      1 RES1    0.0000
     48 C42       10.5784   -1.6948    4.5646 C.ar      1 RES1    0.0000
     49 H1         9.4154    1.8928    8.5045 H         1 RES1    0.0000
     50 H2         7.4064    2.2812    7.9841 H         1 RES1    0.0000
     51 H3         6.0858    3.2929    6.3440 H         1 RES1    0.0000
     52 H4         5.9068    2.2277    4.2523 H         1 RES1    0.0000
     53 H5         6.9500    0.1449    3.7809 H         1 RES1    0.0000
     54 H6         8.2540   -0.8584    5.4700 H         1 RES1    0.0000
     55 H7         7.0091    1.9651   10.5472 H         1 RES1    0.0000
     56 H8         4.8827    1.0614   11.0088 H         1 RES1    0.0000
     57 H9         4.5599   -1.2436   11.3230 H         1 RES1    0.0000
     58 H10        6.4407   -2.6800   11.1364 H         1 RES1    0.0000
     59 H11        8.5797   -1.8527   10.6159 H         1 RES1    0.0000
     60 H12        9.1550    0.1560   12.9532 H         1 RES1    0.0000
     61 H13        9.5058    0.4190   15.1825 H         1 RES1    0.0000
     62 H14       10.3838    2.5294   16.0958 H         1 RES1    0.0000
     63 H15       10.9551    4.1976   14.6325 H         1 RES1    0.0000
     64 H16       10.5009    3.9741   12.3149 H         1 RES1    0.0000
     65 H17       11.9126    0.3734   12.3345 H         1 RES1    0.0000
     66 H18       13.8325    1.1991   13.2969 H         1 RES1    0.0000
     67 H19       15.7423    1.8594   12.0596 H         1 RES1    0.0000
     68 H20       15.6318    1.5327    9.6928 H         1 RES1    0.0000
     69 H21       13.6791    0.6450    8.7009 H         1 RES1    0.0000
     70 H22       11.5822    1.3260    8.2688 H         1 RES1    0.0000
     71 H23       10.9156   -2.7242    8.7009 H         1 RES1    0.0000
     72 H24       12.5681   -4.3226    8.9563 H         1 RES1    0.0000
     73 H25       14.6657   -4.0942    7.8858 H         1 RES1    0.0000
     74 H26       15.0556   -2.1813    6.5503 H         1 RES1    0.0000
     75 H27       13.4106   -0.5257    6.2262 H         1 RES1    0.0000
     76 H28       11.2209    1.4095    3.6827 H         1 RES1    0.0000
     77 H29       10.7910    0.4066    1.5811 H         1 RES1    0.0000
     78 H30       10.2471   -1.8567    1.3454 H         1 RES1    0.0000
     79 H31       10.0477   -3.2278    3.2997 H         1 RES1    0.0000
     80 H32       10.4724   -2.2776    5.3423 H         1 RES1    0.0000
@<TRIPOS>BOND
     1    1    2 1
     2    2    3 1
     3    3    4 1
     4    4    5 1
     5    5    6 2
     6    7    2 1
     7    8    7 ar
     8    9    8 ar
     9   10    9 ar
    10   11   10 ar
    11   12    7 ar
    12   13    4 1
    13   14   13 ar
    14   15   14 ar
    15   16   15 ar
    16   17   16 ar
    17   18   13 ar
    18   19    5 1
    19   20   19 ar
    20   21   20 ar
    21   22   21 ar
    22   23   22 ar
    23   24   19 ar
    24   25    4 1
    25   26   25 1
    26   27    3 1
    27   28    1 1
    28   29   28 1
    29   30   29 2
    30   31   26 1
    31   32   31 ar
    32   33   32 ar
    33   34   33 ar
    34   35   34 ar
    35   36   31 ar
    36   37   28 1
    37   38   37 ar
    38   39   38 ar
    39   40   39 ar
    40   41   40 ar
    41   42   37 ar
    42   43   29 1
    43   44   43 ar
    44   45   44 ar
    45   46   45 ar
    46   47   46 ar
    47   48   43 ar
    48   49    3 1
    49   50    8 1
    50   51    9 1
    51   52   10 1
    52   53   11 1
    53   54   12 1
    54   55   14 1
    55   56   15 1
    56   57   16 1
    57   58   17 1
    58   59   18 1
    59   60   20 1
    60   61   21 1
    61   62   22 1
    62   63   23 1
    63   64   24 1
    64   65   32 1
    65   66   33 1
    66   67   34 1
    67   68   35 1
    68   69   36 1
    69   70   27 1
    70   71   38 1
    71   72   39 1
    72   73   40 1
    73   74   41 1
    74   75   42 1
    75   76   44 1
    76   77   45 1
    77   78   46 1
    78   79   47 1
    79   80   48 1
    80   11   12 ar
    81   17   18 ar
    82   23   24 ar
    83   26   27 1
    84   27   28 1
    85   35   36 ar
    86   41   42 ar
    87   47   48 ar
@<TRIPOS>SUBSTRUCTURE
     1 RES1 1

@<TRIPOS>CRYSIN
  14.2320   11.9910   10.2930 107.3800  88.7500  98.3700   2 1

