# MOL2 file generated by ConQuest
# Please check atom types

@<TRIPOS>MOLECULE
VAPKIG01
    27    28     1
SMALL
NO_CHARGES
****
Generated from CSD

@<TRIPOS>ATOM
      1 C1        20.7770    2.7359   -5.4887 C.3       1 RES1    0.0000
      2 C2        19.3275    3.0263   -4.9924 C.ar      1 RES1    0.0000
      3 C3        18.4346    2.0089   -4.6279 C.ar      1 RES1    0.0000
      4 C4        17.2058    2.2992   -4.1205 C.ar      1 RES1    0.0000
      5 C5        16.7751    3.6023   -4.0314 C.ar      1 RES1    0.0000
      6 C6        17.6092    4.6126   -4.4192 C.ar      1 RES1    0.0000
      7 C7        18.8758    4.3105   -4.9210 C.ar      1 RES1    0.0000
      8 N1        15.4613    3.8147   -3.5250 N.am      1 RES1    0.0000
      9 C8        14.9134    4.9856   -3.2207 C.2       1 RES1    0.0000
     10 O1        15.3168    6.0974   -3.3172 O.2       1 RES1    0.0000
     11 O2        13.6580    4.6929   -2.7114 O.3       1 RES1    0.0000
     12 C9        12.9351    5.7882   -2.1855 C.3       1 RES1    0.0000
     13 C10       11.7059    5.1933   -1.6168 C.1       1 RES1    0.0000
     14 C11       10.7468    4.6551   -1.1920 C.1       1 RES1    0.0000
     15 C12        9.5882    4.0886   -0.6827 C.1       1 RES1    0.0000
     16 C13        8.5681    3.6731   -0.2690 C.1       1 RES1    0.0000
     17 C14        7.2313    3.2860    0.2171 C.3       1 RES1    0.0000
     18 O3         7.2046    1.8908    0.3822 O.3       1 RES1    0.0000
     19 C15        6.0546    1.3432    0.8618 C.ar      1 RES1    0.0000
     20 C16        6.0587    0.0283    0.9378 C.ar      1 RES1    0.0000
     21 C17        4.9614   -0.6822    1.4397 C.ar      1 RES1    0.0000
     22 C18        3.8627    0.0519    1.8525 C.ar      1 RES1    0.0000
     23 C19        3.8522    1.4069    1.7727 C.ar      1 RES1    0.0000
     24 C20        4.9542    2.0820    1.2783 C.ar      1 RES1    0.0000
     25 N2         2.6976   -0.6539    2.3831 N.pl3     1 RES1    0.0000
     26 O4         2.7827   -1.8602    2.5574 O.2       1 RES1    0.0000
     27 O5         1.6965   -0.0212    2.6131 O.2       1 RES1    0.0000
@<TRIPOS>BOND
     1    1    2 1
     2    2    3 ar
     3    3    4 ar
     4    4    5 ar
     5    5    6 ar
     6    6    7 ar
     7    7    2 ar
     8    8    5 1
     9    9    8 1
    10   10    9 2
    11   11    9 1
    12   12   11 1
    13   13   12 1
    14   14   13 3
    15   15   14 1
    16   16   15 3
    17   17   16 1
    18   18   17 1
    19   19   18 1
    20   20   19 ar
    21   21   20 ar
    22   22   21 ar
    23   23   22 ar
    24   24   19 ar
    25   25   22 1
    26   26   25 2
    27   27   25 2
    28   23   24 ar
@<TRIPOS>SUBSTRUCTURE
     1 RES1 1

@<TRIPOS>CRYSIN
  16.1240   23.6060   10.1900  90.0000 114.4500  90.0000  15 1

