# MOL2 file generated by ConQuest
# Please check atom types

@<TRIPOS>MOLECULE
VAPKIG
    27    28     1
SMALL
NO_CHARGES
****
Generated from CSD

@<TRIPOS>ATOM
      1 O1         4.0455   11.3122    0.7649 O.2       1 RES1    0.0000
      2 O2         3.7039    9.5797    2.1658 O.3       1 RES1    0.0000
      3 O3        -1.9257    4.5516    4.5435 O.3       1 RES1    0.0000
      4 O4        -6.9263    5.0674    0.7926 O.2       1 RES1    0.0000
      5 O5        -6.1886    3.0928    0.2488 O.2       1 RES1    0.0000
      6 N1         5.6218    9.6821    1.0921 N.am      1 RES1    0.0000
      7 N2        -6.1343    4.1185    0.9032 N.pl3     1 RES1    0.0000
      8 C1         9.8226   11.0188   -2.5436 C.3       1 RES1    0.0000
      9 C2         8.6889   10.6546   -1.5990 C.ar      1 RES1    0.0000
     10 C3         8.5336    9.3612   -1.1151 C.ar      1 RES1    0.0000
     11 C4         7.5087    9.0619   -0.2258 C.ar      1 RES1    0.0000
     12 C5         6.6312   10.0699    0.1613 C.ar      1 RES1    0.0000
     13 C6         6.7865   11.3555   -0.2949 C.ar      1 RES1    0.0000
     14 C7         7.8115   11.6370   -1.2027 C.ar      1 RES1    0.0000
     15 C8         4.4338   10.3140    1.2764 C.2       1 RES1    0.0000
     16 C9         2.4071   10.1526    2.4653 C.3       1 RES1    0.0000
     17 C10        1.5607    9.0974    3.0505 C.1       1 RES1    0.0000
     18 C11        0.8153    8.3059    3.4975 C.1       1 RES1    0.0000
     19 C12       -0.0466    7.4240    4.0596 C.1       1 RES1    0.0000
     20 C13       -0.7998    6.6798    4.5896 C.1       1 RES1    0.0000
     21 C14       -1.6462    5.7329    5.2992 C.3       1 RES1    0.0000
     22 C15       -2.9895    4.5418    3.6772 C.ar      1 RES1    0.0000
     23 C16       -3.1758    3.3350    3.0090 C.ar      1 RES1    0.0000
     24 C17       -4.1930    3.1952    2.0828 C.ar      1 RES1    0.0000
     25 C18       -5.0472    4.2740    1.8893 C.ar      1 RES1    0.0000
     26 C19       -4.8841    5.4690    2.5528 C.ar      1 RES1    0.0000
     27 C20       -3.8514    5.6305    3.4652 C.ar      1 RES1    0.0000
@<TRIPOS>BOND
     1    1   15 2
     2    2   15 1
     3    3   21 1
     4    4    7 2
     5    5    7 2
     6    6   12 1
     7    7   25 1
     8    8    9 1
     9    9   10 ar
    10   10   11 ar
    11   11   12 ar
    12   12   13 ar
    13   13   14 ar
    14   14    9 ar
    15   15    6 1
    16   16    2 1
    17   17   16 1
    18   18   17 3
    19   19   18 1
    20   20   19 3
    21   21   20 1
    22   22    3 1
    23   23   22 ar
    24   24   23 ar
    25   25   24 ar
    26   26   25 ar
    27   27   22 ar
    28   26   27 ar
@<TRIPOS>SUBSTRUCTURE
     1 RES1 1

@<TRIPOS>CRYSIN
  77.6490   19.6870    4.6080  90.0000  90.0000  90.0000  43 1

