# MOL2 file generated by ConQuest
# Please check atom types

@<TRIPOS>MOLECULE
VAQHOL
    42    43     1
SMALL
NO_CHARGES
****
Generated from CSD

@<TRIPOS>ATOM
      1 O1         0.1362    8.3759    6.2487 O.3       1 RES1    0.0000
      2 C1         0.4052    9.6674    6.6671 C.2       1 RES1    0.0000
      3 C2         0.7597    9.9138    7.9404 C.2       1 RES1    0.0000
      4 C3         0.7820    8.8115    8.9779 C.3       1 RES1    0.0000
      5 H1         1.5826    8.9327    9.5649 H         1 RES1    0.0000
      6 C4         0.8630    7.4586    8.3079 C.2       1 RES1    0.0000
      7 C5         0.5047    7.2914    7.0301 C.2       1 RES1    0.0000
      8 C6         0.2308   10.6010    5.5125 C.3       1 RES1    0.0000
      9 H2        -0.6003   11.1073    5.6255 H         1 RES1    0.0000
     10 H3         0.1890   10.0859    4.6795 H         1 RES1    0.0000
     11 H4         0.9889   11.2212    5.4765 H         1 RES1    0.0000
     12 C7         1.1265   11.2439    8.4755 C.2       1 RES1    0.0000
     13 O2         1.5645   11.3872    9.5905 O.2       1 RES1    0.0000
     14 O3         0.9182   12.2589    7.6450 O.3       1 RES1    0.0000
     15 C8         1.1770   13.5755    8.1850 C.3       1 RES1    0.0000
     16 H5         0.6868   13.6853    9.0268 H         1 RES1    0.0000
     17 H6         0.8819   14.2562    7.5440 H         1 RES1    0.0000
     18 H7         2.1377   13.6772    8.3511 H         1 RES1    0.0000
     19 C9         1.3954    6.3701    9.1709 C.2       1 RES1    0.0000
     20 O4         2.2002    6.5752   10.0485 O.2       1 RES1    0.0000
     21 O5         0.8998    5.1613    8.8956 O.3       1 RES1    0.0000
     22 C10        1.4271    4.0783    9.7048 C.3       1 RES1    0.0000
     23 H8         2.3880    3.9816    9.5358 H         1 RES1    0.0000
     24 H9         0.9693    3.2432    9.4714 H         1 RES1    0.0000
     25 H10        1.2801    4.2777   10.6536 H         1 RES1    0.0000
     26 C11        0.4190    6.0525    6.1931 C.3       1 RES1    0.0000
     27 H11        0.9271    5.3333    6.6220 H         1 RES1    0.0000
     28 H12        0.7929    6.2311    5.3047 H         1 RES1    0.0000
     29 H13       -0.5189    5.7822    6.1042 H         1 RES1    0.0000
     30 C12       -0.4878    8.9097    9.8373 C.ar      1 RES1    0.0000
     31 C13       -0.5610    9.4265   11.1296 C.ar      1 RES1    0.0000
     32 N1         0.6427    9.8375   11.8695 N.pl3     1 RES1    0.0000
     33 O6         1.6175    9.0942   11.8493 O.2       1 RES1    0.0000
     34 O7         0.5878   10.8874   12.5014 O.2       1 RES1    0.0000
     35 C14       -1.7579    9.5781   11.8228 C.ar      1 RES1    0.0000
     36 H14       -1.7622    9.9509   12.6972 H         1 RES1    0.0000
     37 C15       -2.9375    9.1823   11.2280 C.ar      1 RES1    0.0000
     38 H15       -3.7604    9.2612   11.6969 H         1 RES1    0.0000
     39 C16       -2.9121    8.6672    9.9382 C.ar      1 RES1    0.0000
     40 H16       -3.7209    8.3959    9.5207 H         1 RES1    0.0000
     41 C17       -1.7096    8.5480    9.2577 C.ar      1 RES1    0.0000
     42 H17       -1.7157    8.2105    8.3701 H         1 RES1    0.0000
@<TRIPOS>BOND
     1    1    2 1
     2    2    3 2
     3    3    4 1
     4    4    5 1
     5    6    4 1
     6    7    1 1
     7    8    2 1
     8    9    8 1
     9   10    8 1
    10   11    8 1
    11   12    3 1
    12   13   12 2
    13   14   12 1
    14   15   14 1
    15   16   15 1
    16   17   15 1
    17   18   15 1
    18   19    6 1
    19   20   19 2
    20   21   19 1
    21   22   21 1
    22   23   22 1
    23   24   22 1
    24   25   22 1
    25   26    7 1
    26   27   26 1
    27   28   26 1
    28   29   26 1
    29   30    4 1
    30   31   30 ar
    31   32   31 1
    32   33   32 2
    33   34   32 2
    34   35   31 ar
    35   36   35 1
    36   37   35 ar
    37   38   37 1
    38   39   37 ar
    39   40   39 1
    40   41   30 ar
    41   42   41 1
    42    6    7 2
    43   39   41 ar
@<TRIPOS>SUBSTRUCTURE
     1 RES1 1

@<TRIPOS>CRYSIN
   7.7841   16.2649   13.0476  90.0000 104.5310  90.0000 231 1

