# MOL2 file generated by ConQuest
# Please check atom types

@<TRIPOS>MOLECULE
VAQHUR
    41    43     1
SMALL
NO_CHARGES
****
Generated from CSD

@<TRIPOS>ATOM
      1 O1         3.2885    5.4898    6.3682 O.3       1 RES1    0.0000
      2 C1         3.1495    6.0007    7.6534 C.2       1 RES1    0.0000
      3 C2         3.4785    5.2873    8.7410 C.2       1 RES1    0.0000
      4 C3         4.0314    3.8691    8.6785 C.3       1 RES1    0.0000
      5 H1         4.9088    3.8315    9.1570 H         1 RES1    0.0000
      6 C4         4.2274    3.4724    7.2345 C.2       1 RES1    0.0000
      7 C5         4.8666    2.2109    6.9373 C.2       1 RES1    0.0000
      8 O2         4.9203    1.8311    5.5947 O.3       1 RES1    0.0000
      9 C6         4.4465    2.6142    4.5849 C.2       1 RES1    0.0000
     10 C7         3.9294    3.8289    4.8397 C.2       1 RES1    0.0000
     11 H2         3.6399    4.3932    4.1330 H         1 RES1    0.0000
     12 C8         3.8271    4.2484    6.1994 C.2       1 RES1    0.0000
     13 C9         2.6505    7.4041    7.5404 C.3       1 RES1    0.0000
     14 H3         2.5221    7.7787    8.4363 H         1 RES1    0.0000
     15 H4         1.7965    7.4091    7.0582 H         1 RES1    0.0000
     16 H5         3.3047    7.9450    7.0508 H         1 RES1    0.0000
     17 C10        3.2795    5.8806   10.0949 C.2       1 RES1    0.0000
     18 O3         2.4930    6.7413   10.3902 O.2       1 RES1    0.0000
     19 O4         4.0968    5.3030   10.9934 O.3       1 RES1    0.0000
     20 C11        3.9907    5.8116   12.3500 C.3       1 RES1    0.0000
     21 H6         4.3280    6.7309   12.3817 H         1 RES1    0.0000
     22 H7         4.5210    5.2490   12.9521 H         1 RES1    0.0000
     23 H8         3.0522    5.7978   12.6315 H         1 RES1    0.0000
     24 O5         5.3667    1.4582    7.7353 O.2       1 RES1    0.0000
     25 C12        4.5600    1.9559    3.2596 C.3       1 RES1    0.0000
     26 H9         4.3097    2.5916    2.5574 H         1 RES1    0.0000
     27 H10        3.9618    1.1807    3.2271 H         1 RES1    0.0000
     28 H11        5.4842    1.6616    3.1190 H         1 RES1    0.0000
     29 C13        3.0353    2.9231    9.3604 C.ar      1 RES1    0.0000
     30 C14        3.1951    2.3066   10.6017 C.ar      1 RES1    0.0000
     31 C15        2.1965    1.5444   11.2039 C.ar      1 RES1    0.0000
     32 H12        2.3414    1.1498   12.0561 H         1 RES1    0.0000
     33 C16        0.9896    1.3673   10.5463 C.ar      1 RES1    0.0000
     34 H13        0.3071    0.8325   10.9353 H         1 RES1    0.0000
     35 C17        0.7833    1.9778    9.3131 C.ar      1 RES1    0.0000
     36 H14       -0.0465    1.8727    8.8625 H         1 RES1    0.0000
     37 C18        1.7925    2.7410    8.7430 C.ar      1 RES1    0.0000
     38 H15        1.6336    3.1551    7.9032 H         1 RES1    0.0000
     39 N1         4.4468    2.4160   11.3699 N.pl3     1 RES1    0.0000
     40 O6         4.3519    2.5110   12.5918 O.2       1 RES1    0.0000
     41 O7         5.5167    2.3742   10.7725 O.2       1 RES1    0.0000
@<TRIPOS>BOND
     1    1    2 1
     2    2    3 2
     3    3    4 1
     4    4    5 1
     5    6    4 1
     6    7    6 1
     7    8    7 1
     8    9    8 1
     9   10    9 2
    10   11   10 1
    11   12    1 1
    12   13    2 1
    13   14   13 1
    14   15   13 1
    15   16   13 1
    16   17    3 1
    17   18   17 2
    18   19   17 1
    19   20   19 1
    20   21   20 1
    21   22   20 1
    22   23   20 1
    23   24    7 2
    24   25    9 1
    25   26   25 1
    26   27   25 1
    27   28   25 1
    28   29    4 1
    29   30   29 ar
    30   31   30 ar
    31   32   31 1
    32   33   31 ar
    33   34   33 1
    34   35   33 ar
    35   36   35 1
    36   37   29 ar
    37   38   37 1
    38   39   30 1
    39   40   39 2
    40   41   39 2
    41    6   12 2
    42   10   12 1
    43   35   37 ar
@<TRIPOS>SUBSTRUCTURE
     1 RES1 1

@<TRIPOS>CRYSIN
   7.5873    8.9247   12.4765  85.0410  87.1840  71.7480   2 1

