# MOL2 file generated by ConQuest
# Please check atom types

@<TRIPOS>MOLECULE
VAQZUJ
    96   100     2
SMALL
NO_CHARGES
****
Generated from CSD

@<TRIPOS>ATOM
      1 C1         6.2940    2.9465    5.7541 C.3       1 RES1    0.0000
      2 H1         5.6449    2.5196    6.3183 H         1 RES1    0.0000
      3 H2         6.7057    3.6699    6.2326 H         1 RES1    0.0000
      4 H3         6.9643    2.3094    5.4976 H         1 RES1    0.0000
      5 C2         2.1212    8.0476    5.8717 C.3       2 RES2    0.0000
      6 H4         3.0039    8.3905    6.0344 H         2 RES2    0.0000
      7 H5         1.9615    7.2911    6.4404 H         2 RES2    0.0000
      8 H6         1.4746    8.7334    6.0601 H         2 RES2    0.0000
      9 C3         5.6027    3.4929    4.5035 C.3       1 RES1    0.0000
     10 H7         5.1618    2.7297    4.0737 H         1 RES1    0.0000
     11 C4         2.0026    7.6273    4.4301 C.3       2 RES2    0.0000
     12 H8         2.7023    6.9615    4.2656 H         2 RES2    0.0000
     13 C5         4.5057    4.4397    4.9254 C.3       1 RES1    0.0000
     14 H9         3.9012    3.9884    5.5171 H         1 RES1    0.0000
     15 H10        4.0276    4.7427    4.1497 H         1 RES1    0.0000
     16 H11        4.8920    5.1940    5.3773 H         1 RES1    0.0000
     17 C6         0.6609    6.9504    4.1524 C.3       2 RES2    0.0000
     18 H12        0.5667    6.1828    4.7228 H         2 RES2    0.0000
     19 H13        0.6267    6.6717    3.2343 H         2 RES2    0.0000
     20 H14       -0.0523    7.5676    4.3266 H         2 RES2    0.0000
     21 C7         6.4646    4.0548    3.5377 C.3       1 RES1    0.0000
     22 H15        6.9069    4.8113    3.9543 H         1 RES1    0.0000
     23 H16        5.9070    4.4109    2.8284 H         1 RES1    0.0000
     24 C8         2.2553    8.7820    3.4820 C.3       2 RES2    0.0000
     25 H17        1.4733    9.3572    3.4687 H         2 RES2    0.0000
     26 H18        3.0006    9.3063    3.8163 H         2 RES2    0.0000
     27 C9         7.5431    3.2120    2.8779 C.3       1 RES1    0.0000
     28 H19        7.9313    2.6191    3.5554 H         1 RES1    0.0000
     29 C10        2.5615    8.3396    2.0775 C.3       2 RES2    0.0000
     30 H20        1.9669    7.5919    1.8555 H         2 RES2    0.0000
     31 C11        9.0201    3.3668    1.0728 C.3       1 RES1    0.0000
     32 H21        9.2106    4.0327    0.3803 H         1 RES1    0.0000
     33 C12        4.5140    8.3662    0.6562 C.3       2 RES2    0.0000
     34 H22        4.6550    7.6295    0.0265 H         2 RES2    0.0000
     35 C13        7.0253    2.3603    1.7326 C.2       1 RES1    0.0000
     36 C14        2.4348    9.3682    1.0074 C.2       2 RES2    0.0000
     37 C15       10.2522    2.4842    1.3346 C.ar      1 RES1    0.0000
     38 C16        5.8041    9.1360    0.8844 C.ar      2 RES2    0.0000
     39 C17       10.1113    1.1614    1.6220 C.ar      1 RES1    0.0000
     40 H23        9.2548    0.7986    1.5990 H         1 RES1    0.0000
     41 C18        5.7670   10.4898    1.1179 C.ar      2 RES2    0.0000
     42 H24        4.9376   10.9123    1.1365 H         2 RES2    0.0000
     43 C19       11.1732    0.3097    1.9519 C.ar      1 RES1    0.0000
     44 H25       11.0275   -0.5862    2.1509 H         1 RES1    0.0000
     45 C20        6.8906   11.2552    1.3266 C.ar      2 RES2    0.0000
     46 H26        6.8170   12.1732    1.4584 H         2 RES2    0.0000
     47 C21       12.4476    0.8494    1.9714 C.ar      1 RES1    0.0000
     48 H27       13.1757    0.3119    2.1836 H         1 RES1    0.0000
     49 C22        8.1278   10.6490    1.3381 C.ar      2 RES2    0.0000
     50 H28        8.8922   11.1468    1.5194 H         2 RES2    0.0000
     51 C23       12.6344    2.1479    1.6839 C.ar      1 RES1    0.0000
     52 H29       13.4906    2.5085    1.7158 H         1 RES1    0.0000
     53 C24        8.2216    9.2975    1.0799 C.ar      2 RES2    0.0000
     54 H30        9.0550    8.8860    1.0365 H         2 RES2    0.0000
     55 C25       11.5772    2.9421    1.3443 C.ar      1 RES1    0.0000
     56 C26        7.0732    8.5608    0.8862 C.ar      2 RES2    0.0000
     57 C27        6.7459    2.4023   -1.3921 C.ar      1 RES1    0.0000
     58 C28        2.5877    9.3174   -2.0262 C.ar      2 RES2    0.0000
     59 C29        6.5568    1.6923   -2.5507 C.ar      1 RES1    0.0000
     60 H31        7.0608    0.9335   -2.7391 H         1 RES1    0.0000
     61 C30        2.3841   10.0319   -3.1954 C.ar      2 RES2    0.0000
     62 H32        2.8398   10.8260   -3.3582 H         2 RES2    0.0000
     63 C31        5.5314    2.1701   -3.4776 C.ar      1 RES1    0.0000
     64 H33        5.3614    1.7100   -4.2665 H         1 RES1    0.0000
     65 C32        1.4851    9.5275   -4.1108 C.ar      2 RES2    0.0000
     66 H34        1.3478    9.9987   -4.9006 H         2 RES2    0.0000
     67 C33        4.8396    3.2761   -3.1822 C.ar      1 RES1    0.0000
     68 H35        4.2032    3.5770   -3.7898 H         1 RES1    0.0000
     69 C34        0.7924    8.3816   -3.9180 C.ar      2 RES2    0.0000
     70 H36        0.1873    8.0697   -4.5504 H         2 RES2    0.0000
     71 C35        5.0230    3.9840   -2.0342 C.ar      1 RES1    0.0000
     72 H37        4.5195    4.7450   -1.8511 H         1 RES1    0.0000
     73 C36        1.0233    7.6981   -2.7364 C.ar      2 RES2    0.0000
     74 H38        0.5566    6.9106   -2.5710 H         2 RES2    0.0000
     75 C37        6.0126    3.5217   -1.1285 C.ar      1 RES1    0.0000
     76 H39        6.1636    3.9884   -0.3387 H         1 RES1    0.0000
     77 C38        1.9147    8.1472   -1.8113 C.ar      2 RES2    0.0000
     78 H40        2.0671    7.6583   -1.0348 H         2 RES2    0.0000
     79 N1         8.6089    4.0061    2.2960 N.3       1 RES1    0.0000
     80 H41        8.9365    4.7317    2.6232 H         1 RES1    0.0000
     81 N2         3.9737    7.8773    1.9104 N.3       2 RES2    0.0000
     82 H42        4.4028    7.3906    2.4755 H         2 RES2    0.0000
     83 N3         7.8566    2.5638    0.7102 N.am      1 RES1    0.0000
     84 N4         3.4839    9.2709    0.1716 N.am      2 RES2    0.0000
     85 N5        11.8745    4.3490    1.0710 N.pl3     1 RES1    0.0000
     86 N6         7.2591    7.1451    0.7014 N.pl3     2 RES2    0.0000
     87 N7         7.7947    1.9599   -0.5307 N.3       1 RES1    0.0000
     88 H43        8.3559    1.3538   -0.7695 H         1 RES1    0.0000
     89 N8         3.5396    9.8018   -1.0887 N.3       2 RES2    0.0000
     90 H44        4.1213   10.3969   -1.3028 H         2 RES2    0.0000
     91 O1         6.0533    1.6215    1.6875 O.2       1 RES1    0.0000
     92 O2         1.4832   10.1403    0.8376 O.2       2 RES2    0.0000
     93 O3        11.1340    5.0967    0.5793 O.2       1 RES1    0.0000
     94 O4         6.3530    6.3863    0.9543 O.2       2 RES2    0.0000
     95 O5        12.9146    4.7914    1.3974 O.2       1 RES1    0.0000
     96 O6         8.3119    6.7049    0.2777 O.2       2 RES2    0.0000
@<TRIPOS>BOND
     1    1    2 1
     2    3    1 1
     3    4    1 1
     4    5    6 1
     5    7    5 1
     6    8    5 1
     7    9    1 1
     8   10    9 1
     9   11    5 1
    10   12   11 1
    11   13    9 1
    12   14   13 1
    13   15   13 1
    14   16   13 1
    15   17   11 1
    16   18   17 1
    17   19   17 1
    18   20   17 1
    19   21    9 1
    20   22   21 1
    21   23   21 1
    22   24   11 1
    23   25   24 1
    24   26   24 1
    25   27   21 1
    26   28   27 1
    27   29   24 1
    28   30   29 1
    29   31   32 1
    30   33   34 1
    31   35   27 1
    32   36   29 1
    33   37   31 1
    34   38   33 1
    35   39   37 ar
    36   40   39 1
    37   41   38 ar
    38   42   41 1
    39   43   39 ar
    40   44   43 1
    41   45   41 ar
    42   46   45 1
    43   47   43 ar
    44   48   47 1
    45   49   45 ar
    46   50   49 1
    47   51   47 ar
    48   52   51 1
    49   53   49 ar
    50   54   53 1
    51   55   37 ar
    52   56   38 ar
    53   57   59 ar
    54   58   61 ar
    55   59   60 1
    56   61   62 1
    57   63   59 ar
    58   64   63 1
    59   65   61 ar
    60   66   65 1
    61   67   63 ar
    62   68   67 1
    63   69   65 ar
    64   70   69 1
    65   71   67 ar
    66   72   71 1
    67   73   69 ar
    68   74   73 1
    69   75   57 ar
    70   76   75 1
    71   77   58 ar
    72   78   77 1
    73   79   27 1
    74   80   79 1
    75   81   29 1
    76   82   81 1
    77   83   31 1
    78   84   33 1
    79   85   55 1
    80   86   56 1
    81   87   57 1
    82   88   87 1
    83   89   58 1
    84   90   89 1
    85   91   35 2
    86   92   36 2
    87   93   85 2
    88   94   86 2
    89   95   85 2
    90   96   86 2
    91   31   79 1
    92   33   81 1
    93   35   83 1
    94   36   84 1
    95   51   55 ar
    96   53   56 ar
    97   71   75 ar
    98   73   77 ar
    99   83   87 1
   100   84   89 1
@<TRIPOS>SUBSTRUCTURE
     1 RES1 1
     2 RES2 5

@<TRIPOS>CRYSIN
   9.7690   22.1210    9.7980  90.0000 115.4900  90.0000   4 1

