# MOL2 file generated by ConQuest
# Please check atom types

@<TRIPOS>MOLECULE
VARCUO
    44    45     1
SMALL
NO_CHARGES
****
Generated from CSD

@<TRIPOS>ATOM
      1 C1         3.5513    1.3848   -2.2986 C.ar      1 RES1    0.0000
      2 C2         3.1730    1.7126   -3.5818 C.ar      1 RES1    0.0000
      3 H1         3.7696    2.1723   -4.1269 H         1 RES1    0.0000
      4 C3         1.9027    1.3660   -4.0882 C.ar      1 RES1    0.0000
      5 C4         1.0148    0.6908   -3.2031 C.ar      1 RES1    0.0000
      6 H2         0.1566    0.4736   -3.4865 H         1 RES1    0.0000
      7 C5         1.4123    0.3605   -1.9440 C.ar      1 RES1    0.0000
      8 H3         0.8157   -0.0959   -1.3952 H         1 RES1    0.0000
      9 C6         2.6746    0.6760   -1.4416 C.ar      1 RES1    0.0000
     10 C7         3.1066    0.2155   -0.1454 C.2       1 RES1    0.0000
     11 H4         2.4888   -0.2180    0.3991 H         1 RES1    0.0000
     12 C8         4.6284   -0.1409    1.5719 C.ar      1 RES1    0.0000
     13 C9         3.7988    0.0147    2.6738 C.ar      1 RES1    0.0000
     14 H5         2.9898    0.4679    2.5986 H         1 RES1    0.0000
     15 C10        4.1997   -0.5171    3.8806 C.ar      1 RES1    0.0000
     16 C11        5.3830   -1.1931    4.0585 C.ar      1 RES1    0.0000
     17 H6         5.6326   -1.5348    4.8848 H         1 RES1    0.0000
     18 C12        6.1821   -1.3357    2.9386 C.ar      1 RES1    0.0000
     19 C13        5.8330   -0.8186    1.7117 C.ar      1 RES1    0.0000
     20 H7         6.3991   -0.9227    0.9807 H         1 RES1    0.0000
     21 C14        0.2456    1.2070   -5.9017 C.3       1 RES1    0.0000
     22 H8         0.0478    1.7028   -6.7132 H         1 RES1    0.0000
     23 H9        -0.4613    1.3938   -5.2653 H         1 RES1    0.0000
     24 C15        0.2243   -0.2688   -6.2244 C.3       1 RES1    0.0000
     25 H10        0.4752   -0.7703   -5.4448 H         1 RES1    0.0000
     26 H11        0.8442   -0.4499   -6.9359 H         1 RES1    0.0000
     27 H12       -0.6597   -0.5236   -6.4997 H         1 RES1    0.0000
     28 C16        2.4609    2.2821   -6.3076 C.3       1 RES1    0.0000
     29 H13        3.0549    2.8827   -5.8315 H         1 RES1    0.0000
     30 H14        1.9638    2.8106   -6.9514 H         1 RES1    0.0000
     31 C17        3.2905    1.2783   -7.0504 C.3       1 RES1    0.0000
     32 H15        3.7458    0.7121   -6.4224 H         1 RES1    0.0000
     33 H16        3.9349    1.7364   -7.5948 H         1 RES1    0.0000
     34 H17        2.7210    0.7440   -7.6103 H         1 RES1    0.0000
     35 N1         1.5158    1.7011   -5.3489 N.3       1 RES1    0.0000
     36 N2         4.3019    0.3728    0.2970 N.2       1 RES1    0.0000
     37 N3         3.3037   -0.3614    5.0330 N.pl3     1 RES1    0.0000
     38 N4         7.4377   -2.0928    3.0633 N.pl3     1 RES1    0.0000
     39 O1         4.7778    1.7593   -1.8899 O.3       1 RES1    0.0000
     40 O2         2.1762    0.1123    4.8449 O.2       1 RES1    0.0000
     41 O3         3.7146   -0.6949    6.1424 O.2       1 RES1    0.0000
     42 O4         7.6734   -2.6394    4.1300 O.2       1 RES1    0.0000
     43 O5         8.1758   -2.1387    2.0854 O.2       1 RES1    0.0000
     44 H18        4.9244    1.4094   -1.0023 H         1 RES1    0.0000
@<TRIPOS>BOND
     1    1    2 ar
     2    2    3 1
     3    4    2 ar
     4    5    4 ar
     5    6    5 1
     6    7    5 ar
     7    8    7 1
     8    9    1 ar
     9   10    9 1
    10   11   10 1
    11   12   13 ar
    12   13   14 1
    13   15   13 ar
    14   16   15 ar
    15   17   16 1
    16   18   16 ar
    17   19   12 ar
    18   20   19 1
    19   21   22 1
    20   23   21 1
    21   24   21 1
    22   25   24 1
    23   26   24 1
    24   27   24 1
    25   28   29 1
    26   30   28 1
    27   31   28 1
    28   32   31 1
    29   33   31 1
    30   34   31 1
    31   35    4 1
    32   36   10 2
    33   37   15 1
    34   38   18 1
    35   39    1 1
    36   40   37 2
    37   41   37 2
    38   42   38 2
    39   43   38 2
    40   44   39 1
    41    7    9 ar
    42   12   36 1
    43   18   19 ar
    44   21   35 1
    45   28   35 1
@<TRIPOS>SUBSTRUCTURE
     1 RES1 1

@<TRIPOS>CRYSIN
   6.6367    8.1942   30.9362  90.0000  90.0000  90.0000  19 1

