# MOL2 file generated by ConQuest
# Please check atom types

@<TRIPOS>MOLECULE
VARNAE
    70    73     1
SMALL
NO_CHARGES
****
Generated from CSD

@<TRIPOS>ATOM
      1 O1        16.1645    8.8476    7.1902 O.3       1 RES1    0.0000
      2 N1        16.0009    7.8551    8.1377 N.am      1 RES1    0.0000
      3 C1        16.1116    5.8105    9.1184 C.ar      1 RES1    0.0000
      4 O2        16.0474    9.2084   10.0090 O.2       1 RES1    0.0000
      5 C2        14.9216    9.5957    6.9521 C.3       1 RES1    0.0000
      6 H1        14.6874   10.0934    7.7869 H         1 RES1    0.0000
      7 O3         9.5182    6.7309    7.4536 O.3       1 RES1    0.0000
      8 C3        16.0809    6.7579   10.1297 C.ar      1 RES1    0.0000
      9 C4        11.3916    7.9966    6.8058 C.3       1 RES1    0.0000
     10 H2        11.5380    7.6168    5.8934 H         1 RES1    0.0000
     11 C5        16.1589    4.0850   10.7507 C.ar      1 RES1    0.0000
     12 H3        16.1845    3.1629   10.9775 H         1 RES1    0.0000
     13 C6        10.9165    6.8665    7.7174 C.3       1 RES1    0.0000
     14 H4        11.0362    7.1511    8.6678 H         1 RES1    0.0000
     15 C7        15.2995   10.5987    5.8853 C.3       1 RES1    0.0000
     16 H5        15.5735   10.1103    5.0691 H         1 RES1    0.0000
     17 H6        16.0789   11.1216    6.1982 H         1 RES1    0.0000
     18 C8        13.7761    8.7402    6.5795 C.2       1 RES1    0.0000
     19 H7        13.8731    8.1903    5.8102 H         1 RES1    0.0000
     20 C9        12.6387    8.6795    7.2235 C.2       1 RES1    0.0000
     21 H8        12.6087    9.1275    8.0600 H         1 RES1    0.0000
     22 C10       11.3890    4.4943    8.5784 C.ar      1 RES1    0.0000
     23 C11       10.1678    8.8943    6.7497 C.3       1 RES1    0.0000
     24 H9        10.1270    9.4113    7.6053 H         1 RES1    0.0000
     25 C12       14.5172   12.5515    4.4576 C.3       1 RES1    0.0000
     26 H10       14.7770   12.0580    3.6386 H         1 RES1    0.0000
     27 H11       15.3016   13.0787    4.7511 H         1 RES1    0.0000
     28 C13       16.1253    5.0299   11.7581 C.ar      1 RES1    0.0000
     29 H12       16.1291    4.7528   12.6661 H         1 RES1    0.0000
     30 C14       11.6177    5.5536    7.5156 C.3       1 RES1    0.0000
     31 H13       12.5895    5.7288    7.4588 H         1 RES1    0.0000
     32 H14       11.3332    5.1823    6.6428 H         1 RES1    0.0000
     33 C15       16.0857    6.4985    7.8057 C.2       1 RES1    0.0000
     34 C16       16.0470    8.1094    9.5059 C.2       1 RES1    0.0000
     35 C17       16.0872    6.3899   11.4468 C.ar      1 RES1    0.0000
     36 H15       16.0660    7.0459   12.1349 H         1 RES1    0.0000
     37 C18       14.1773   11.5553    5.5324 C.3       1 RES1    0.0000
     38 H16       13.3934   11.0273    5.2373 H         1 RES1    0.0000
     39 H17       13.9143   12.0488    6.3497 H         1 RES1    0.0000
     40 C19       12.4488    3.8753    9.1972 C.ar      1 RES1    0.0000
     41 H18       13.3352    4.1196    8.9559 H         1 RES1    0.0000
     42 C20       10.1035    9.8787    5.6135 C.3       1 RES1    0.0000
     43 H19       10.8759   10.4959    5.6769 H         1 RES1    0.0000
     44 H20       10.1791    9.3886    4.7577 H         1 RES1    0.0000
     45 C21        9.0389    7.8854    6.7652 C.3       1 RES1    0.0000
     46 H21        8.2499    8.2602    7.2307 H         1 RES1    0.0000
     47 H22        8.7754    7.6496    5.8401 H         1 RES1    0.0000
     48 C22       10.1170    4.1238    8.9551 C.ar      1 RES1    0.0000
     49 H23        9.3661    4.5423    8.5529 H         1 RES1    0.0000
     50 C23       13.3840   13.5149    4.1094 C.3       1 RES1    0.0000
     51 H24       12.6035   12.9827    3.8135 H         1 RES1    0.0000
     52 H25       13.1194   13.9949    4.9342 H         1 RES1    0.0000
     53 C24       16.1563    4.4581    9.4092 C.ar      1 RES1    0.0000
     54 H26       16.1845    3.8080    8.7178 H         1 RES1    0.0000
     55 C25        9.9268    3.1596    9.9004 C.ar      1 RES1    0.0000
     56 H27        9.0416    2.9095   10.1399 H         1 RES1    0.0000
     57 C26       12.2567    2.9128   10.1571 C.ar      1 RES1    0.0000
     58 H28       13.0040    2.5019   10.5762 H         1 RES1    0.0000
     59 C27       13.6868   14.5178    3.0641 C.3       1 RES1    0.0000
     60 H29       14.4176   15.0963    3.3672 H         1 RES1    0.0000
     61 H30       12.8893   15.0618    2.8909 H         1 RES1    0.0000
     62 H31       13.9553   14.0605    2.2398 H         1 RES1    0.0000
     63 C28       10.9871    2.5474   10.5093 C.ar      1 RES1    0.0000
     64 H32       10.8423    1.8779   11.1674 H         1 RES1    0.0000
     65 O4        16.1246    6.0589    6.6799 O.2       1 RES1    0.0000
     66 C29        8.8411   10.6787    5.6070 C.2       1 RES1    0.0000
     67 H33        8.7626   11.3532    6.2715 H         1 RES1    0.0000
     68 C30        7.8509   10.5490    4.7977 C.2       1 RES1    0.0000
     69 H34        7.8783    9.8888    4.1149 H         1 RES1    0.0000
     70 H35        7.0905   11.1132    4.8826 H         1 RES1    0.0000
@<TRIPOS>BOND
     1    1    2 1
     2    2   33 1
     3    3    8 ar
     4    4   34 2
     5    5    1 1
     6    6    5 1
     7    7   13 1
     8    8   34 1
     9    9   10 1
    10   11   12 1
    11   13    9 1
    12   14   13 1
    13   15    5 1
    14   16   15 1
    15   17   15 1
    16   18    5 1
    17   19   18 1
    18   20    9 1
    19   21   20 1
    20   22   30 1
    21   23    9 1
    22   24   23 1
    23   25   26 1
    24   27   25 1
    25   28   11 ar
    26   29   28 1
    27   30   13 1
    28   31   30 1
    29   32   30 1
    30   33    3 1
    31   34    2 1
    32   35    8 ar
    33   36   35 1
    34   37   15 1
    35   38   37 1
    36   39   37 1
    37   40   22 ar
    38   41   40 1
    39   42   23 1
    40   43   42 1
    41   44   42 1
    42   45    7 1
    43   46   45 1
    44   47   45 1
    45   48   22 ar
    46   49   48 1
    47   50   25 1
    48   51   50 1
    49   52   50 1
    50   53    3 ar
    51   54   53 1
    52   55   48 ar
    53   56   55 1
    54   57   40 ar
    55   58   57 1
    56   59   50 1
    57   60   59 1
    58   61   59 1
    59   62   59 1
    60   63   55 ar
    61   64   63 1
    62   65   33 2
    63   66   42 1
    64   67   66 1
    65   68   66 2
    66   69   68 1
    67   70   68 1
    68   11   53 ar
    69   18   20 2
    70   23   45 1
    71   25   37 1
    72   28   35 ar
    73   57   63 ar
@<TRIPOS>SUBSTRUCTURE
     1 RES1 1

@<TRIPOS>CRYSIN
  18.7810    8.4210   16.8221  90.0000  98.1350  90.0000  14 1

