# MOL2 file generated by ConQuest
# Please check atom types

@<TRIPOS>MOLECULE
VARPOW
   128   140     2
SMALL
NO_CHARGES
****
Generated from CSD

@<TRIPOS>ATOM
      1 O1         3.8676    6.6956    5.3897 O.3       1 RES1    0.0000
      2 N1         1.6139    6.3072    4.6575 N.3       1 RES1    0.0000
      3 C1         4.0457    7.6273    4.4185 C.ar      1 RES1    0.0000
      4 C2         1.5529    7.5535    3.9152 C.3       1 RES1    0.0000
      5 H1         1.0518    8.2122    4.4202 H         1 RES1    0.0000
      6 H2         1.0983    7.4094    3.0702 H         1 RES1    0.0000
      7 C3         2.9918    8.0722    3.6560 C.ar      1 RES1    0.0000
      8 C4         2.4844    6.3898    5.8089 C.3       1 RES1    0.0000
      9 C5         4.5672    9.4928    2.4946 C.ar      1 RES1    0.0000
     10 C6         5.3074    8.0744    4.2081 C.ar      1 RES1    0.0000
     11 H3         6.0053    7.7633    4.7383 H         1 RES1    0.0000
     12 C7         1.5343    4.6917    2.7925 C.ar      1 RES1    0.0000
     13 H4         1.1957    5.3029    2.1781 H         1 RES1    0.0000
     14 C8         2.5529    4.9395    6.3206 C.3       1 RES1    0.0000
     15 C9         2.3177    4.2095    4.9639 C.ar      1 RES1    0.0000
     16 C10        2.8071    8.3207    7.3204 C.2       1 RES1    0.0000
     17 H5         3.7171    8.3065    7.1252 H         1 RES1    0.0000
     18 C11        2.2515    9.4279    8.2731 C.ar      1 RES1    0.0000
     19 C12        3.2671    9.0532    2.7083 C.ar      1 RES1    0.0000
     20 H6         2.5709    9.4182    2.2101 H         1 RES1    0.0000
     21 C13        2.5279    2.8884    4.6239 C.ar      1 RES1    0.0000
     22 H7         2.8474    2.2727    5.2433 H         1 RES1    0.0000
     23 C14        2.0833    7.8701   10.1685 C.ar      1 RES1    0.0000
     24 H8         2.4633    7.1898    9.6601 H         1 RES1    0.0000
     25 C15        1.8698    9.1223    9.6029 C.ar      1 RES1    0.0000
     26 C16        1.3021   10.1385   10.3604 C.ar      1 RES1    0.0000
     27 C17        0.9488    9.9047   11.6851 C.ar      1 RES1    0.0000
     28 H9         0.5702   10.5859   12.1917 H         1 RES1    0.0000
     29 C18        1.1640    8.6540   12.2506 C.ar      1 RES1    0.0000
     30 H10        0.9267    8.4963   13.1360 H         1 RES1    0.0000
     31 C19        1.7308    7.6356   11.4915 C.ar      1 RES1    0.0000
     32 H11        1.8739    6.7983   11.8702 H         1 RES1    0.0000
     33 C20        1.8250    5.0732    4.0819 C.ar      1 RES1    0.0000
     34 C21        1.1749   11.3708    9.8133 C.ar      1 RES1    0.0000
     35 H12        0.8431   12.0491   10.3553 H         1 RES1    0.0000
     36 C22        2.0283    7.4170    6.7919 C.2       1 RES1    0.0000
     37 H13        1.1325    7.4127    7.0444 H         1 RES1    0.0000
     38 N2         4.8160   10.5483    1.4627 N.pl3     1 RES1    0.0000
     39 C23        1.7612    3.3680    2.4323 C.ar      1 RES1    0.0000
     40 H14        1.5771    3.0778    1.5688 H         1 RES1    0.0000
     41 C24        5.5616    9.0035    3.1948 C.ar      1 RES1    0.0000
     42 H15        6.4342    9.2742    3.0164 H         1 RES1    0.0000
     43 C25        2.2444    2.5185    3.3362 C.ar      1 RES1    0.0000
     44 H16        2.3979    1.6372    3.0820 H         1 RES1    0.0000
     45 C26        1.3024    4.6566    7.1975 C.3       1 RES1    0.0000
     46 H17        1.4470    5.0001    8.0829 H         1 RES1    0.0000
     47 H18        1.1516    3.7082    7.2430 H         1 RES1    0.0000
     48 H19        0.5349    5.0837    6.8104 H         1 RES1    0.0000
     49 O2         5.9613   10.8709    1.2894 O.2       1 RES1    0.0000
     50 O3         3.8987   10.9849    0.8551 O.2       1 RES1    0.0000
     51 C27        2.4250   10.9785    6.3795 C.ar      1 RES1    0.0000
     52 H20        2.7957   10.3107    5.8493 H         1 RES1    0.0000
     53 C28        2.0614   10.7013    7.6924 C.ar      1 RES1    0.0000
     54 C29        1.5067   11.6989    8.4852 C.ar      1 RES1    0.0000
     55 C30        1.3165   12.9738    7.9651 C.ar      1 RES1    0.0000
     56 H21        0.9460   13.6422    8.4970 H         1 RES1    0.0000
     57 C31        1.6814   13.2517    6.6539 C.ar      1 RES1    0.0000
     58 H22        1.5549   14.1047    6.3054 H         1 RES1    0.0000
     59 C32        2.2361   12.2540    5.8610 C.ar      1 RES1    0.0000
     60 H23        2.4793   12.4392    4.9824 H         1 RES1    0.0000
     61 C33        3.8656    4.5829    7.0023 C.3       1 RES1    0.0000
     62 H24        4.5770    4.6099    6.3576 H         1 RES1    0.0000
     63 H25        3.8035    3.7008    7.3743 H         1 RES1    0.0000
     64 H26        4.0439    5.2135    7.7025 H         1 RES1    0.0000
     65 O4         7.0673    3.8240    3.6981 O.3       2 RES2    0.0000
     66 N3         9.2674    3.6629    2.7454 N.3       2 RES2    0.0000
     67 C34        6.6956    4.6362    2.6865 C.ar      2 RES2    0.0000
     68 C35        7.6278    5.1608    1.7893 C.ar      2 RES2    0.0000
     69 C36        8.7975    6.8879    6.2684 C.ar      2 RES2    0.0000
     70 C37        7.1920    6.0644    0.8096 C.ar      2 RES2    0.0000
     71 H27        7.8117    6.4634    0.2407 H         2 RES2    0.0000
     72 C38        8.4849    3.7020    3.9455 C.3       2 RES2    0.0000
     73 C39        8.4778    5.5215    8.3118 C.ar      2 RES2    0.0000
     74 H28        8.1442    4.8221    7.7985 H         2 RES2    0.0000
     75 C40        8.8803    6.7034    7.6991 C.ar      2 RES2    0.0000
     76 C41        9.3791    7.7493    8.4650 C.ar      2 RES2    0.0000
     77 C42        9.4740    7.6154    9.8453 C.ar      2 RES2    0.0000
     78 H29        9.8076    8.3147   10.3587 H         2 RES2    0.0000
     79 C43        9.0707    6.4341   10.4597 C.ar      2 RES2    0.0000
     80 H30        9.1350    6.3446   11.3821 H         2 RES2    0.0000
     81 C44        8.5727    5.3876    9.6921 C.ar      2 RES2    0.0000
     82 H31        8.3031    4.5978   10.1028 H         2 RES2    0.0000
     83 C45        9.6323    9.1311    6.4468 C.ar      2 RES2    0.0000
     84 C46        9.1491    8.1028    5.6473 C.ar      2 RES2    0.0000
     85 C47        9.0234    8.2899    4.2754 C.ar      2 RES2    0.0000
     86 H32        8.6999    7.6014    3.7402 H         2 RES2    0.0000
     87 C48        9.3823    9.5058    3.7048 C.ar      2 RES2    0.0000
     88 H33        9.2979    9.6309    2.7858 H         2 RES2    0.0000
     89 C49        9.8655   10.5341    4.5044 C.ar      2 RES2    0.0000
     90 H34       10.1055   11.3467    4.1223 H         2 RES2    0.0000
     91 C50        9.9912   10.3471    5.8762 C.ar      2 RES2    0.0000
     92 H35       10.3148   11.0355    6.4115 H         2 RES2    0.0000
     93 O5         6.1999    7.9004   -0.9359 O.2       2 RES2    0.0000
     94 N4         5.3492    7.3075   -0.2710 N.pl3     2 RES2    0.0000
     95 C51        5.8446    6.3709    0.6868 C.ar      2 RES2    0.0000
     96 C52        5.3335    4.9319    2.5383 C.ar      2 RES2    0.0000
     97 H36        4.7036    4.5490    3.1039 H         2 RES2    0.0000
     98 C53        4.9381    5.8187    1.5250 C.ar      2 RES2    0.0000
     99 H37        4.0375    6.0293    1.4274 H         2 RES2    0.0000
    100 C54        8.9446    4.8911    4.7653 C.2       2 RES2    0.0000
    101 H38        9.8615    5.0486    4.7720 H         2 RES2    0.0000
    102 C55        9.0961    4.7977    1.8549 C.3       2 RES2    0.0000
    103 H39        9.4212    4.5732    0.9695 H         2 RES2    0.0000
    104 H40        9.6078    5.5544    2.1848 H         2 RES2    0.0000
    105 C56        9.7619    8.9687    7.8304 C.ar      2 RES2    0.0000
    106 H41       10.1033    9.6649    8.3438 H         2 RES2    0.0000
    107 O6         4.1614    7.5157   -0.3838 O.2       2 RES2    0.0000
    108 C57        8.2461    5.6927    5.4402 C.2       2 RES2    0.0000
    109 H42        7.3255    5.5601    5.4419 H         2 RES2    0.0000
    110 C58        8.7081    2.3137    4.6373 C.3       2 RES2    0.0000
    111 C59        7.4951    1.8802    5.4487 C.3       2 RES2    0.0000
    112 H43        7.2556    2.5784    6.0630 H         2 RES2    0.0000
    113 H44        7.7060    1.0815    5.9385 H         2 RES2    0.0000
    114 H45        6.7589    1.7074    4.8578 H         2 RES2    0.0000
    115 C60       10.0194    2.2752    5.4234 C.3       2 RES2    0.0000
    116 H46       10.7478    2.5001    4.8410 H         2 RES2    0.0000
    117 H47       10.1529    1.3933    5.7786 H         2 RES2    0.0000
    118 H48        9.9789    2.9084    6.1438 H         2 RES2    0.0000
    119 C61        8.8859    0.0908    3.1544 C.ar      2 RES2    0.0000
    120 H49        8.6858   -0.4906    3.8513 H         2 RES2    0.0000
    121 C62        8.8985    1.4633    3.3766 C.ar      2 RES2    0.0000
    122 C63        9.1980    2.3334    2.3347 C.ar      2 RES2    0.0000
    123 C64        9.4838    1.8311    1.0705 C.ar      2 RES2    0.0000
    124 H50        9.6844    2.4140    0.3737 H         2 RES2    0.0000
    125 C65        9.4711    0.4586    0.8484 C.ar      2 RES2    0.0000
    126 H51        9.6634    0.1234    0.0034 H         2 RES2    0.0000
    127 C66        9.1716   -0.4116    1.8903 C.ar      2 RES2    0.0000
    128 H52        9.1638   -1.3281    1.7422 H         2 RES2    0.0000
@<TRIPOS>BOND
     1    1    3 1
     2    2    4 1
     3    3    7 ar
     4    4    5 1
     5    6    4 1
     6    7    4 1
     7    8    1 1
     8    9   19 ar
     9   10    3 ar
    10   11   10 1
    11   12   13 1
    12   14    8 1
    13   15   14 1
    14   16   17 1
    15   18   16 1
    16   19    7 ar
    17   20   19 1
    18   21   15 ar
    19   22   21 1
    20   23   24 1
    21   25   18 ar
    22   26   25 ar
    23   27   26 ar
    24   28   27 1
    25   29   27 ar
    26   30   29 1
    27   31   23 ar
    28   32   31 1
    29   33    2 1
    30   34   26 ar
    31   35   34 1
    32   36    8 1
    33   37   36 1
    34   38    9 1
    35   39   12 ar
    36   40   39 1
    37   41    9 ar
    38   42   41 1
    39   43   21 ar
    40   44   43 1
    41   45   14 1
    42   46   45 1
    43   47   45 1
    44   48   45 1
    45   49   38 2
    46   50   38 2
    47   51   52 1
    48   53   18 ar
    49   54   34 ar
    50   55   54 ar
    51   56   55 1
    52   57   55 ar
    53   58   57 1
    54   59   51 ar
    55   60   59 1
    56   61   14 1
    57   62   61 1
    58   63   61 1
    59   64   61 1
    60   65   67 1
    61   66   72 1
    62   67   68 ar
    63   68   70 ar
    64   69   75 ar
    65   70   71 1
    66   72   65 1
    67   73   74 1
    68   75   73 ar
    69   76   75 ar
    70   77   76 ar
    71   78   77 1
    72   79   77 ar
    73   80   79 1
    74   81   73 ar
    75   82   81 1
    76   83   84 ar
    77   84   69 ar
    78   85   84 ar
    79   86   85 1
    80   87   85 ar
    81   88   87 1
    82   89   87 ar
    83   90   89 1
    84   91   83 ar
    85   92   91 1
    86   93   94 2
    87   94   95 1
    88   95   70 ar
    89   96   67 ar
    90   97   96 1
    91   98   95 ar
    92   99   98 1
    93  100   72 1
    94  101  100 1
    95  102   66 1
    96  103  102 1
    97  104  102 1
    98  105   76 ar
    99  106  105 1
   100  107   94 2
   101  108   69 1
   102  109  108 1
   103  110   72 1
   104  111  110 1
   105  112  111 1
   106  113  111 1
   107  114  111 1
   108  115  110 1
   109  116  115 1
   110  117  115 1
   111  118  115 1
   112  119  120 1
   113  121  110 1
   114  122   66 1
   115  123  122 ar
   116  124  123 1
   117  125  123 ar
   118  126  125 1
   119  127  119 ar
   120  128  127 1
   121    2    8 1
   122   10   41 ar
   123   12   33 ar
   124   15   33 ar
   125   16   36 2
   126   23   25 ar
   127   29   31 ar
   128   39   43 ar
   129   51   53 ar
   130   53   54 ar
   131   57   59 ar
   132   68  102 1
   133   79   81 ar
   134   83  105 ar
   135   89   91 ar
   136   96   98 ar
   137  100  108 2
   138  119  121 ar
   139  121  122 ar
   140  125  127 ar
@<TRIPOS>SUBSTRUCTURE
     1 RES1 1
     2 RES2 65

@<TRIPOS>CRYSIN
  11.0510   16.5140   18.0280  69.0200  83.1230  71.5250   2 1

