# MOL2 file generated by ConQuest
# Please check atom types

@<TRIPOS>MOLECULE
VASFAW
    37    38     1
SMALL
NO_CHARGES
****
Generated from CSD

@<TRIPOS>ATOM
      1 O1        11.5560    8.0903    0.3297 O.2       1 RES1    0.0000
      2 O2        13.2661    5.8089   -0.6916 O.2       1 RES1    0.0000
      3 O3        14.4788    7.5617   -0.3408 O.2       1 RES1    0.0000
      4 O4        10.7464   11.3161   -2.9400 O.3       1 RES1    0.0000
      5 N1        13.5440    6.9815   -0.8763 N.pl3     1 RES1    0.0000
      6 C1        11.6966    8.5659   -0.8133 C.2       1 RES1    0.0000
      7 C2        12.6160    7.8117   -1.7804 C.3       1 RES1    0.0000
      8 C3        13.4737    8.8009   -2.5660 C.3       1 RES1    0.0000
      9 C4        12.5937    9.8119   -3.3029 C.3       1 RES1    0.0000
     10 C5        11.4308   10.2807   -2.4741 C.2       1 RES1    0.0000
     11 C6        11.0071    9.7100   -1.3112 C.2       1 RES1    0.0000
     12 C7         9.7909   10.2576   -0.5920 C.3       1 RES1    0.0000
     13 C8         8.4564    9.7494   -1.1618 C.3       1 RES1    0.0000
     14 C9         8.3981    8.2275   -1.3444 C.3       1 RES1    0.0000
     15 C10        8.8132    7.7560   -2.7452 C.3       1 RES1    0.0000
     16 C11        9.3278    6.3239   -2.8216 C.3       1 RES1    0.0000
     17 C12       10.6589    6.0766   -2.0979 C.3       1 RES1    0.0000
     18 C13       11.8321    6.8782   -2.7098 C.3       1 RES1    0.0000
     19 H1        11.0465   11.6449   -3.8064 H         1 RES1    0.0000
     20 H2        14.0998    9.2670   -1.9142 H         1 RES1    0.0000
     21 H3        14.0483    8.3294   -3.2310 H         1 RES1    0.0000
     22 H4        12.2472    9.4844   -4.1162 H         1 RES1    0.0000
     23 H5        13.1392   10.6122   -3.5851 H         1 RES1    0.0000
     24 H6         9.8287    9.9872    0.3209 H         1 RES1    0.0000
     25 H7         9.8458   11.2916   -0.5864 H         1 RES1    0.0000
     26 H8         8.2506   10.2046   -1.9696 H         1 RES1    0.0000
     27 H9         7.7017   10.0279   -0.5533 H         1 RES1    0.0000
     28 H10        8.9882    7.7723   -0.7192 H         1 RES1    0.0000
     29 H11        7.4616    7.8946   -1.1176 H         1 RES1    0.0000
     30 H12        8.0448    7.8675   -3.3859 H         1 RES1    0.0000
     31 H13        9.5371    8.3566   -3.1646 H         1 RES1    0.0000
     32 H14        9.4170    6.0331   -3.8064 H         1 RES1    0.0000
     33 H15        8.6623    5.6798   -2.3568 H         1 RES1    0.0000
     34 H16       10.5491    6.2641   -1.0622 H         1 RES1    0.0000
     35 H17       10.8922    5.1227   -2.0692 H         1 RES1    0.0000
     36 H18       11.4582    7.4462   -3.4744 H         1 RES1    0.0000
     37 H19       12.5045    6.2777   -3.1757 H         1 RES1    0.0000
@<TRIPOS>BOND
     1    1    6 2
     2    2    5 2
     3    3    5 2
     4    4   10 1
     5    5    7 1
     6    6    7 1
     7    7    8 1
     8    8    9 1
     9    9   10 1
    10   10   11 2
    11   11    6 1
    12   12   11 1
    13   13   12 1
    14   14   13 1
    15   15   14 1
    16   16   15 1
    17   17   16 1
    18   18    7 1
    19   19    4 1
    20   20    8 1
    21   21    8 1
    22   22    9 1
    23   23    9 1
    24   24   12 1
    25   25   12 1
    26   26   13 1
    27   27   13 1
    28   28   14 1
    29   29   14 1
    30   30   15 1
    31   31   15 1
    32   32   16 1
    33   33   16 1
    34   34   17 1
    35   35   17 1
    36   36   18 1
    37   37   18 1
    38   17   18 1
@<TRIPOS>SUBSTRUCTURE
     1 RES1 1

@<TRIPOS>CRYSIN
  17.1530   13.5880   11.0650  90.0000  90.0000  90.0000  61 1

