# MOL2 file generated by ConQuest
# Please check atom types

@<TRIPOS>MOLECULE
VASKUV
    90    92     2
SMALL
NO_CHARGES
****
Generated from CSD

@<TRIPOS>ATOM
      1 O1         5.1413    4.4887   -1.6977 O.2       1 RES1    0.0000
      2 O2         4.9244    6.5372   -1.1497 O.2       1 RES1    0.0000
      3 O3         5.0306    6.7865    2.9959 O.3       1 RES1    0.0000
      4 O4         4.0793    4.4676    1.1099 O.2       1 RES1    0.0000
      5 N1         5.3795    5.4255   -0.9684 N.pl3     1 RES1    0.0000
      6 C1         6.2372    5.1645    0.2892 C.3       1 RES1    0.0000
      7 C2         7.2985    4.0937   -0.0281 C.3       1 RES1    0.0000
      8 C3         6.8303    2.6638   -0.3244 C.3       1 RES1    0.0000
      9 C4         7.8957    1.6077    0.0094 C.3       1 RES1    0.0000
     10 C5         7.9349    1.2244    1.4851 C.3       1 RES1    0.0000
     11 C6         6.7501    0.3707    1.9298 C.3       1 RES1    0.0000
     12 C7         6.5087    0.3208    3.4344 C.3       1 RES1    0.0000
     13 C8         6.1959    1.6740    4.0737 C.3       1 RES1    0.0000
     14 C9         4.9045    2.3422    3.5712 C.3       1 RES1    0.0000
     15 C10        4.9086    3.8579    3.7517 C.3       1 RES1    0.0000
     16 C11        5.8333    4.5562    2.7520 C.3       1 RES1    0.0000
     17 C12        6.2204    5.9929    3.1257 C.3       1 RES1    0.0000
     18 C13        7.3147    6.4870    2.1940 C.3       1 RES1    0.0000
     19 C14        6.8625    6.4997    0.7363 C.3       1 RES1    0.0000
     20 C15        5.2486    4.6679    1.3608 C.2       1 RES1    0.0000
     21 O5        -0.3667    6.0218   -2.8654 O.2       2 RES2    0.0000
     22 O6        -1.1184    7.4761   -1.4858 O.2       2 RES2    0.0000
     23 O7         2.2637    6.7490    3.2398 O.3       2 RES2    0.0000
     24 O8        -1.2383    5.4942    0.4721 O.2       2 RES2    0.0000
     25 N2        -0.3366    6.5928   -1.7977 N.pl3     2 RES2    0.0000
     26 C16        0.7171    6.1878   -0.7511 C.3       2 RES2    0.0000
     27 C17        1.6033    5.0703   -1.3154 C.3       2 RES2    0.0000
     28 C18        0.9312    3.7192   -1.5992 C.3       2 RES2    0.0000
     29 C19        1.9170    2.5407   -1.4976 C.3       2 RES2    0.0000
     30 C20        2.1936    2.1284   -0.0578 C.3       2 RES2    0.0000
     31 C21        1.0682    1.3223    0.5784 C.3       2 RES2    0.0000
     32 C22        1.1328    1.2025    2.1033 C.3       2 RES2    0.0000
     33 C23        1.1046    2.5322    2.8497 C.3       2 RES2    0.0000
     34 C24       -0.1700    3.3622    2.6489 C.3       2 RES2    0.0000
     35 C25        0.0482    4.8621    2.8732 C.3       2 RES2    0.0000
     36 C26        0.8192    5.5104    1.7195 C.3       2 RES2    0.0000
     37 C27        1.4701    6.8662    2.0486 C.3       2 RES2    0.0000
     38 C28        2.2982    7.3671    0.8879 C.3       2 RES2    0.0000
     39 C29        1.4900    7.4801   -0.4080 C.3       2 RES2    0.0000
     40 C30       -0.0491    5.7018    0.4893 C.2       2 RES2    0.0000
     41 H1         6.6368    4.0497    2.6809 H         1 RES1    0.0000
     42 H2         6.5176    5.9632    4.0800 H         1 RES1    0.0000
     43 H3         7.7965    4.4355   -0.7894 H         1 RES1    0.0000
     44 H4         7.8801    4.1018    0.7660 H         1 RES1    0.0000
     45 H5         6.0140    2.4336    0.2032 H         1 RES1    0.0000
     46 H6         6.5627    2.5642   -1.2897 H         1 RES1    0.0000
     47 H7         8.7363    1.9107   -0.2892 H         1 RES1    0.0000
     48 H8         7.7309    0.7815   -0.5237 H         1 RES1    0.0000
     49 H9         7.9807    2.0269    2.0322 H         1 RES1    0.0000
     50 H10        8.7923    0.7312    1.6805 H         1 RES1    0.0000
     51 H11        5.9118    0.6908    1.4538 H         1 RES1    0.0000
     52 H12        6.9125   -0.5273    1.5710 H         1 RES1    0.0000
     53 H13        7.3149   -0.0569    3.8533 H         1 RES1    0.0000
     54 H14        5.7473   -0.3349    3.6032 H         1 RES1    0.0000
     55 H15        7.0021    2.2983    3.9315 H         1 RES1    0.0000
     56 H16        6.1076    1.5722    5.0336 H         1 RES1    0.0000
     57 H17        4.7839    2.1343    2.6106 H         1 RES1    0.0000
     58 H18        4.1695    1.9472    4.0409 H         1 RES1    0.0000
     59 H19        4.0204    4.2356    3.6814 H         1 RES1    0.0000
     60 H20        5.2288    4.0998    4.6896 H         1 RES1    0.0000
     61 H21        5.1276    7.5371    3.4469 H         1 RES1    0.0000
     62 H22        7.5785    7.4291    2.4464 H         1 RES1    0.0000
     63 H23        8.1197    5.9173    2.3057 H         1 RES1    0.0000
     64 H24        6.1919    7.1922    0.6331 H         1 RES1    0.0000
     65 H25        7.5873    6.6724    0.1251 H         1 RES1    0.0000
     66 H26        0.7370    7.5490    2.2823 H         2 RES2    0.0000
     67 H27        2.3258    4.9640   -0.6566 H         2 RES2    0.0000
     68 H28        2.0382    5.4201   -2.1416 H         2 RES2    0.0000
     69 H29        0.2061    3.5720   -0.9692 H         2 RES2    0.0000
     70 H30        0.5217    3.7500   -2.5246 H         2 RES2    0.0000
     71 H31        2.7655    2.7701   -1.9618 H         2 RES2    0.0000
     72 H32        1.5144    1.7932   -2.0087 H         2 RES2    0.0000
     73 H33        2.3451    2.9334    0.4690 H         2 RES2    0.0000
     74 H34        3.0605    1.5797   -0.0234 H         2 RES2    0.0000
     75 H35        0.2195    1.7505    0.3283 H         2 RES2    0.0000
     76 H36        1.0848    0.4166    0.1641 H         2 RES2    0.0000
     77 H37        1.9533    0.7047    2.3214 H         2 RES2    0.0000
     78 H38        0.3436    0.6510    2.4152 H         2 RES2    0.0000
     79 H39        1.8748    3.0752    2.5793 H         2 RES2    0.0000
     80 H40        1.1983    2.3394    3.8142 H         2 RES2    0.0000
     81 H41       -0.5350    3.2438    1.7508 H         2 RES2    0.0000
     82 H42       -0.8718    3.0014    3.2828 H         2 RES2    0.0000
     83 H43        0.5115    4.9972    3.6814 H         2 RES2    0.0000
     84 H44       -0.8491    5.3778    3.0014 H         2 RES2    0.0000
     85 H45        1.5213    4.9342    1.4382 H         2 RES2    0.0000
     86 H46        3.0244    6.5499    3.0248 H         2 RES2    0.0000
     87 H47        2.6585    8.2548    1.1099 H         2 RES2    0.0000
     88 H48        3.0486    6.7372    0.7425 H         2 RES2    0.0000
     89 H49        2.0909    7.6790   -1.1646 H         2 RES2    0.0000
     90 H50        0.8026    8.1948   -0.2970 H         2 RES2    0.0000
@<TRIPOS>BOND
     1    1    5 2
     2    2    5 2
     3    3   17 1
     4    4   20 2
     5    5    6 1
     6    6    7 1
     7    7    8 1
     8    8    9 1
     9    9   10 1
    10   10   11 1
    11   11   12 1
    12   12   13 1
    13   13   14 1
    14   14   15 1
    15   15   16 1
    16   16   17 1
    17   17   18 1
    18   18   19 1
    19   19    6 1
    20   20    6 1
    21   21   25 2
    22   22   25 2
    23   23   37 1
    24   24   40 2
    25   25   26 1
    26   26   27 1
    27   27   28 1
    28   28   29 1
    29   29   30 1
    30   30   31 1
    31   31   32 1
    32   32   33 1
    33   33   34 1
    34   34   35 1
    35   35   36 1
    36   36   37 1
    37   37   38 1
    38   38   39 1
    39   39   26 1
    40   40   26 1
    41   41   16 1
    42   42   17 1
    43   43    7 1
    44   44    7 1
    45   45    8 1
    46   46    8 1
    47   47    9 1
    48   48    9 1
    49   49   10 1
    50   50   10 1
    51   51   11 1
    52   52   11 1
    53   53   12 1
    54   54   12 1
    55   55   13 1
    56   56   13 1
    57   57   14 1
    58   58   14 1
    59   59   15 1
    60   60   15 1
    61   61    3 1
    62   62   18 1
    63   63   18 1
    64   64   19 1
    65   65   19 1
    66   66   37 1
    67   67   27 1
    68   68   27 1
    69   69   28 1
    70   70   28 1
    71   71   29 1
    72   72   29 1
    73   73   30 1
    74   74   30 1
    75   75   31 1
    76   76   31 1
    77   77   32 1
    78   78   32 1
    79   79   33 1
    80   80   33 1
    81   81   34 1
    82   82   34 1
    83   83   35 1
    84   84   35 1
    85   85   36 1
    86   86   23 1
    87   87   38 1
    88   88   38 1
    89   89   39 1
    90   90   39 1
    91   16   20 1
    92   36   40 1
@<TRIPOS>SUBSTRUCTURE
     1 RES1 1
     2 RES2 21

@<TRIPOS>CRYSIN
  11.3840   17.3600    8.3600  99.5700 107.4300  94.4700   2 1

