# MOL2 file generated by ConQuest
# Please check atom types

@<TRIPOS>MOLECULE
VASLEG
    56    64     2
SMALL
NO_CHARGES
****
Generated from CSD

@<TRIPOS>ATOM
      1 O1        12.3364    2.4460    2.2117 O.3       1 RES1    0.0000
      2 O2         9.8450    3.8559    2.8908 O.2       1 RES1    0.0000
      3 O3        12.8663    0.6294    3.5189 O.3       1 RES1    0.0000
      4 O4        15.7849    4.3670    5.3230 O.2       1 RES1    0.0000
      5 O5        15.9023    6.5162    4.7869 O.3       1 RES1    0.0000
      6 N1        13.5723    3.8201    0.7387 N.pl3     1 RES1    0.0000
      7 N2        10.9097    4.5484    3.2125 N.pl3     1 RES1    0.0000
      8 C1        12.9364    3.7349    2.0339 C.3       1 RES1    0.0000
      9 C2        11.8668    4.8343    2.1190 C.3       1 RES1    0.0000
     10 C3        12.5239    1.9650    3.5410 C.3       1 RES1    0.0000
     11 C4        13.6473    2.7978    4.1759 C.3       1 RES1    0.0000
     12 C5        14.1022    3.7789    3.0704 C.3       1 RES1    0.0000
     13 C6        15.2501    3.2650    2.2177 C.ar      1 RES1    0.0000
     14 C7        16.5333    2.8857    2.5751 C.ar      1 RES1    0.0000
     15 C8        17.4610    2.5889    1.5837 C.ar      1 RES1    0.0000
     16 C9        17.0909    2.6906    0.2451 C.ar      1 RES1    0.0000
     17 C10       15.7963    3.0396   -0.1396 C.ar      1 RES1    0.0000
     18 C11       14.8832    3.3309    0.8663 C.ar      1 RES1    0.0000
     19 C12       12.4880    6.2167    2.3513 C.3       1 RES1    0.0000
     20 C13       13.2331    6.1809    3.6950 C.3       1 RES1    0.0000
     21 C14       14.4511    5.2300    3.4959 C.3       1 RES1    0.0000
     22 C15       15.4213    5.2905    4.6473 C.2       1 RES1    0.0000
     23 C16       13.3603    6.9532    6.7918 C.3       1 RES1    0.0000
     24 C17       12.3478    6.0957    6.0983 C.2       1 RES1    0.0000
     25 C18       12.2809    5.7687    4.8013 C.2       1 RES1    0.0000
     26 C19       11.1331    4.9744    4.4226 C.2       1 RES1    0.0000
     27 C20       11.7657   -0.2281    3.1555 C.3       1 RES1    0.0000
     28 C21       16.8137    6.7306    5.9042 C.3       1 RES1    0.0000
     29 O6         8.5944    4.5814    6.3434 O.3       2 RES2    0.0000
     30 O7        11.1445    3.3749    7.2982 O.2       2 RES2    0.0000
     31 O8         7.8068    6.3101    7.6428 O.3       2 RES2    0.0000
     32 O9         5.0105    2.2261    9.0504 O.2       2 RES2    0.0000
     33 O10        5.0154    0.1567    8.2283 O.3       2 RES2    0.0000
     34 N3         7.6797    3.0973    4.7333 N.pl3     2 RES2    0.0000
     35 N4        10.0977    2.6054    7.5016 N.pl3     2 RES2    0.0000
     36 C22        8.1443    3.2430    6.0889 C.3       2 RES2    0.0000
     37 C23        9.3102    2.2481    6.3042 C.3       2 RES2    0.0000
     38 C24        8.2161    5.0184    7.6667 C.3       2 RES2    0.0000
     39 C25        7.0894    4.0840    8.1305 C.3       2 RES2    0.0000
     40 C26        6.8726    3.0918    6.9791 C.3       2 RES2    0.0000
     41 C27        5.7899    3.5151    5.9834 C.ar      2 RES2    0.0000
     42 C28        4.4415    3.7789    6.1817 C.ar      2 RES2    0.0000
     43 C29        3.6523    4.0043    5.0524 C.ar      2 RES2    0.0000
     44 C30        4.1904    3.9493    3.7810 C.ar      2 RES2    0.0000
     45 C31        5.5355    3.6937    3.5844 C.ar      2 RES2    0.0000
     46 C32        6.3312    3.4656    4.7077 C.ar      2 RES2    0.0000
     47 C33        8.8047    0.8135    6.4761 C.3       2 RES2    0.0000
     48 C34        7.8867    0.7750    7.6998 C.3       2 RES2    0.0000
     49 C35        6.6133    1.5913    7.3331 C.3       2 RES2    0.0000
     50 C36        5.4866    1.4099    8.3058 C.2       2 RES2    0.0000
     51 C37        7.3405    0.0495   10.7158 C.3       2 RES2    0.0000
     52 C38        8.3922    0.9729   10.1865 C.2       2 RES2    0.0000
     53 C39        8.6368    1.2890    8.8989 C.2       2 RES2    0.0000
     54 C40        9.7683    2.1602    8.6819 C.2       2 RES2    0.0000
     55 C41        8.9091    7.2308    7.3926 C.3       2 RES2    0.0000
     56 C42        3.9230   -0.2061    9.1108 C.3       2 RES2    0.0000
@<TRIPOS>BOND
     1    1    8 1
     2    2    7 1
     3    3   10 1
     4    4   22 2
     5    5   22 1
     6    6    8 1
     7    7    9 1
     8    8    9 1
     9    9   19 1
    10   10    1 1
    11   11   10 1
    12   12    8 1
    13   13   12 1
    14   14   13 ar
    15   15   14 ar
    16   16   15 ar
    17   17   16 ar
    18   18    6 1
    19   19   20 1
    20   20   21 1
    21   21   12 1
    22   22   21 1
    23   23   24 1
    24   24   25 2
    25   25   20 1
    26   26    7 2
    27   27    3 1
    28   28    5 1
    29   29   36 1
    30   30   35 1
    31   31   38 1
    32   32   50 2
    33   33   50 1
    34   34   36 1
    35   35   37 1
    36   36   37 1
    37   37   47 1
    38   38   29 1
    39   39   38 1
    40   40   36 1
    41   41   40 1
    42   42   41 ar
    43   43   42 ar
    44   44   43 ar
    45   45   44 ar
    46   46   34 1
    47   47   48 1
    48   48   49 1
    49   49   40 1
    50   50   49 1
    51   51   52 1
    52   52   53 2
    53   53   48 1
    54   54   35 2
    55   55   31 1
    56   56   33 1
    57   11   12 1
    58   13   18 ar
    59   17   18 ar
    60   25   26 1
    61   39   40 1
    62   41   46 ar
    63   45   46 ar
    64   53   54 1
@<TRIPOS>SUBSTRUCTURE
     1 RES1 1
     2 RES2 29

@<TRIPOS>CRYSIN
  16.3050   27.4830    8.5100  90.0000  90.0000  90.0000  19 1

