# MOL2 file generated by ConQuest
# Please check atom types

@<TRIPOS>MOLECULE
VASQEL
    68    71     1
SMALL
NO_CHARGES
****
Generated from CSD

@<TRIPOS>ATOM
      1 O1        -2.3236    6.7884    5.8915 O.2       1 RES1    0.0000
      2 O2        -1.0132    5.3271    6.8007 O.2       1 RES1    0.0000
      3 O3         2.3584    3.9481    2.1833 O.3       1 RES1    0.0000
      4 O4         1.1192    6.9154    5.6279 O.2       1 RES1    0.0000
      5 O5         3.8948    0.7627    1.6270 O.3       1 RES1    0.0000
      6 O6         4.6762   -0.8912    0.3209 O.2       1 RES1    0.0000
      7 O7         2.3667    2.0467    3.3989 O.2       1 RES1    0.0000
      8 N1        -1.4023    5.9929    5.8481 N.pl3     1 RES1    0.0000
      9 C1        -0.6747    5.7755    4.5065 C.3       1 RES1    0.0000
     10 C2        -1.2616    6.6391    3.4011 C.3       1 RES1    0.0000
     11 C3        -1.0604    8.1625    3.4619 C.3       1 RES1    0.0000
     12 C4        -1.2202    8.7951    2.0696 C.3       1 RES1    0.0000
     13 C5        -0.0290    8.5405    1.1518 C.3       1 RES1    0.0000
     14 C6         1.2119    9.3609    1.5140 C.3       1 RES1    0.0000
     15 C7         2.5339    8.7815    1.0221 C.3       1 RES1    0.0000
     16 C8         2.9188    7.4323    1.6408 C.3       1 RES1    0.0000
     17 C9         3.1804    7.5055    3.1468 C.3       1 RES1    0.0000
     18 C10        3.1738    6.1346    3.8524 C.3       1 RES1    0.0000
     19 C11        1.7872    5.5300    3.8451 C.2       1 RES1    0.0000
     20 C12        1.4180    4.4979    3.0773 C.2       1 RES1    0.0000
     21 C13        0.0447    3.9057    2.9729 C.3       1 RES1    0.0000
     22 C14       -0.7947    4.2721    4.1899 C.3       1 RES1    0.0000
     23 C15        0.8005    6.1290    4.7564 C.2       1 RES1    0.0000
     24 C16        3.7301    2.2025    1.4068 C.3       1 RES1    0.0000
     25 C17        4.4022    0.2743    0.4513 C.2       1 RES1    0.0000
     26 C18        4.5711    1.4398   -0.4911 C.3       1 RES1    0.0000
     27 C19        5.7466    2.2385    0.1434 C.3       1 RES1    0.0000
     28 C20        5.1555    2.7766    1.4742 C.3       1 RES1    0.0000
     29 C21        3.3302    2.2982   -0.0869 C.3       1 RES1    0.0000
     30 C22        2.7574    2.6701    2.4535 C.2       1 RES1    0.0000
     31 C23        4.7648    1.0358   -1.9385 C.3       1 RES1    0.0000
     32 C24        3.3385    3.6983   -0.6795 C.3       1 RES1    0.0000
     33 C25        1.9967    1.6195   -0.3810 C.3       1 RES1    0.0000
     34 H1        -0.8278    6.2579    2.6368 H         1 RES1    0.0000
     35 H2        -2.2019    6.4101    3.3540 H         1 RES1    0.0000
     36 H3        -1.6639    8.5321    4.1146 H         1 RES1    0.0000
     37 H4        -0.1407    8.4120    3.8176 H         1 RES1    0.0000
     38 H5        -2.1109    8.4760    1.6444 H         1 RES1    0.0000
     39 H6        -1.3328    9.6932    2.1949 H         1 RES1    0.0000
     40 H7         0.1987    7.5632    1.1880 H         1 RES1    0.0000
     41 H8        -0.3146    8.7443    0.2028 H         1 RES1    0.0000
     42 H9         1.1258   10.3178    1.1228 H         1 RES1    0.0000
     43 H10        1.2169    9.4049    2.4992 H         1 RES1    0.0000
     44 H11        3.2615    9.3449    1.1663 H         1 RES1    0.0000
     45 H12        2.5000    8.6562    0.0580 H         1 RES1    0.0000
     46 H13        2.1937    6.7264    1.4705 H         1 RES1    0.0000
     47 H14        3.7168    7.1548    1.2242 H         1 RES1    0.0000
     48 H15        2.5000    8.1277    3.5930 H         1 RES1    0.0000
     49 H16        4.0479    7.9916    3.3178 H         1 RES1    0.0000
     50 H17        3.8079    5.5533    3.4554 H         1 RES1    0.0000
     51 H18        3.5099    6.1739    4.8245 H         1 RES1    0.0000
     52 H19        0.1407    2.9148    2.9411 H         1 RES1    0.0000
     53 H20       -0.3808    4.2440    2.1152 H         1 RES1    0.0000
     54 H21       -0.4884    3.7436    4.9766 H         1 RES1    0.0000
     55 H22       -1.7549    4.0639    4.0059 H         1 RES1    0.0000
     56 H23        6.5396    1.6936    0.3042 H         1 RES1    0.0000
     57 H24        6.0512    2.9588   -0.4491 H         1 RES1    0.0000
     58 H25        5.1158    3.7395    1.4850 H         1 RES1    0.0000
     59 H26        5.5877    2.4503    2.2529 H         1 RES1    0.0000
     60 H27        4.9006    1.8458   -2.4774 H         1 RES1    0.0000
     61 H28        3.9652    0.5245   -2.2746 H         1 RES1    0.0000
     62 H29        5.5959    0.3804   -1.9776 H         1 RES1    0.0000
     63 H30        2.5745    4.1760   -0.3694 H         1 RES1    0.0000
     64 H31        3.3278    3.5834   -1.6589 H         1 RES1    0.0000
     65 H32        4.1556    4.2480   -0.4709 H         1 RES1    0.0000
     66 H33        1.2748    2.1060    0.0580 H         1 RES1    0.0000
     67 H34        2.0116    0.5565   -0.0797 H         1 RES1    0.0000
     68 H35        1.8212    1.6336   -1.3184 H         1 RES1    0.0000
@<TRIPOS>BOND
     1    1    8 2
     2    2    8 2
     3    3   20 1
     4    4   23 2
     5    5   24 1
     6    6   25 2
     7    7   30 2
     8    8    9 1
     9    9   10 1
    10   10   11 1
    11   11   12 1
    12   12   13 1
    13   13   14 1
    14   14   15 1
    15   15   16 1
    16   16   17 1
    17   17   18 1
    18   18   19 1
    19   19   20 2
    20   20   21 1
    21   21   22 1
    22   22    9 1
    23   23    9 1
    24   24   28 1
    25   25    5 1
    26   26   25 1
    27   27   26 1
    28   28   27 1
    29   29   24 1
    30   30    3 1
    31   31   26 1
    32   32   29 1
    33   33   29 1
    34   34   10 1
    35   35   10 1
    36   36   11 1
    37   37   11 1
    38   38   12 1
    39   39   12 1
    40   40   13 1
    41   41   13 1
    42   42   14 1
    43   43   14 1
    44   44   15 1
    45   45   15 1
    46   46   16 1
    47   47   16 1
    48   48   17 1
    49   49   17 1
    50   50   18 1
    51   51   18 1
    52   52   21 1
    53   53   21 1
    54   54   22 1
    55   55   22 1
    56   56   27 1
    57   57   27 1
    58   58   28 1
    59   59   28 1
    60   60   31 1
    61   61   31 1
    62   62   31 1
    63   63   32 1
    64   64   32 1
    65   65   32 1
    66   66   33 1
    67   67   33 1
    68   68   33 1
    69   19   23 1
    70   24   30 1
    71   26   29 1
@<TRIPOS>SUBSTRUCTURE
     1 RES1 1

@<TRIPOS>CRYSIN
   8.2780   40.0380    7.2440  90.0000  90.0000  90.0000  19 1

