# MOL2 file generated by ConQuest
# Please check atom types

@<TRIPOS>MOLECULE
VASTAM
    50    54     1
SMALL
NO_CHARGES
****
Generated from CSD

@<TRIPOS>ATOM
      1 C1         5.8995   10.9374    3.0686 C.ar      1 RES1    0.0000
      2 C2         5.3914    9.6626    3.1988 C.ar      1 RES1    0.0000
      3 H1         5.8718    8.9540    2.8364 H         1 RES1    0.0000
      4 C3         4.1941    9.3907    3.8475 C.ar      1 RES1    0.0000
      5 C4         3.3987   10.3760    4.4292 C.ar      1 RES1    0.0000
      6 C5         3.8852   11.6884    4.3034 C.ar      1 RES1    0.0000
      7 C6         3.3906   12.9648    4.7891 C.ar      1 RES1    0.0000
      8 C7         2.2727   13.3868    5.5114 C.ar      1 RES1    0.0000
      9 H2         1.6349   12.7721    5.7953 H         1 RES1    0.0000
     10 C8         2.1277   14.7232    5.7962 C.ar      1 RES1    0.0000
     11 H3         1.3862   15.0073    6.2793 H         1 RES1    0.0000
     12 C9         3.0674   15.6591    5.3767 C.ar      1 RES1    0.0000
     13 H4         2.9436   16.5569    5.5818 H         1 RES1    0.0000
     14 C10        4.1806   15.2728    4.6607 C.ar      1 RES1    0.0000
     15 H5         4.8125   15.8947    4.3782 H         1 RES1    0.0000
     16 C11        4.3207   13.9282    4.3792 C.ar      1 RES1    0.0000
     17 N1         5.3390   13.2984    3.6720 N.pl3     1 RES1    0.0000
     18 H6         6.0255   13.7596    3.2834 H         1 RES1    0.0000
     19 C12        5.1007   11.9493    3.6248 C.ar      1 RES1    0.0000
     20 C13        7.1954   11.1630    2.3972 C.ar      1 RES1    0.0000
     21 C14        8.2424   10.2639    2.6042 C.ar      1 RES1    0.0000
     22 H7         8.1395    9.5695    3.2136 H         1 RES1    0.0000
     23 C15        9.4301   10.3952    1.9127 C.ar      1 RES1    0.0000
     24 H8        10.1091    9.7763    2.0554 H         1 RES1    0.0000
     25 C16        9.6343   11.4173    1.0187 C.ar      1 RES1    0.0000
     26 C17        8.6055   12.3302    0.8370 C.ar      1 RES1    0.0000
     27 H9         8.7258   13.0423    0.2505 H         1 RES1    0.0000
     28 C18        7.4070   12.2015    1.5106 C.ar      1 RES1    0.0000
     29 H10        6.7311   12.8238    1.3653 H         1 RES1    0.0000
     30 C19       10.9440   11.5433    0.2515 C.3       1 RES1    0.0000
     31 H11       11.5708   12.0515    0.7714 H         1 RES1    0.0000
     32 H12       10.7845   11.9881   -0.5833 H         1 RES1    0.0000
     33 H13       11.3026   10.6687    0.0845 H         1 RES1    0.0000
     34 C20        2.1121   10.1685    5.1501 C.ar      1 RES1    0.0000
     35 C21        2.0919   10.0856    6.5255 C.ar      1 RES1    0.0000
     36 H14        2.8964   10.0832    6.9916 H         1 RES1    0.0000
     37 C22        0.9116   10.0075    7.2258 C.ar      1 RES1    0.0000
     38 H15        0.9321    9.9598    8.1540 H         1 RES1    0.0000
     39 C23       -0.2993    9.9978    6.5752 C.ar      1 RES1    0.0000
     40 C24       -0.2854   10.0722    5.2046 C.ar      1 RES1    0.0000
     41 H16       -1.0913   10.0616    4.7407 H         1 RES1    0.0000
     42 C25        0.9018   10.1616    4.4963 C.ar      1 RES1    0.0000
     43 H17        0.8805   10.2184    3.5687 H         1 RES1    0.0000
     44 C26       -1.5975    9.9211    7.3519 C.3       1 RES1    0.0000
     45 H18       -1.7901   10.7788    7.7398 H         1 RES1    0.0000
     46 H19       -1.5147    9.2659    8.0494 H         1 RES1    0.0000
     47 H20       -2.3104    9.6712    6.7601 H         1 RES1    0.0000
     48 N2         3.7872    7.9837    3.8738 N.pl3     1 RES1    0.0000
     49 O1         4.2878    7.2256    3.0624 O.2       1 RES1    0.0000
     50 O2         2.9860    7.5984    4.7049 O.2       1 RES1    0.0000
@<TRIPOS>BOND
     1    1    2 ar
     2    2    3 1
     3    4    2 ar
     4    5    4 ar
     5    6    5 ar
     6    7    6 1
     7    8    7 ar
     8    9    8 1
     9   10    8 ar
    10   11   10 1
    11   12   10 ar
    12   13   12 1
    13   14   12 ar
    14   15   14 1
    15   16    7 ar
    16   17   16 1
    17   18   17 1
    18   19    1 ar
    19   20    1 1
    20   21   20 ar
    21   22   21 1
    22   23   21 ar
    23   24   23 1
    24   25   23 ar
    25   26   25 ar
    26   27   26 1
    27   28   20 ar
    28   29   28 1
    29   30   25 1
    30   31   30 1
    31   32   30 1
    32   33   30 1
    33   34    5 1
    34   35   34 ar
    35   36   35 1
    36   37   35 ar
    37   38   37 1
    38   39   37 ar
    39   40   39 ar
    40   41   40 1
    41   42   34 ar
    42   43   42 1
    43   44   39 1
    44   45   44 1
    45   46   44 1
    46   47   44 1
    47   48    4 1
    48   49   48 2
    49   50   48 2
    50    6   19 ar
    51   14   16 ar
    52   17   19 1
    53   26   28 ar
    54   40   42 ar
@<TRIPOS>SUBSTRUCTURE
     1 RES1 1

@<TRIPOS>CRYSIN
  11.8668   16.6803   10.7031  90.0000  99.1240  90.0000  14 1

