# MOL2 file generated by ConQuest
# Please check atom types

@<TRIPOS>MOLECULE
VATNIP
    28    30     1
SMALL
USER_CHARGES
****
Generated from CSD

@<TRIPOS>ATOM
      1 C1         6.3438    1.8465    2.2650 C.ar      1 RES1    0.0000
      2 C2         6.3293    2.8896    1.2356 C.2       1 RES1    0.0000
      3 H1         6.1650    3.7599    1.5203 H         1 RES1    0.0000
      4 C3         6.4545    3.7237   -1.1119 C.2       1 RES1    0.0000
      5 C4         6.5240    2.7143   -0.0412 C.2       1 RES1    0.0000
      6 H2         6.7324    1.8478   -0.3079 H         1 RES1    0.0000
      7 O1         6.5008    5.5104   -5.2643 O.3       1 RES1    0.0000
      8 N1         6.2910    6.3973   -4.2311 N.2       1 RES1    0.0000
      9 O2         6.8887    3.2592   -5.4821 O.2       1 RES1   -1.0000
     10 C5         6.6304    3.3286   -2.3977 C.2       1 RES1    0.0000
     11 H3         6.8004    2.4394   -2.6077 H         1 RES1    0.0000
     12 N2         6.6716    4.1774   -4.7091 N.pl3     1 RES1    1.0000
     13 C6         6.2186    5.1095   -0.8375 C.2       1 RES1    0.0000
     14 H4         6.1013    5.3656    0.0490 H         1 RES1    0.0000
     15 C7         6.3177    5.6632   -3.1218 C.2       1 RES1    0.0000
     16 C8         6.5471    4.3036   -3.3962 C.2       1 RES1    0.0000
     17 C9         6.2823    0.4881    1.9713 C.ar      1 RES1    0.0000
     18 H5         6.2555    0.2144    1.0823 H         1 RES1    0.0000
     19 C10        6.2895   -0.0769    4.2723 C.ar      1 RES1    0.0000
     20 H6         6.2656   -0.7240    4.9384 H         1 RES1    0.0000
     21 C11        6.1578    6.0618   -1.7857 C.2       1 RES1    0.0000
     22 H7         6.0145    6.9535   -1.5628 H         1 RES1    0.0000
     23 C12        6.3734    2.2022    3.6075 C.ar      1 RES1    0.0000
     24 H8         6.4075    3.1015    3.8407 H         1 RES1    0.0000
     25 C13        6.2598   -0.4541    2.9672 C.ar      1 RES1    0.0000
     26 H9         6.2236   -1.3572    2.7482 H         1 RES1    0.0000
     27 C14        6.3532    1.2373    4.6112 C.ar      1 RES1    0.0000
     28 H10        6.3836    1.4896    5.5053 H         1 RES1    0.0000
@<TRIPOS>BOND
     1    1    2 1
     2    2    3 1
     3    4    5 1
     4    5    2 2
     5    6    5 1
     6    7    8 1
     7    8   15 2
     8    9   12 1
     9   10    4 2
    10   11   10 1
    11   12    7 1
    12   13    4 1
    13   14   13 1
    14   15   16 1
    15   16   10 1
    16   17    1 ar
    17   18   17 1
    18   19   20 1
    19   21   13 2
    20   22   21 1
    21   23    1 ar
    22   24   23 1
    23   25   17 ar
    24   26   25 1
    25   27   19 ar
    26   28   27 1
    27   12   16 2
    28   15   21 1
    29   19   25 ar
    30   23   27 ar
@<TRIPOS>SUBSTRUCTURE
     1 RES1 1

@<TRIPOS>CRYSIN
   7.2368   12.6130   12.8840  90.0000  90.0000  90.0000  19 1

