# MOL2 file generated by ConQuest
# Please check atom types

@<TRIPOS>MOLECULE
VATPAI
    19    18     1
SMALL
NO_CHARGES
****
Generated from CSD

@<TRIPOS>ATOM
      1 O1         3.6786    4.4027    1.2410 O.3       1 RES1    0.0000
      2 H1         4.2323    4.1563    0.4541 H         1 RES1    0.0000
      3 N1         3.4153    5.7375    0.9082 N.2       1 RES1    0.0000
      4 C1         2.6164    6.2967    1.7382 C.2       1 RES1    0.0000
      5 C2         2.0155    5.6033    2.9075 C.3       1 RES1    0.0000
      6 H2         1.3239    6.1314    3.3281 H         1 RES1    0.0000
      7 H3         1.6169    4.7315    2.6709 H         1 RES1    0.0000
      8 H4         2.6913    5.3826    3.5671 H         1 RES1    0.0000
      9 C3         2.3325    7.7585    1.4938 C.3       1 RES1    0.0000
     10 H5         2.8541    8.0739    0.7230 H         1 RES1    0.0000
     11 C1F        0.8707    8.0424    1.2494 C.2       1 RES1    0.0000
     12 N1F        0.3115    8.8413    2.0793 N.2       1 RES1    0.0000
     13 O1F       -1.0233    9.1046    1.7465 O.3       1 RES1    0.0000
     14 H1F       -1.2697    9.6583    2.5334 H         1 RES1    0.0000
     15 C2F        0.1773    7.4415    0.0801 C.3       1 RES1    0.0000
     16 H2F        0.7054    6.7499   -0.3406 H         1 RES1    0.0000
     17 H3F       -0.6945    7.0429    0.3167 H         1 RES1    0.0000
     18 H4F       -0.0434    8.1173   -0.5796 H         1 RES1    0.0000
     19 H5F        2.6479    8.2801    2.2646 H         1 RES1    0.0000
@<TRIPOS>BOND
     1    1    2 1
     2    3    1 1
     3    4    3 2
     4    5    4 1
     5    6    5 1
     6    7    5 1
     7    8    5 1
     8    9    4 1
     9   10    9 1
    10   11    9 1
    11   12   11 2
    12   13   12 1
    13   14   13 1
    14   15   11 1
    15   16   15 1
    16   17   15 1
    17   18   15 1
    18   19    9 1
@<TRIPOS>SUBSTRUCTURE
     1 RES1 1

@<TRIPOS>CRYSIN
  10.8520   10.8520    5.9751  90.0000  90.0000  90.0000 118 1

