# MOL2 file generated by ConQuest
# Please check atom types

@<TRIPOS>MOLECULE
VATWUK
    31    32     1
SMALL
NO_CHARGES
****
Generated from CSD

@<TRIPOS>ATOM
      1 N1         1.9799    8.0363    8.8969 N.pl3     1 RES1    0.0000
      2 O1         4.2126    6.3291    4.5907 O.2       1 RES1    0.0000
      3 O2         4.3204    5.0561    2.3698 O.3       1 RES1    0.0000
      4 H1         4.5059    5.6478    2.9069 H         1 RES1    0.0000
      5 O3         2.2575    0.7758    2.2112 O.3       1 RES1    0.0000
      6 O4         1.5623    8.8284    8.0909 O.2       1 RES1    0.0000
      7 O5         1.9026    8.2160   10.0890 O.2       1 RES1    0.0000
      8 C1         3.6362    5.3587    5.1157 C.2       1 RES1    0.0000
      9 C2         3.2562    4.1929    4.3516 C.ar      1 RES1    0.0000
     10 C3         3.6362    4.0842    2.9950 C.ar      1 RES1    0.0000
     11 C4         3.3243    2.9433    2.2590 C.ar      1 RES1    0.0000
     12 H2         3.5979    2.8694    1.3742 H         1 RES1    0.0000
     13 C5         2.6109    1.9288    2.8468 C.ar      1 RES1    0.0000
     14 C6         2.1761    2.0233    4.1690 C.ar      1 RES1    0.0000
     15 H3         1.6691    1.3441    4.5520 H         1 RES1    0.0000
     16 C7         2.5084    3.1294    4.8860 C.ar      1 RES1    0.0000
     17 H4         2.2277    3.1855    5.7720 H         1 RES1    0.0000
     18 C8         2.7809    0.5421    0.9062 C.3       1 RES1    0.0000
     19 H5         2.3342    1.1104    0.2753 H         1 RES1    0.0000
     20 H6         2.6405   -0.3765    0.6651 H         1 RES1    0.0000
     21 H7         3.7216    0.7339    0.9007 H         1 RES1    0.0000
     22 C9         3.3559    5.4582    6.5936 C.ar      1 RES1    0.0000
     23 C10        2.8198    6.6545    7.0662 C.ar      1 RES1    0.0000
     24 H8         2.6143    7.3465    6.4789 H         1 RES1    0.0000
     25 C11        2.5991    6.7923    8.4208 C.ar      1 RES1    0.0000
     26 C12        2.9436    5.8134    9.3237 C.ar      1 RES1    0.0000
     27 H9         2.8027    5.9363   10.2336 H         1 RES1    0.0000
     28 C13        3.4990    4.6540    8.8513 C.ar      1 RES1    0.0000
     29 H10        3.7450    3.9855    9.4497 H         1 RES1    0.0000
     30 C14        3.6967    4.4671    7.5018 C.ar      1 RES1    0.0000
     31 H11        4.0621    3.6679    7.1968 H         1 RES1    0.0000
@<TRIPOS>BOND
     1    1    6 2
     2    2    8 2
     3    3    4 1
     4    5   13 1
     5    7    1 2
     6    8    9 1
     7    9   10 ar
     8   10    3 1
     9   11   10 ar
    10   12   11 1
    11   13   11 ar
    12   14   13 ar
    13   15   14 1
    14   16    9 ar
    15   17   16 1
    16   18    5 1
    17   19   18 1
    18   20   18 1
    19   21   18 1
    20   22    8 1
    21   23   22 ar
    22   24   23 1
    23   25    1 1
    24   26   25 ar
    25   27   26 1
    26   28   26 ar
    27   29   28 1
    28   30   22 ar
    29   31   30 1
    30   14   16 ar
    31   23   25 ar
    32   28   30 ar
@<TRIPOS>SUBSTRUCTURE
     1 RES1 1

@<TRIPOS>CRYSIN
   3.9318    7.1042   22.0400  90.0000  92.3140  90.0000   4 1

