# MOL2 file generated by ConQuest
# Please check atom types

@<TRIPOS>MOLECULE
VATXAR
    34    35     1
SMALL
NO_CHARGES
****
Generated from CSD

@<TRIPOS>ATOM
      1 N1         3.4654    9.4309    0.9139 N.pl3     1 RES1    0.0000
      2 O1         0.8468    7.8684    5.0465 O.2       1 RES1    0.0000
      3 O2         0.6292    7.2095    7.5067 O.3       1 RES1    0.0000
      4 H1         0.5163    7.1551    6.6974 H         1 RES1    0.0000
      5 O3         2.5484    9.8745   10.7787 O.3       1 RES1    0.0000
      6 O4         3.8271    8.2611    1.0125 O.2       1 RES1    0.0000
      7 O5         3.6000   10.0827   -0.1038 O.2       1 RES1    0.0000
      8 C1         1.4427    8.9318    5.3683 C.2       1 RES1    0.0000
      9 C2         1.7088    9.2393    6.7695 C.ar      1 RES1    0.0000
     10 C3         1.3260    8.3344    7.7901 C.ar      1 RES1    0.0000
     11 C4         1.6084    8.5947    9.0961 C.ar      1 RES1    0.0000
     12 H2         1.3416    7.9914    9.7534 H         1 RES1    0.0000
     13 C5         2.2792    9.7338    9.4623 C.ar      1 RES1    0.0000
     14 C6         2.6795   10.6658    8.4964 C.ar      1 RES1    0.0000
     15 H3         3.1105   11.4525    8.7444 H         1 RES1    0.0000
     16 C7         2.4177   10.3879    7.1673 C.ar      1 RES1    0.0000
     17 H4         2.7196   10.9793    6.5158 H         1 RES1    0.0000
     18 C8         3.2017   11.0751   11.2469 C.3       1 RES1    0.0000
     19 H5         2.6430   11.8499   11.0797 H         1 RES1    0.0000
     20 H6         4.0470   11.1993   10.7885 H         1 RES1    0.0000
     21 C9         3.4331   10.9083   12.7374 C.3       1 RES1    0.0000
     22 H7         2.6119   11.0574   13.2074 H         1 RES1    0.0000
     23 H8         4.0912   11.5447   13.0315 H         1 RES1    0.0000
     24 H9         3.7492   10.0188   12.9133 H         1 RES1    0.0000
     25 C10        1.8260    9.8449    4.2497 C.ar      1 RES1    0.0000
     26 C11        2.4511    9.2665    3.1253 C.ar      1 RES1    0.0000
     27 H10        2.6482    8.3581    3.1108 H         1 RES1    0.0000
     28 C12        2.7591   10.0602    2.0729 C.ar      1 RES1    0.0000
     29 C13        2.4676   11.4087    2.0182 C.ar      1 RES1    0.0000
     30 H11        2.6755   11.9149    1.2657 H         1 RES1    0.0000
     31 C14        1.8564   11.9765    3.1051 C.ar      1 RES1    0.0000
     32 H12        1.6425   12.8813    3.0878 H         1 RES1    0.0000
     33 C15        1.5617   11.2372    4.2151 C.ar      1 RES1    0.0000
     34 H13        1.1826   11.6512    4.9560 H         1 RES1    0.0000
@<TRIPOS>BOND
     1    1    6 2
     2    2    8 2
     3    3    4 1
     4    5   13 1
     5    7    1 2
     6    8    9 1
     7    9   10 ar
     8   10    3 1
     9   11   10 ar
    10   12   11 1
    11   13   11 ar
    12   14   13 ar
    13   15   14 1
    14   16    9 ar
    15   17   16 1
    16   18    5 1
    17   19   18 1
    18   20   18 1
    19   21   18 1
    20   22   21 1
    21   23   21 1
    22   24   21 1
    23   25    8 1
    24   26   25 ar
    25   27   26 1
    26   28    1 1
    27   29   28 ar
    28   30   29 1
    29   31   29 ar
    30   32   31 1
    31   33   25 ar
    32   34   33 1
    33   14   16 ar
    34   26   28 ar
    35   31   33 ar
@<TRIPOS>SUBSTRUCTURE
     1 RES1 1

@<TRIPOS>CRYSIN
   3.9765   11.8286   28.8670  90.0000  92.8710  90.0000 231 1

