# MOL2 file generated by ConQuest
# Please check atom types

@<TRIPOS>MOLECULE
VATYOE
    43    45     1
SMALL
NO_CHARGES
****
Generated from CSD

@<TRIPOS>ATOM
      1 C1        -0.6754    2.4056    1.8176 C.2       1 RES1    0.0000
      2 C2        -2.0772    3.4690    0.2120 C.2       1 RES1    0.0000
      3 C3        -3.0195    2.4660    0.3705 C.2       1 RES1    0.0000
      4 C4        -4.2269    2.5511   -0.3155 C.2       1 RES1    0.0000
      5 C5        -4.4965    3.6123   -1.1216 C.2       1 RES1    0.0000
      6 C6        -3.5288    4.6231   -1.3069 C.2       1 RES1    0.0000
      7 C7        -2.3318    4.5302   -0.6376 C.2       1 RES1    0.0000
      8 C8        -5.8417    3.7164   -1.8043 C.3       1 RES1    0.0000
      9 C9        -3.7693    5.7694   -2.2449 C.3       1 RES1    0.0000
     10 C10        0.5134    2.4134    2.6639 C.ar      1 RES1    0.0000
     11 C11        1.5746    1.5795    2.3885 C.ar      1 RES1    0.0000
     12 C12        2.7059    1.6690    3.1896 C.ar      1 RES1    0.0000
     13 C13        2.7787    2.5567    4.2445 C.ar      1 RES1    0.0000
     14 C14        1.6983    3.3604    4.5082 C.ar      1 RES1    0.0000
     15 C15        0.5504    3.3134    3.7288 C.ar      1 RES1    0.0000
     16 C16       -0.5936    4.2515    3.9891 C.3       1 RES1    0.0000
     17 C17        4.0434    2.6642    5.0741 C.3       1 RES1    0.0000
     18 C18        1.5211    0.6067    1.2468 C.3       1 RES1    0.0000
     19 N1        -2.7639    1.4004    1.2068 N.pl3     1 RES1    0.0000
     20 N2        -1.6063    1.4093    1.9545 N.pl3     1 RES1    0.0000
     21 N3        -0.8829    3.3862    0.9330 N.pl3     1 RES1    0.0000
     22 O1        -3.5414    0.4332    1.3670 O.2       1 RES1    0.0000
     23 O2        -1.4318    0.4612    2.7523 O.2       1 RES1    0.0000
     24 O3         0.0097    4.2873    0.7644 O.2       1 RES1    0.0000
     25 H1        -4.8290    1.8313   -0.2003 H         1 RES1    0.0000
     26 H2        -1.6976    5.1951   -0.6910 H         1 RES1    0.0000
     27 H3        -6.3111    2.8500   -1.7359 H         1 RES1    0.0000
     28 H4        -5.7928    3.9425   -2.6706 H         1 RES1    0.0000
     29 H5        -6.3535    4.4854   -1.4538 H         1 RES1    0.0000
     30 H6        -3.0185    6.4074   -2.1865 H         1 RES1    0.0000
     31 H7        -4.4581    6.3168   -1.9412 H         1 RES1    0.0000
     32 H8         3.4328    1.1395    3.0044 H         1 RES1    0.0000
     33 H9         1.6401    4.0063    5.2209 H         1 RES1    0.0000
     34 H10       -1.4925    3.8619    3.8172 H         1 RES1    0.0000
     35 H11       -0.6088    4.9880    3.3148 H         1 RES1    0.0000
     36 H12       -0.6322    4.5436    4.9188 H         1 RES1    0.0000
     37 H13        4.3974    3.6168    5.1074 H         1 RES1    0.0000
     38 H14        4.6991    2.2589    4.7402 H         1 RES1    0.0000
     39 H15        3.9203    2.4179    5.9270 H         1 RES1    0.0000
     40 H16        2.3806    0.2418    1.0782 H         1 RES1    0.0000
     41 H17        1.1233    1.1183    0.4507 H         1 RES1    0.0000
     42 H18        0.7306    0.0123    1.3803 H         1 RES1    0.0000
     43 H19       -3.9164    5.5231   -3.2180 H         1 RES1    0.0000
@<TRIPOS>BOND
     1    1   10 1
     2    2    3 1
     3    3    4 1
     4    4    5 2
     5    5    6 1
     6    6    7 2
     7    7    2 1
     8    8    5 1
     9    9    6 1
    10   10   11 ar
    11   11   12 ar
    12   12   13 ar
    13   13   14 ar
    14   14   15 ar
    15   15   10 ar
    16   16   15 1
    17   17   13 1
    18   18   11 1
    19   19    3 2
    20   20    1 2
    21   21    1 1
    22   22   19 1
    23   23   20 1
    24   24   21 1
    25   25    4 1
    26   26    7 1
    27   27    8 1
    28   28    8 1
    29   29    8 1
    30   30    9 1
    31   31    9 1
    32   32   12 1
    33   33   14 1
    34   34   16 1
    35   35   16 1
    36   36   16 1
    37   37   17 1
    38   38   17 1
    39   39   17 1
    40   40   18 1
    41   41   18 1
    42   42   18 1
    43   43    9 1
    44    2   21 2
    45   19   20 1
@<TRIPOS>SUBSTRUCTURE
     1 RES1 1

@<TRIPOS>CRYSIN
   8.7220   11.1940   16.6910  90.0000  90.1200  90.0000 231 1

