# MOL2 file generated by ConQuest
# Please check atom types

@<TRIPOS>MOLECULE
VAVMEM
    57    59     1
SMALL
NO_CHARGES
****
Generated from CSD

@<TRIPOS>ATOM
      1 C1         7.1096    5.1207   16.8154 C.3       1 RES1    0.0000
      2 H1         8.0090    5.4811   16.9614 H         1 RES1    0.0000
      3 H2         6.4974    5.4909   17.4849 H         1 RES1    0.0000
      4 H3         6.8010    5.3679   15.9190 H         1 RES1    0.0000
      5 C2         7.1423    3.5945   16.9427 C.3       1 RES1    0.0000
      6 H4         7.4345    3.3736   17.8746 H         1 RES1    0.0000
      7 C3         8.1881    3.0285   15.9833 C.3       1 RES1    0.0000
      8 H5         7.9436    3.2821   15.0588 H         1 RES1    0.0000
      9 H6         9.0655    3.4400   16.1865 H         1 RES1    0.0000
     10 C4         8.3257    1.5208   16.0583 C.3       1 RES1    0.0000
     11 H7         8.6670    1.2606   16.9498 H         1 RES1    0.0000
     12 H8         8.9737    1.2105   15.3771 H         1 RES1    0.0000
     13 C5         6.9663    0.8600   15.8148 C.3       1 RES1    0.0000
     14 H9         6.6665    1.0461   14.8905 H         1 RES1    0.0000
     15 H10        7.0499   -0.1208   15.9213 H         1 RES1    0.0000
     16 C6         5.9425    1.3967   16.8057 C.3       1 RES1    0.0000
     17 H11        6.2303    1.1637   17.7247 H         1 RES1    0.0000
     18 H12        5.0720    0.9536   16.6408 H         1 RES1    0.0000
     19 C7         5.7527    2.9272   16.7118 C.3       1 RES1    0.0000
     20 C8         4.6741    3.4825   17.6583 C.3       1 RES1    0.0000
     21 H13        4.7307    4.4774   17.5702 H         1 RES1    0.0000
     22 C9         3.2354    3.1201   17.2402 C.3       1 RES1    0.0000
     23 H14        2.6303    3.7306   17.7524 H         1 RES1    0.0000
     24 C10        3.0019    3.4209   15.7560 C.3       1 RES1    0.0000
     25 H15        3.0369    4.4153   15.6515 H         1 RES1    0.0000
     26 C11        4.1243    2.8470   14.8974 C.3       1 RES1    0.0000
     27 H16        4.0928    1.8484   14.9343 H         1 RES1    0.0000
     28 O1         5.4008    3.3018   15.3630 O.3       1 RES1    0.0000
     29 C12        4.9086    3.1961   19.1436 C.3       1 RES1    0.0000
     30 H17        4.1783    3.5837   19.6710 H         1 RES1    0.0000
     31 H18        5.7596    3.5945   19.4220 H         1 RES1    0.0000
     32 H19        4.9375    2.2273   19.2882 H         1 RES1    0.0000
     33 C13        1.6228    2.9740   15.2763 C.3       1 RES1    0.0000
     34 H20        1.6442    2.0161   15.0681 H         1 RES1    0.0000
     35 H21        1.3770    3.4781   14.4731 H         1 RES1    0.0000
     36 H22        0.9622    3.1406   15.9813 H         1 RES1    0.0000
     37 C14        4.0488    3.3006   13.4513 C.3       1 RES1    0.0000
     38 H23        4.1160    4.2771   13.4123 H         1 RES1    0.0000
     39 H24        3.1953    3.0154   13.0641 H         1 RES1    0.0000
     40 H25        4.7873    2.9011   12.9441 H         1 RES1    0.0000
     41 N1         2.8408    1.7456   17.5978 N.am      1 RES1    0.0000
     42 H26        3.0866    1.0810   17.0744 H         1 RES1    0.0000
     43 C15        2.1224    1.4781   18.6893 C.2       1 RES1    0.0000
     44 O2         1.7147    2.3507   19.4614 O.2       1 RES1    0.0000
     45 C16        1.8205    0.0274   18.9711 C.ar      1 RES1    0.0000
     46 C17        2.6699   -1.0015   18.5826 C.ar      1 RES1    0.0000
     47 H27        3.4593   -0.8012   18.0937 H         1 RES1    0.0000
     48 C18        2.3745   -2.3144   18.9022 C.ar      1 RES1    0.0000
     49 H28        2.9565   -3.0198   18.6402 H         1 RES1    0.0000
     50 C19        1.2180   -2.5800   19.6076 C.ar      1 RES1    0.0000
     51 C20        0.3570   -1.5828   20.0119 C.ar      1 RES1    0.0000
     52 H29       -0.4349   -1.7918   20.4920 H         1 RES1    0.0000
     53 C21        0.6706   -0.2732   19.7033 C.ar      1 RES1    0.0000
     54 H30        0.0999    0.4278   19.9916 H         1 RES1    0.0000
     55 N2         0.9153   -3.9812   19.9662 N.pl3     1 RES1    0.0000
     56 O3         1.7956   -4.8134   19.8581 O.2       1 RES1    0.0000
     57 O4        -0.2143   -4.2377   20.3520 O.2       1 RES1    0.0000
@<TRIPOS>BOND
     1    1    2 1
     2    3    1 1
     3    4    1 1
     4    5    1 1
     5    6    5 1
     6    7    5 1
     7    8    7 1
     8    9    7 1
     9   10    7 1
    10   11   10 1
    11   12   10 1
    12   13   10 1
    13   14   13 1
    14   15   13 1
    15   16   13 1
    16   17   16 1
    17   18   16 1
    18   19    5 1
    19   20   19 1
    20   21   20 1
    21   22   20 1
    22   23   22 1
    23   24   22 1
    24   25   24 1
    25   26   24 1
    26   27   26 1
    27   28   19 1
    28   29   20 1
    29   30   29 1
    30   31   29 1
    31   32   29 1
    32   33   24 1
    33   34   33 1
    34   35   33 1
    35   36   33 1
    36   37   26 1
    37   38   37 1
    38   39   37 1
    39   40   37 1
    40   41   22 1
    41   42   41 1
    42   43   41 1
    43   44   43 2
    44   45   43 1
    45   46   45 ar
    46   47   46 1
    47   48   46 ar
    48   49   48 1
    49   50   48 ar
    50   51   50 ar
    51   52   51 1
    52   53   45 ar
    53   54   53 1
    54   55   50 1
    55   56   55 2
    56   57   55 2
    57   16   19 1
    58   26   28 1
    59   51   53 ar
@<TRIPOS>SUBSTRUCTURE
     1 RES1 1

@<TRIPOS>CRYSIN
  12.5700   12.5700   23.0610  90.0000  90.0000 120.0000 169 1

