# MOL2 file generated by ConQuest
# Please check atom types

@<TRIPOS>MOLECULE
VAVNIR
    41    42     1
SMALL
NO_CHARGES
****
Generated from CSD

@<TRIPOS>ATOM
      1 N1        13.2529    4.1278   15.4929 N.pl3     1 RES1    0.0000
      2 O1         6.0707    4.1304   18.6331 O.3       1 RES1    0.0000
      3 O2         7.0624    2.7027   16.1979 O.3       1 RES1    0.0000
      4 H1         6.2259    2.7375   16.2721 H         1 RES1    0.0000
      5 O3        13.7776    3.3879   14.6780 O.2       1 RES1    0.0000
      6 O4        13.8627    5.0011   16.1036 O.2       1 RES1    0.0000
      7 O5        11.7026    1.7181   14.9751 O.3       1 RES1    0.0000
      8 C1        11.1959    5.1035   16.3403 C.ar      1 RES1    0.0000
      9 H2        11.7002    5.8865   16.5280 H         1 RES1    0.0000
     10 C2         9.1149    3.9037   16.3861 C.ar      1 RES1    0.0000
     11 C3         9.8500    5.0590   16.6431 C.ar      1 RES1    0.0000
     12 H3         9.4251    5.8163   17.0276 H         1 RES1    0.0000
     13 C4        11.5311    1.4373   13.5316 C.3       1 RES1    0.0000
     14 C5        11.0939    2.8367   15.4833 C.ar      1 RES1    0.0000
     15 C6         9.7474    2.8000   15.8308 C.ar      1 RES1    0.0000
     16 H4         9.2502    2.0027   15.6854 H         1 RES1    0.0000
     17 C7        11.8109    4.0023   15.7611 C.ar      1 RES1    0.0000
     18 C8        11.4559    2.6899   12.7543 C.1       1 RES1    0.0000
     19 C9        11.3441    3.6455   12.0664 C.1       1 RES1    0.0000
     20 C10        7.4507    3.9462   18.1996 C.3       1 RES1    0.0000
     21 H5         7.9736    3.2707   18.7198 H         1 RES1    0.0000
     22 C11       10.2580    0.6253   13.3213 C.3       1 RES1    0.0000
     23 H6         9.4785    1.1727   13.5528 H         1 RES1    0.0000
     24 H7        10.2806   -0.1707   13.8923 H         1 RES1    0.0000
     25 H8        10.1962    0.3510   12.3829 H         1 RES1    0.0000
     26 C12       12.7699    0.6459   13.1559 C.3       1 RES1    0.0000
     27 H9        13.5664    1.1952   13.3074 H         1 RES1    0.0000
     28 H10       12.7216    0.3941   12.2106 H         1 RES1    0.0000
     29 H11       12.8207   -0.1629   13.7078 H         1 RES1    0.0000
     30 C13        7.6331    3.8909   16.7266 C.3       1 RES1    0.0000
     31 H12        7.1911    4.6842   16.3086 H         1 RES1    0.0000
     32 C14        6.8213    6.5028   18.3800 C.3       1 RES1    0.0000
     33 H13        6.5023    6.4069   17.4594 H         1 RES1    0.0000
     34 H14        7.6574    7.0154   18.3838 H         1 RES1    0.0000
     35 H15        6.1465    6.9729   18.9130 H         1 RES1    0.0000
     36 C15        7.4506    5.1614   20.4030 C.3       1 RES1    0.0000
     37 H16        6.7418    5.5800   20.9342 H         1 RES1    0.0000
     38 H17        8.2858    5.6631   20.5181 H         1 RES1    0.0000
     39 H18        7.5822    4.2373   20.7009 H         1 RES1    0.0000
     40 C16        7.0612    5.1685   18.9579 C.3       1 RES1    0.0000
     41 H19       11.2848    4.3661   11.5177 H         1 RES1    0.0000
@<TRIPOS>BOND
     1    1    5 2
     2    2   20 1
     3    3    4 1
     4    6    1 2
     5    7   13 1
     6    8    9 1
     7   10   11 ar
     8   11    8 ar
     9   12   11 1
    10   13   18 1
    11   14    7 1
    12   15   10 ar
    13   16   15 1
    14   17    1 1
    15   18   19 3
    16   19   41 1
    17   20   21 1
    18   22   13 1
    19   23   22 1
    20   24   22 1
    21   25   22 1
    22   26   13 1
    23   27   26 1
    24   28   26 1
    25   29   26 1
    26   30    3 1
    27   31   30 1
    28   32   33 1
    29   34   32 1
    30   35   32 1
    31   36   37 1
    32   38   36 1
    33   39   36 1
    34   40    2 1
    35    8   17 ar
    36   10   30 1
    37   14   15 ar
    38   14   17 ar
    39   20   30 1
    40   20   40 1
    41   32   40 1
    42   36   40 1
@<TRIPOS>SUBSTRUCTURE
     1 RES1 1

@<TRIPOS>CRYSIN
  13.6228    6.4397   17.4840  90.0000  95.3130  90.0000 231 1

