# MOL2 file generated by ConQuest
# Please check atom types

@<TRIPOS>MOLECULE
VAVPEP
    60    63     1
SMALL
NO_CHARGES
****
Generated from CSD

@<TRIPOS>ATOM
      1 N1         6.6960    1.6765    1.0123 N.am      1 RES1    0.0000
      2 H1         5.8817    1.9519    0.9913 H         1 RES1    0.0000
      3 C1         7.2857    1.5302    2.2045 C.2       1 RES1    0.0000
      4 C2         5.3494   -0.3004    4.5709 C.ar      1 RES1    0.0000
      5 O1         7.2046    3.6505   -1.0694 O.3       1 RES1    0.0000
      6 C3         3.4718   -2.3017    4.7274 C.ar      1 RES1    0.0000
      7 C4         6.4484    1.8411    3.4242 C.3       1 RES1    0.0000
      8 H2         5.5404    2.1121    3.1662 H         1 RES1    0.0000
      9 C5         6.6169    4.2300    4.4194 C.2       1 RES1    0.0000
     10 C6         7.0451    2.8294    4.4871 C.3       1 RES1    0.0000
     11 H3         8.0237    2.7753    4.4889 H         1 RES1    0.0000
     12 O2         8.4679    1.1937    2.3229 O.2       1 RES1    0.0000
     13 C7         7.3627    1.3923   -0.2524 C.3       1 RES1    0.0000
     14 H4         8.3175    1.5749   -0.1302 H         1 RES1    0.0000
     15 C8         6.8569    2.3111   -1.3336 C.3       1 RES1    0.0000
     16 H5         7.2339    2.0437   -2.1867 H         1 RES1    0.0000
     17 H6         5.8922    2.2357   -1.3967 H         1 RES1    0.0000
     18 C9         4.0440   -0.0848    4.1891 C.ar      1 RES1    0.0000
     19 H7         3.7957    0.7551    3.8764 H         1 RES1    0.0000
     20 C10        6.4071    0.7645    4.5256 C.3       1 RES1    0.0000
     21 H8         7.2752    0.3169    4.5333 H         1 RES1    0.0000
     22 C11        6.4526    1.9153    5.6000 C.3       1 RES1    0.0000
     23 C12        5.6831   -1.5584    5.0286 C.ar      1 RES1    0.0000
     24 H9         6.5575   -1.7222    5.2997 H         1 RES1    0.0000
     25 N2         2.4820   -3.3866    4.8126 N.pl3     1 RES1    0.0000
     26 C13        5.1220    2.4183    6.0498 C.2       1 RES1    0.0000
     27 H10        4.5617    1.8317    6.5040 H         1 RES1    0.0000
     28 C14        4.7604   -2.5821    5.0982 C.ar      1 RES1    0.0000
     29 H11        5.0045   -3.4325    5.3855 H         1 RES1    0.0000
     30 C15        3.1004   -1.0790    4.2581 C.ar      1 RES1    0.0000
     31 H12        2.2245   -0.9212    3.9888 H         1 RES1    0.0000
     32 O3         1.3571   -3.1701    4.4377 O.2       1 RES1    0.0000
     33 C16        4.6911    3.6622    5.8373 C.2       1 RES1    0.0000
     34 C17        5.4984    4.5858    5.0446 C.2       1 RES1    0.0000
     35 H13        5.2151    5.4692    4.9742 H         1 RES1    0.0000
     36 C18        7.3382    1.6114    6.8026 C.3       1 RES1    0.0000
     37 H14        7.4683    2.4124    7.3148 H         1 RES1    0.0000
     38 H15        8.1881    1.2828    6.4981 H         1 RES1    0.0000
     39 H16        6.9157    0.9459    7.3503 H         1 RES1    0.0000
     40 O4         2.8359   -4.4574    5.2517 O.2       1 RES1    0.0000
     41 C19        7.4193    5.1759    3.5805 C.3       1 RES1    0.0000
     42 H17        7.0640    6.0629    3.6722 H         1 RES1    0.0000
     43 H18        7.3739    4.9050    2.6602 H         1 RES1    0.0000
     44 H19        8.3336    5.1665    3.8734 H         1 RES1    0.0000
     45 C20        3.3907    4.1841    6.3738 C.3       1 RES1    0.0000
     46 H20        2.9129    3.4702    6.8029 H         1 RES1    0.0000
     47 H21        2.8639    4.5328    5.6518 H         1 RES1    0.0000
     48 H22        3.5642    4.8814    7.0100 H         1 RES1    0.0000
     49 C21        7.2228   -0.0401   -0.6519 C.ar      1 RES1    0.0000
     50 C22        6.9884   -2.6810   -1.5032 C.ar      1 RES1    0.0000
     51 H23        6.9205   -3.5751   -1.7547 H         1 RES1    0.0000
     52 C23        5.9209   -2.0013   -1.0679 C.ar      1 RES1    0.0000
     53 H24        5.0892   -2.4172   -1.0623 H         1 RES1    0.0000
     54 C24        8.3238   -0.6903   -1.1375 C.ar      1 RES1    0.0000
     55 H25        9.1507   -0.2674   -1.1807 H         1 RES1    0.0000
     56 C25        6.0265   -0.6891   -0.6232 C.ar      1 RES1    0.0000
     57 H26        5.2724   -0.2497   -0.3018 H         1 RES1    0.0000
     58 C26        8.1629   -2.0273   -1.5713 C.ar      1 RES1    0.0000
     59 H27        8.9016   -2.4749   -1.9175 H         1 RES1    0.0000
     60 H28        6.5337    4.2288   -1.2517 H         1 RES1    0.0000
@<TRIPOS>BOND
     1    1    2 1
     2    3    1 1
     3    4   18 ar
     4    5   15 1
     5    6   25 1
     6    7    3 1
     7    8    7 1
     8    9   10 1
     9   10    7 1
    10   11   10 1
    11   12    3 2
    12   13    1 1
    13   14   13 1
    14   15   13 1
    15   16   15 1
    16   17   15 1
    17   18   19 1
    18   20    4 1
    19   21   20 1
    20   22   10 1
    21   23    4 ar
    22   24   23 1
    23   25   32 2
    24   26   22 1
    25   27   26 1
    26   28    6 ar
    27   29   28 1
    28   30    6 ar
    29   31   30 1
    30   33   26 2
    31   34    9 2
    32   35   34 1
    33   36   22 1
    34   37   36 1
    35   38   36 1
    36   39   36 1
    37   40   25 2
    38   41    9 1
    39   42   41 1
    40   43   41 1
    41   44   41 1
    42   45   33 1
    43   46   45 1
    44   47   45 1
    45   48   45 1
    46   49   13 1
    47   50   51 1
    48   52   50 ar
    49   53   52 1
    50   54   49 ar
    51   55   54 1
    52   56   49 ar
    53   57   56 1
    54   58   50 ar
    55   59   58 1
    56   60    5 1
    57    7   20 1
    58   18   30 ar
    59   20   22 1
    60   23   28 ar
    61   33   34 1
    62   52   56 ar
    63   54   58 ar
@<TRIPOS>SUBSTRUCTURE
     1 RES1 1

@<TRIPOS>CRYSIN
   6.9954   11.7795   29.5906  90.0000  90.0000  90.0000  19 1

