# MOL2 file generated by ConQuest
# Please check atom types

@<TRIPOS>MOLECULE
VAWFII
    20    22     1
SMALL
NO_CHARGES
****
Generated from CSD

@<TRIPOS>ATOM
      1 O1        -0.9839    4.1168   11.6823 O.2       1 RES1    0.0000
      2 O2        -1.0412   -1.1306   12.8152 O.2       1 RES1    0.0000
      3 O3         0.1108   -2.3846   11.4912 O.2       1 RES1    0.0000
      4 O4         2.0538    1.9240    6.6197 O.2       1 RES1    0.0000
      5 O5         1.1749    3.1736    5.1047 O.2       1 RES1    0.0000
      6 N1        -0.3777   -1.3157   11.8083 N.pl3     1 RES1    0.0000
      7 N2         1.3792    2.8871    6.2700 N.pl3     1 RES1    0.0000
      8 C1        -0.4643    1.1019   11.3720 C.ar      1 RES1    0.0000
      9 C2        -0.1277   -0.1587   10.9140 C.ar      1 RES1    0.0000
     10 C3         0.4072   -0.3989    9.6700 C.ar      1 RES1    0.0000
     11 C4         0.6352    0.6568    8.8122 C.ar      1 RES1    0.0000
     12 C5         0.8320    3.7642    7.3121 C.ar      1 RES1    0.0000
     13 C6         0.7226    5.1108    6.9706 C.ar      1 RES1    0.0000
     14 C7         0.2437    6.0254    7.8880 C.ar      1 RES1    0.0000
     15 C8        -0.1376    5.6132    9.1429 C.ar      1 RES1    0.0000
     16 C9        -0.4731    3.5945   10.7094 C.2       1 RES1    0.0000
     17 C10       -0.2076    2.1444   10.4993 C.ar      1 RES1    0.0000
     18 C11        0.3433    1.9504    9.2187 C.ar      1 RES1    0.0000
     19 C12        0.4504    3.2970    8.5588 C.ar      1 RES1    0.0000
     20 C13       -0.0458    4.2645    9.4505 C.ar      1 RES1    0.0000
@<TRIPOS>BOND
     1    1   16 2
     2    2    6 2
     3    3    6 2
     4    4    7 2
     5    5    7 2
     6    6    9 1
     7    7   12 1
     8    8    9 ar
     9    9   10 ar
    10   10   11 ar
    11   11   18 ar
    12   12   13 ar
    13   13   14 ar
    14   14   15 ar
    15   15   20 ar
    16   16   17 1
    17   17    8 ar
    18   18   17 ar
    19   19   12 ar
    20   20   16 1
    21   18   19 1
    22   19   20 ar
@<TRIPOS>SUBSTRUCTURE
     1 RES1 1

