# MOL2 file generated by ConQuest
# Please check atom types

@<TRIPOS>MOLECULE
VAWFEE
    44    47     1
SMALL
NO_CHARGES
****
Generated from CSD

@<TRIPOS>ATOM
      1 O1        -1.5603    0.2571   17.6392 O.3       1 RES1    0.0000
      2 O2        -1.6378    3.8214   16.7277 O.2       1 RES1    0.0000
      3 O3         0.7052    1.7886   18.2954 O.3       1 RES1    0.0000
      4 N1        -1.0203    0.2660   19.0026 N.3       1 RES1    0.0000
      5 N2         0.2202    2.5784   17.2345 N.am      1 RES1    0.0000
      6 C1        -0.4086    1.5588   19.2106 C.3       1 RES1    0.0000
      7 C2        -1.3783    2.6813   18.8664 C.3       1 RES1    0.0000
      8 C3        -0.9961    3.1385   17.4822 C.2       1 RES1    0.0000
      9 C4        -0.1602   -0.8742   19.1369 C.ar      1 RES1    0.0000
     10 C5         0.6661   -1.3370   18.1119 C.ar      1 RES1    0.0000
     11 C6         1.4519   -2.4410   18.2897 C.ar      1 RES1    0.0000
     12 C7         1.4504   -3.1361   19.4735 C.ar      1 RES1    0.0000
     13 C8         0.6269   -2.6965   20.4946 C.ar      1 RES1    0.0000
     14 C9        -0.1740   -1.5885   20.3187 C.ar      1 RES1    0.0000
     15 C10        0.1649    1.6215   20.6213 C.ar      1 RES1    0.0000
     16 C11       -0.6526    1.9911   21.6821 C.ar      1 RES1    0.0000
     17 C12       -0.1426    2.0232   22.9718 C.ar      1 RES1    0.0000
     18 C13        1.1712    1.7219   23.2006 C.ar      1 RES1    0.0000
     19 C14        1.9878    1.3876   22.1549 C.ar      1 RES1    0.0000
     20 C15        1.4974    1.3185   20.8558 C.ar      1 RES1    0.0000
     21 C16        1.1294    2.7207   16.1623 C.ar      1 RES1    0.0000
     22 C17        0.8996    3.6624   15.1790 C.ar      1 RES1    0.0000
     23 C18        1.7710    3.7998   14.1333 C.ar      1 RES1    0.0000
     24 C19        2.8722    2.9987   14.0614 C.ar      1 RES1    0.0000
     25 C20        3.1150    2.0570   15.0410 C.ar      1 RES1    0.0000
     26 C21        2.2524    1.9059   16.1151 C.ar      1 RES1    0.0000
     27 H1        -2.4983   -0.0803   17.7186 H         1 RES1    0.0000
     28 H2        -1.2989    3.3988   19.4772 H         1 RES1    0.0000
     29 H3        -2.2779    2.3543   18.8721 H         1 RES1    0.0000
     30 H4         0.6971   -0.8758   17.2837 H         1 RES1    0.0000
     31 H5         2.0136   -2.7480   17.5862 H         1 RES1    0.0000
     32 H6         2.0074   -3.9130   19.5718 H         1 RES1    0.0000
     33 H7         0.6265   -3.1658   21.3493 H         1 RES1    0.0000
     34 H8        -0.7558   -1.3177   21.0279 H         1 RES1    0.0000
     35 H9        -1.5636    2.2096   21.5195 H         1 RES1    0.0000
     36 H10       -0.7196    2.2177   23.7131 H         1 RES1    0.0000
     37 H11        1.5218    1.7115   24.0913 H         1 RES1    0.0000
     38 H12        2.9256    1.2535   22.3137 H         1 RES1    0.0000
     39 H13        2.0702    1.0767   20.1202 H         1 RES1    0.0000
     40 H14        0.1292    4.2184   15.2414 H         1 RES1    0.0000
     41 H15        1.6154    4.4353   13.4450 H         1 RES1    0.0000
     42 H16        3.4671    3.0453   13.3315 H         1 RES1    0.0000
     43 H17        3.9036    1.5186   14.9956 H         1 RES1    0.0000
     44 H18        2.4289    1.2695   16.7920 H         1 RES1    0.0000
@<TRIPOS>BOND
     1    1    4 1
     2    2    8 2
     3    3    5 1
     4    4    6 1
     5    5    8 1
     6    6    3 1
     7    7    6 1
     8    8    7 1
     9    9    4 1
    10   10    9 ar
    11   11   10 ar
    12   12   11 ar
    13   13   12 ar
    14   14    9 ar
    15   15    6 1
    16   16   15 ar
    17   17   16 ar
    18   18   17 ar
    19   19   18 ar
    20   20   15 ar
    21   21    5 1
    22   22   21 ar
    23   23   22 ar
    24   24   23 ar
    25   25   24 ar
    26   26   21 ar
    27   27    1 1
    28   28    7 1
    29   29    7 1
    30   30   10 1
    31   31   11 1
    32   32   12 1
    33   33   13 1
    34   34   14 1
    35   35   16 1
    36   36   17 1
    37   37   18 1
    38   38   19 1
    39   39   20 1
    40   40   22 1
    41   41   23 1
    42   42   24 1
    43   43   25 1
    44   44   26 1
    45   13   14 ar
    46   19   20 ar
    47   25   26 ar
@<TRIPOS>SUBSTRUCTURE
     1 RES1 1

@<TRIPOS>CRYSIN
  11.4060    8.0350   19.0820  90.0000  97.7000  90.0000 231 1

