# MOL2 file generated by ConQuest
# Please check atom types

@<TRIPOS>MOLECULE
VAWFOO
    20    22     1
SMALL
NO_CHARGES
****
Generated from CSD

@<TRIPOS>ATOM
      1 O1         6.7250    2.6659    2.7532 O.2       1 RES1    0.0000
      2 O2         6.1463   -2.7732   -1.6385 O.2       1 RES1    0.0000
      3 O3         5.1224   -0.8668   -1.9764 O.2       1 RES1    0.0000
      4 O4         7.8900   -0.2975   -2.4186 O.2       1 RES1    0.0000
      5 O5         6.7887    0.7411   -3.9707 O.2       1 RES1    0.0000
      6 N1         5.8169   -1.6468   -1.2991 N.pl3     1 RES1    0.0000
      7 N2         7.1825    0.6195   -2.8201 N.pl3     1 RES1    0.0000
      8 C1         6.5196   -0.4620    2.6781 C.ar      1 RES1    0.0000
      9 C2         6.3114   -1.7684    2.3517 C.ar      1 RES1    0.0000
     10 C3         6.1299   -2.1252    1.0363 C.ar      1 RES1    0.0000
     11 C4         6.2072   -1.1868    0.0261 C.ar      1 RES1    0.0000
     12 C5         6.8216    1.6672   -1.8572 C.ar      1 RES1    0.0000
     13 C6         6.7853    2.9705   -2.3321 C.ar      1 RES1    0.0000
     14 C7         6.6730    4.0275   -1.4639 C.ar      1 RES1    0.0000
     15 C8         6.6374    3.7862   -0.1061 C.ar      1 RES1    0.0000
     16 C9         6.6675    1.9820    1.7658 C.2       1 RES1    0.0000
     17 C10        6.6141    0.4886    1.6679 C.ar      1 RES1    0.0000
     18 C11        6.5072    0.1441    0.3101 C.ar      1 RES1    0.0000
     19 C12        6.6593    1.3861   -0.5043 C.ar      1 RES1    0.0000
     20 C13        6.6141    2.4911    0.3444 C.ar      1 RES1    0.0000
@<TRIPOS>BOND
     1    1   16 2
     2    2    6 2
     3    3    6 2
     4    4    7 2
     5    5    7 2
     6    6   11 1
     7    7   12 1
     8    8    9 ar
     9    9   10 ar
    10   10   11 ar
    11   11   18 ar
    12   12   13 ar
    13   13   14 ar
    14   14   15 ar
    15   15   20 ar
    16   16   17 1
    17   17    8 ar
    18   18   17 ar
    19   19   12 ar
    20   20   16 1
    21   18   19 1
    22   19   20 ar
@<TRIPOS>SUBSTRUCTURE
     1 RES1 1

@<TRIPOS>CRYSIN
   6.8490   10.2220   16.3200  90.0000  90.0000  90.0000  19 1

