# MOL2 file generated by ConQuest
# Please check atom types

@<TRIPOS>MOLECULE
VAWFUW
    47    50     1
SMALL
NO_CHARGES
****
Generated from CSD

@<TRIPOS>ATOM
      1 O1         2.0876   14.1262    8.6538 O.2       1 RES1    0.0000
      2 O2         1.3600   12.6723    7.2123 O.3       1 RES1    0.0000
      3 O3        -2.7163   13.4120    2.1550 O.2       1 RES1    0.0000
      4 O4        -1.2724   13.8937    0.6546 O.2       1 RES1    0.0000
      5 N1        -1.6170   13.7874    1.8107 N.pl3     1 RES1    0.0000
      6 C1         1.5552   13.9374    7.5976 C.2       1 RES1    0.0000
      7 C2         1.1643   15.0464    6.6761 C.3       1 RES1    0.0000
      8 C3         0.1010   14.7050    5.6539 C.3       1 RES1    0.0000
      9 C4        -0.0475   15.7920    4.6244 C.3       1 RES1    0.0000
     10 C5        -1.0455   15.4538    3.5158 C.3       1 RES1    0.0000
     11 C6        -0.6142   14.1311    2.8862 C.3       1 RES1    0.0000
     12 C7        -0.5311   13.0135    3.9060 C.3       1 RES1    0.0000
     13 C8         0.4681   13.3783    5.0041 C.3       1 RES1    0.0000
     14 C9         0.5251   12.2879    6.0602 C.3       1 RES1    0.0000
     15 C10       -1.2083   16.5992    2.5347 C.ar      1 RES1    0.0000
     16 C11       -2.4177   17.2683    2.4775 C.ar      1 RES1    0.0000
     17 H1        -3.1353   16.9739    2.9918 H         1 RES1    0.0000
     18 C12       -2.5662   18.3692    1.6592 C.ar      1 RES1    0.0000
     19 H2        -3.3765   18.8254    1.6317 H         1 RES1    0.0000
     20 C13       -1.5136   18.7931    0.8868 C.ar      1 RES1    0.0000
     21 H3        -1.6110   19.5497    0.3539 H         1 RES1    0.0000
     22 C14       -0.3089   18.1106    0.8884 C.ar      1 RES1    0.0000
     23 H4         0.3897   18.3768    0.3362 H         1 RES1    0.0000
     24 C15       -0.1687   17.0227    1.7301 C.ar      1 RES1    0.0000
     25 H5         0.6416   16.5670    1.7551 H         1 RES1    0.0000
     26 C16        1.0360   10.9721    5.5620 C.ar      1 RES1    0.0000
     27 C17        2.2965   10.8755    4.9855 C.ar      1 RES1    0.0000
     28 H6         2.8454   11.6245    4.9485 H         1 RES1    0.0000
     29 C18        2.7373    9.6775    4.4688 C.ar      1 RES1    0.0000
     30 H7         3.5773    9.6247    4.0737 H         1 RES1    0.0000
     31 C19        1.9401    8.5554    4.5341 C.ar      1 RES1    0.0000
     32 H8         2.2431    7.7465    4.1890 H         1 RES1    0.0000
     33 C20        0.7081    8.6360    5.1065 C.ar      1 RES1    0.0000
     34 H9         0.1699    7.8777    5.1516 H         1 RES1    0.0000
     35 C21        0.2471    9.8397    5.6232 C.ar      1 RES1    0.0000
     36 H10       -0.5964    9.8832    6.0126 H         1 RES1    0.0000
     37 H11        1.9366   15.3295    6.2803 H         1 RES1    0.0000
     38 H12        0.9623   15.8922    7.1752 H         1 RES1    0.0000
     39 H13       -0.6891   14.5767    6.1432 H         1 RES1    0.0000
     40 H14       -0.3327   16.6279    4.9823 H         1 RES1    0.0000
     41 H15        0.7247   15.8827    4.2164 H         1 RES1    0.0000
     42 H16       -1.8772   15.2706    3.9343 H         1 RES1    0.0000
     43 H17        0.2614   14.2574    2.3864 H         1 RES1    0.0000
     44 H18       -0.2376   12.2233    3.4908 H         1 RES1    0.0000
     45 H19       -1.4376   12.8107    4.2809 H         1 RES1    0.0000
     46 H20        1.2950   13.4456    4.5308 H         1 RES1    0.0000
     47 H21       -0.3327   12.2328    6.3932 H         1 RES1    0.0000
@<TRIPOS>BOND
     1    1    6 2
     2    2    6 1
     3    3    5 2
     4    4    5 2
     5    5   11 1
     6    6    7 1
     7    7    8 1
     8    8    9 1
     9    9   10 1
    10   10   11 1
    11   11   12 1
    12   12   13 1
    13   13    8 1
    14   14    2 1
    15   15   10 1
    16   16   15 ar
    17   17   16 1
    18   18   16 ar
    19   19   18 1
    20   20   18 ar
    21   21   20 1
    22   22   20 ar
    23   23   22 1
    24   24   15 ar
    25   25   24 1
    26   26   14 1
    27   27   26 ar
    28   28   27 1
    29   29   27 ar
    30   30   29 1
    31   31   29 ar
    32   32   31 1
    33   33   31 ar
    34   34   33 1
    35   35   26 ar
    36   36   35 1
    37   37    7 1
    38   38    7 1
    39   39    8 1
    40   40    9 1
    41   41    9 1
    42   42   10 1
    43   43   11 1
    44   44   12 1
    45   45   12 1
    46   46   13 1
    47   47   14 1
    48   13   14 1
    49   22   24 ar
    50   33   35 ar
@<TRIPOS>SUBSTRUCTURE
     1 RES1 1

@<TRIPOS>CRYSIN
  11.8807   19.0098    8.0620  90.0000  90.0000  90.0000  29 1

