# MOL2 file generated by ConQuest
# Please check atom types

@<TRIPOS>MOLECULE
VAWJAG
    41    42     1
SMALL
NO_CHARGES
****
Generated from CSD

@<TRIPOS>ATOM
      1 N1         4.6139    5.9832   -1.7363 N.pl3     1 RES1    0.0000
      2 O1         4.2084    5.4275   -2.7545 O.2       1 RES1    0.0000
      3 O2         4.7795    7.1877   -1.6342 O.2       1 RES1    0.0000
      4 C1         5.4690    3.5794    1.6078 C.ar      1 RES1    0.0000
      5 C2         4.9065    5.1428   -0.5679 C.ar      1 RES1    0.0000
      6 C3         5.4606    3.0162    0.3312 C.ar      1 RES1    0.0000
      7 H1         5.6601    2.1143    0.2222 H         1 RES1    0.0000
      8 C4         4.9458    5.7408    0.6858 C.ar      1 RES1    0.0000
      9 H2         4.7934    6.6528    0.7837 H         1 RES1    0.0000
     10 C5         5.2186    4.9425    1.7876 C.ar      1 RES1    0.0000
     11 H3         5.2345    5.3124    2.6404 H         1 RES1    0.0000
     12 C6         5.1557    3.7967   -0.7751 C.ar      1 RES1    0.0000
     13 H4         5.1197    3.4275   -1.6276 H         1 RES1    0.0000
     14 O3         5.4568    3.2604    3.9183 O.3       1 RES1    0.0000
     15 O4         6.1717    1.5488    2.6397 O.2       1 RES1    0.0000
     16 C7         5.7273    2.5250    5.1390 C.3       1 RES1    0.0000
     17 H5         6.4213    1.8577    4.9569 H         1 RES1    0.0000
     18 O5         7.5644    3.9280    5.6240 O.3       1 RES1    0.0000
     19 C8         6.2813    3.5544    6.1092 C.3       1 RES1    0.0000
     20 H6         6.3602    3.1642    7.0048 H         1 RES1    0.0000
     21 C9         4.4647    1.8079    5.5807 C.3       1 RES1    0.0000
     22 H7         4.2159    1.1602    4.9035 H         1 RES1    0.0000
     23 H8         4.6475    1.3231    6.4002 H         1 RES1    0.0000
     24 O6         6.3425    5.8263    5.5229 O.3       1 RES1    0.0000
     25 C10        5.4892    4.8923    6.1772 C.3       1 RES1    0.0000
     26 H9         4.6645    4.7984    5.6562 H         1 RES1    0.0000
     27 C11        7.6806    5.3502    5.6545 C.3       1 RES1    0.0000
     28 C12        5.1445    5.3083    7.5382 C.1       1 RES1    0.0000
     29 C13        4.8035    5.6774    8.6308 C.1       1 RES1    0.0000
     30 H10        4.5402    5.9633    9.4763 H         1 RES1    0.0000
     31 C14        8.4478    5.7904    4.4318 C.3       1 RES1    0.0000
     32 H11        9.3338    5.4228    4.4609 H         1 RES1    0.0000
     33 H12        8.4986    6.7485    4.4144 H         1 RES1    0.0000
     34 H13        7.9980    5.4786    3.6428 H         1 RES1    0.0000
     35 C15        8.3169    5.7938    6.9517 C.3       1 RES1    0.0000
     36 H14        7.8001    5.4640    7.6903 H         1 RES1    0.0000
     37 H15        8.3448    6.7525    6.9824 H         1 RES1    0.0000
     38 H16        9.2103    5.4460    7.0048 H         1 RES1    0.0000
     39 C16        5.7488    2.6735    2.7601 C.2       1 RES1    0.0000
     40 O7         3.3749    2.6883    5.7993 O.3       1 RES1    0.0000
     41 H17        2.9907    2.8297    5.0878 H         1 RES1    0.0000
@<TRIPOS>BOND
     1    1    2 2
     2    3    1 2
     3    4    6 ar
     4    5    1 1
     5    6    7 1
     6    8    5 ar
     7    9    8 1
     8   10    4 ar
     9   11   10 1
    10   12    5 ar
    11   13   12 1
    12   14   16 1
    13   15   39 2
    14   16   17 1
    15   18   19 1
    16   19   16 1
    17   20   19 1
    18   21   16 1
    19   22   21 1
    20   23   21 1
    21   24   25 1
    22   25   19 1
    23   26   25 1
    24   27   18 1
    25   28   25 1
    26   29   28 3
    27   30   29 1
    28   31   27 1
    29   32   31 1
    30   33   31 1
    31   34   31 1
    32   35   27 1
    33   36   35 1
    34   37   35 1
    35   38   35 1
    36   39    4 1
    37   40   21 1
    38   41   40 1
    39    6   12 ar
    40    8   10 ar
    41   14   39 1
    42   24   27 1
@<TRIPOS>SUBSTRUCTURE
     1 RES1 1

@<TRIPOS>CRYSIN
   6.8478    6.6488   17.2236  90.0000  90.2520  90.0000   4 1

