# MOL2 file generated by ConQuest
# Please check atom types

@<TRIPOS>MOLECULE
VAWWEV03
    56    57     1
SMALL
NO_CHARGES
****
Generated from CSD

@<TRIPOS>ATOM
      1 O1         1.8098    8.3890   15.9866 O.3       1 RES1    0.0000
      2 O2         1.9287    8.5216    9.6665 O.2       1 RES1    0.0000
      3 O3         1.0626    7.3426   11.3706 O.3       1 RES1    0.0000
      4 O4         3.6001    2.7238   14.0869 O.2       1 RES1    0.0000
      5 O5         1.6733    3.6763   14.3036 O.2       1 RES1    0.0000
      6 O6         0.2759    6.1298   16.9460 O.3       1 RES1    0.0000
      7 N1         2.8842    3.7184   14.1350 N.pl3     1 RES1    0.0000
      8 O7         2.3615   10.4821   16.5965 O.2       1 RES1    0.0000
      9 N2         3.8284   10.9261   12.6229 N.3       1 RES1    0.0000
     10 C1         5.4632    6.3883   13.8088 C.ar      1 RES1    0.0000
     11 H1         6.3887    6.4843   13.8180 H         1 RES1    0.0000
     12 C2         3.4809   10.7950   10.2483 C.3       1 RES1    0.0000
     13 H2         4.2020   10.3252    9.8222 H         1 RES1    0.0000
     14 H3         3.7133   11.7224   10.3389 H         1 RES1    0.0000
     15 H4         2.6868   10.7148    9.7137 H         1 RES1    0.0000
     16 C3         3.2664    7.4014   13.6057 C.ar      1 RES1    0.0000
     17 C4         1.8203    8.3452   10.8574 C.2       1 RES1    0.0000
     18 C5         4.6510    7.5094   13.6300 C.ar      1 RES1    0.0000
     19 H5         5.0447    8.3460   13.5256 H         1 RES1    0.0000
     20 C6         3.5206    5.0457   13.9624 C.ar      1 RES1    0.0000
     21 C7         3.2320   10.2062   11.6072 C.2       1 RES1    0.0000
     22 C8         2.3753    8.6275   13.3721 C.3       1 RES1    0.0000
     23 H6         1.4467    8.3610   13.5358 H         1 RES1    0.0000
     24 C9         3.5065   10.7898   13.9536 C.2       1 RES1    0.0000
     25 C10        4.8955    5.1261   13.9743 C.ar      1 RES1    0.0000
     26 H7         5.4238    4.3691   14.0886 H         1 RES1    0.0000
     27 C11        0.1137    4.7236   17.1237 C.3       1 RES1    0.0000
     28 H8         0.8336    4.2604   16.6878 H         1 RES1    0.0000
     29 H9        -0.7228    4.4465   16.7413 H         1 RES1    0.0000
     30 H10        0.1210    4.5164   18.0612 H         1 RES1    0.0000
     31 C12        2.3041    9.6342   15.7371 C.2       1 RES1    0.0000
     32 C13        2.7168    9.7538   14.3385 C.2       1 RES1    0.0000
     33 C14        2.6894    6.1439   13.7955 C.ar      1 RES1    0.0000
     34 H11        1.7653    6.0448   13.8093 H         1 RES1    0.0000
     35 C15        4.0967   11.8623   14.8206 C.3       1 RES1    0.0000
     36 H12        3.4655   12.5790   14.9178 H         1 RES1    0.0000
     37 H13        4.8997   12.1969   14.4142 H         1 RES1    0.0000
     38 H14        4.3036   11.4977   15.6849 H         1 RES1    0.0000
     39 C16        1.5469    8.1037   17.3742 C.3       1 RES1    0.0000
     40 H15        0.7079    8.5084   17.6458 H         1 RES1    0.0000
     41 H16        2.2563    8.4634   17.9295 H         1 RES1    0.0000
     42 C17        2.4801    9.1126   11.9202 C.2       1 RES1    0.0000
     43 C18        1.4754    6.6078   17.5251 C.3       1 RES1    0.0000
     44 H17        2.2369    6.1971   17.0872 H         1 RES1    0.0000
     45 H18        1.5027    6.3719   18.4650 H         1 RES1    0.0000
     46 C19        0.4076    6.4579   10.3933 C.3       1 RES1    0.0000
     47 H19        0.9854    6.3594    9.6080 H         1 RES1    0.0000
     48 C20        0.2728    5.1170   11.0878 C.3       1 RES1    0.0000
     49 H20        1.1384    4.8148   11.3707 H         1 RES1    0.0000
     50 H21       -0.1062    4.4789   10.4792 H         1 RES1    0.0000
     51 H22       -0.2992    5.2094   11.8526 H         1 RES1    0.0000
     52 C21       -0.9098    7.0678    9.9707 C.3       1 RES1    0.0000
     53 H23       -1.4570    7.2173   10.7455 H         1 RES1    0.0000
     54 H24       -1.3611    6.4693    9.3707 H         1 RES1    0.0000
     55 H25       -0.7479    7.9040    9.5270 H         1 RES1    0.0000
     56 H26        4.3824   11.5014   12.4156 H         1 RES1    0.0000
@<TRIPOS>BOND
     1    1   31 1
     2    2   17 2
     3    3   17 1
     4    4    7 2
     5    5    7 2
     6    6   27 1
     7    7   20 1
     8    8   31 2
     9    9   21 1
    10   10   11 1
    11   12   13 1
    12   14   12 1
    13   15   12 1
    14   16   18 ar
    15   17   42 1
    16   18   10 ar
    17   19   18 1
    18   20   25 ar
    19   21   12 1
    20   22   16 1
    21   23   22 1
    22   24    9 1
    23   25   10 ar
    24   26   25 1
    25   27   28 1
    26   29   27 1
    27   30   27 1
    28   31   32 1
    29   32   22 1
    30   33   16 ar
    31   34   33 1
    32   35   24 1
    33   36   35 1
    34   37   35 1
    35   38   35 1
    36   39    1 1
    37   40   39 1
    38   41   39 1
    39   42   21 2
    40   43    6 1
    41   44   43 1
    42   45   43 1
    43   46    3 1
    44   47   46 1
    45   48   46 1
    46   49   48 1
    47   50   48 1
    48   51   48 1
    49   52   46 1
    50   53   52 1
    51   54   52 1
    52   55   52 1
    53   56    9 1
    54   20   33 ar
    55   22   42 1
    56   24   32 2
    57   39   43 1
@<TRIPOS>SUBSTRUCTURE
     1 RES1 1

@<TRIPOS>CRYSIN
  11.4185   12.4866   14.4721  90.0000  90.0000  90.0000  19 1

