# MOL2 file generated by ConQuest
# Please check atom types

@<TRIPOS>MOLECULE
VAWWEX
    47    52     1
SMALL
NO_CHARGES
****
Generated from CSD

@<TRIPOS>ATOM
      1 O1         2.6853    4.8672   13.7908 O.2       1 RES1    0.0000
      2 O2         1.4109    3.1143   13.8011 O.2       1 RES1    0.0000
      3 O3         0.2988    6.0485    3.5556 O.2       1 RES1    0.0000
      4 O4         1.1277    5.3780    1.6909 O.2       1 RES1    0.0000
      5 N1         2.2527    5.1664   10.9083 N.ar      1 RES1    0.0000
      6 N2         2.2553    5.0989    5.3275 N.ar      1 RES1    0.0000
      7 N3         1.6798    4.2641   13.4741 N.pl3     1 RES1    0.0000
      8 N4         0.8600    5.2159    2.8722 N.pl3     1 RES1    0.0000
      9 C1         3.8975    5.2295    9.1688 C.3       1 RES1    0.0000
     10 C2         2.5528    5.6547    9.7094 C.ar      1 RES1    0.0000
     11 C3         1.6863    6.5031    8.9714 C.ar      1 RES1    0.0000
     12 C4         2.1423    7.1129    7.6532 C.3       1 RES1    0.0000
     13 C5         3.3297    6.3658    7.0434 C.3       1 RES1    0.0000
     14 C6         2.8750    5.0382    6.4911 C.ar      1 RES1    0.0000
     15 C7         3.1284    3.8343    7.1922 C.ar      1 RES1    0.0000
     16 C8         3.8052    3.8366    8.5413 C.3       1 RES1    0.0000
     17 C9         4.4145    6.2060    8.1068 C.3       1 RES1    0.0000
     18 C10        1.0263    5.4815   11.4194 C.ar      1 RES1    0.0000
     19 C11        0.6678    4.9954   12.7008 C.ar      1 RES1    0.0000
     20 C12       -0.5547    5.2092   13.2561 C.ar      1 RES1    0.0000
     21 C13       -1.5005    5.9698   12.5447 C.ar      1 RES1    0.0000
     22 C14       -1.1991    6.4873   11.3207 C.ar      1 RES1    0.0000
     23 C15        0.0715    6.2443   10.7330 C.ar      1 RES1    0.0000
     24 C16        0.4430    6.7618    9.4796 C.ar      1 RES1    0.0000
     25 C17        1.8708    3.9288    4.7442 C.ar      1 RES1    0.0000
     26 C18        1.2394    3.9468    3.4746 C.ar      1 RES1    0.0000
     27 C19        1.0133    2.8082    2.7617 C.ar      1 RES1    0.0000
     28 C20        1.3420    1.5684    3.3243 C.ar      1 RES1    0.0000
     29 C21        1.8721    1.4919    4.5763 C.ar      1 RES1    0.0000
     30 C22        2.1605    2.6665    5.3069 C.ar      1 RES1    0.0000
     31 C23        2.7711    2.6620    6.5794 C.ar      1 RES1    0.0000
     32 H1         4.5509    5.2002    9.9244 H         1 RES1    0.0000
     33 H2         2.4073    8.0624    7.8137 H         1 RES1    0.0000
     34 H3         1.3797    7.0836    7.0066 H         1 RES1    0.0000
     35 H4         3.6987    6.9148    6.2922 H         1 RES1    0.0000
     36 H5         4.7328    3.4765    8.4338 H         1 RES1    0.0000
     37 H6         3.2868    3.2448    9.1570 H         1 RES1    0.0000
     38 H7         5.2473    5.8438    7.6915 H         1 RES1    0.0000
     39 H8         4.6094    7.0926    8.5281 H         1 RES1    0.0000
     40 H9        -0.7769    4.8289   14.1531 H         1 RES1    0.0000
     41 H10       -2.4021    6.1363   12.9424 H         1 RES1    0.0000
     42 H11       -1.8734    7.0386   10.8332 H         1 RES1    0.0000
     43 H12       -0.2001    7.3221    8.9582 H         1 RES1    0.0000
     44 H13        0.6184    2.8577    1.8441 H         1 RES1    0.0000
     45 H14        1.1835    0.7313    2.8015 H         1 RES1    0.0000
     46 H15        2.0592    0.5963    4.9813 H         1 RES1    0.0000
     47 H16        2.9426    1.7934    7.0405 H         1 RES1    0.0000
@<TRIPOS>BOND
     1    1    7 2
     2    2    7 2
     3    3    8 2
     4    4    8 2
     5    5   10 ar
     6    6   14 ar
     7    7   19 1
     8    8   26 1
     9    9   10 1
    10   10   11 ar
    11   11   12 1
    12   12   13 1
    13   13   14 1
    14   14   15 ar
    15   15   16 1
    16   16    9 1
    17   17    9 1
    18   18    5 ar
    19   19   18 ar
    20   20   19 ar
    21   21   20 ar
    22   22   21 ar
    23   23   18 ar
    24   24   11 ar
    25   25    6 ar
    26   26   25 ar
    27   27   26 ar
    28   28   27 ar
    29   29   28 ar
    30   30   25 ar
    31   31   15 ar
    32   32    9 1
    33   33   12 1
    34   34   12 1
    35   35   13 1
    36   36   16 1
    37   37   16 1
    38   38   17 1
    39   39   17 1
    40   40   20 1
    41   41   21 1
    42   42   22 1
    43   43   24 1
    44   44   27 1
    45   45   28 1
    46   46   29 1
    47   47   31 1
    48   13   17 1
    49   22   23 ar
    50   23   24 ar
    51   29   30 ar
    52   30   31 ar
@<TRIPOS>SUBSTRUCTURE
     1 RES1 1

@<TRIPOS>CRYSIN
  25.9830   25.9830   14.7290  90.0000  90.0000 120.0000 233 1

