# MOL2 file generated by ConQuest
# Please check atom types

@<TRIPOS>MOLECULE
VAXKUC
    67    67     1
SMALL
NO_CHARGES
****
Generated from CSD

@<TRIPOS>ATOM
      1 O1        -0.1202    8.0389    8.8330 O.3       1 RES1    0.0000
      2 N1         0.7479    6.6677    7.3694 N.am      1 RES1    0.0000
      3 O2         0.9262    3.2424    1.2672 O.3       1 RES1    0.0000
      4 O3         7.2444    6.1102    4.9517 O.3       1 RES1    0.0000
      5 O4         5.9056    4.6776    3.8369 O.2       1 RES1    0.0000
      6 O5         4.5002    7.7961    7.3478 O.2       1 RES1    0.0000
      7 O6         3.2098    6.6234    8.6205 O.2       1 RES1    0.0000
      8 O7         1.5702    8.7970    7.5163 O.2       1 RES1    0.0000
      9 O8        -1.0267    5.1635    4.2195 O.2       1 RES1    0.0000
     10 O9        -0.9678    4.9556    6.3506 O.2       1 RES1    0.0000
     11 N2         1.2344    4.3267    3.1419 N.am      1 RES1    0.0000
     12 H1         0.3754    4.3166    3.1194 H         1 RES1    0.0000
     13 C1         8.6026    4.1078    4.8874 C.3       1 RES1    0.0000
     14 H2         8.5172    4.0540    5.8410 H         1 RES1    0.0000
     15 H3         9.4515    3.7477    4.6220 H         1 RES1    0.0000
     16 H4         7.8980    3.6037    4.4739 H         1 RES1    0.0000
     17 N3         5.0978    6.2713    5.2603 N.am      1 RES1    0.0000
     18 H5         5.3526    6.9494    5.7225 H         1 RES1    0.0000
     19 N4         3.5804    6.9922    7.5218 N.pl3     1 RES1    0.0000
     20 N5        -0.4127    5.1835    5.2827 N.pl3     1 RES1    0.0000
     21 O10        3.0504    3.4751    2.0274 O.2       1 RES1    0.0000
     22 C2        -0.2718    9.2968    9.6237 C.3       1 RES1    0.0000
     23 C3         0.8104    7.9458    7.8849 C.2       1 RES1    0.0000
     24 C4         1.5667    6.1836    6.3506 C.ar      1 RES1    0.0000
     25 C5         1.0090    5.4680    5.2738 C.ar      1 RES1    0.0000
     26 C6         1.8072    5.0158    4.2004 C.ar      1 RES1    0.0000
     27 C7         1.8766    3.6547    2.1214 C.2       1 RES1    0.0000
     28 C8         1.2795    2.5115    0.0301 C.3       1 RES1    0.0000
     29 C9         1.9962    1.2307    0.3864 C.3       1 RES1    0.0000
     30 H6         2.8801    1.4349    0.7026 H         1 RES1    0.0000
     31 H7         2.0550    0.6700   -0.3894 H         1 RES1    0.0000
     32 H8         1.5087    0.7731    1.0751 H         1 RES1    0.0000
     33 C10        8.5099    5.5400    4.4582 C.3       1 RES1    0.0000
     34 C11        9.5392    6.3787    5.1600 C.3       1 RES1    0.0000
     35 H9         9.3983    6.3313    6.1076 H         1 RES1    0.0000
     36 H10        9.4613    7.2903    4.8717 H         1 RES1    0.0000
     37 H11       10.4167    6.0505    4.9521 H         1 RES1    0.0000
     38 C12        6.0753    5.5810    4.5936 C.2       1 RES1    0.0000
     39 C13        3.7405    5.9903    5.2649 C.ar      1 RES1    0.0000
     40 C14        2.9380    6.4215    6.3387 C.ar      1 RES1    0.0000
     41 C15        0.9988    9.5566   10.3999 C.3       1 RES1    0.0000
     42 H12        1.2327    8.7726   10.9032 H         1 RES1    0.0000
     43 H13        0.8615   10.2923   11.0005 H         1 RES1    0.0000
     44 H14        1.7090    9.7690    9.7900 H         1 RES1    0.0000
     45 C16       -0.6486   10.4227    8.6828 C.3       1 RES1    0.0000
     46 H15        0.0883   10.6095    8.0970 H         1 RES1    0.0000
     47 H16       -0.8573   11.2094    9.1932 H         1 RES1    0.0000
     48 H17       -1.4135   10.1647    8.1647 H         1 RES1    0.0000
     49 C17       -0.0798    2.2353   -0.5722 C.3       1 RES1    0.0000
     50 H18       -0.5884    1.6829    0.0254 H         1 RES1    0.0000
     51 H19        0.0280    1.7822   -1.4137 H         1 RES1    0.0000
     52 H20       -0.5435    3.0649   -0.7111 H         1 RES1    0.0000
     53 C18        2.0691    3.4241   -0.8668 C.3       1 RES1    0.0000
     54 H21        1.6152    4.2655   -0.9481 H         1 RES1    0.0000
     55 H22        2.1559    3.0221   -1.7354 H         1 RES1    0.0000
     56 H23        2.9418    3.5654   -0.4910 H         1 RES1    0.0000
     57 C19        3.1612    5.2865    4.2254 C.ar      1 RES1    0.0000
     58 H24        3.6968    4.9884    3.5258 H         1 RES1    0.0000
     59 C20        8.5858    5.7433    2.9882 C.3       1 RES1    0.0000
     60 H25        9.4081    5.3750    2.6581 H         1 RES1    0.0000
     61 H26        8.5536    6.6822    2.7935 H         1 RES1    0.0000
     62 H27        7.8448    5.3030    2.5650 H         1 RES1    0.0000
     63 C21       -1.4331    8.9340   10.5320 C.3       1 RES1    0.0000
     64 H28       -2.2049    8.7270    9.9974 H         1 RES1    0.0000
     65 H29       -1.6320    9.6751   11.1106 H         1 RES1    0.0000
     66 H30       -1.1977    8.1691   11.0640 H         1 RES1    0.0000
     67 H31        0.0742    6.1535    7.5510 H         1 RES1    0.0000
@<TRIPOS>BOND
     1    1   22 1
     2    2   23 1
     3    3   27 1
     4    4   33 1
     5    5   38 2
     6    6   19 2
     7    7   19 2
     8    8   23 2
     9    9   20 2
    10   10   20 2
    11   11   12 1
    12   13   14 1
    13   15   13 1
    14   16   13 1
    15   17   18 1
    16   19   40 1
    17   20   25 1
    18   21   27 2
    19   22   41 1
    20   23    1 1
    21   24    2 1
    22   25   24 ar
    23   26   11 1
    24   27   11 1
    25   28    3 1
    26   29   28 1
    27   30   29 1
    28   31   29 1
    29   32   29 1
    30   33   13 1
    31   34   33 1
    32   35   34 1
    33   36   34 1
    34   37   34 1
    35   38    4 1
    36   39   17 1
    37   40   24 ar
    38   41   42 1
    39   43   41 1
    40   44   41 1
    41   45   22 1
    42   46   45 1
    43   47   45 1
    44   48   45 1
    45   49   28 1
    46   50   49 1
    47   51   49 1
    48   52   49 1
    49   53   28 1
    50   54   53 1
    51   55   53 1
    52   56   53 1
    53   57   26 ar
    54   58   57 1
    55   59   33 1
    56   60   59 1
    57   61   59 1
    58   62   59 1
    59   63   22 1
    60   64   63 1
    61   65   63 1
    62   66   63 1
    63   67    2 1
    64   17   38 1
    65   25   26 ar
    66   39   40 ar
    67   39   57 ar
@<TRIPOS>SUBSTRUCTURE
     1 RES1 1

@<TRIPOS>CRYSIN
  14.0085    9.1163   42.3260  90.0000  90.0000  90.0000  61 1

