# MOL2 file generated by ConQuest
# Please check atom types

@<TRIPOS>MOLECULE
VAXLAJ
    33    33     1
SMALL
NO_CHARGES
****
Generated from CSD

@<TRIPOS>ATOM
      1 O1         6.2091    2.6341   16.8687 O.3       1 RES1    0.0000
      2 O2        -0.7109   -0.5011   13.6237 O.2       1 RES1    0.0000
      3 O3         4.0768    3.3418   16.6220 O.2       1 RES1    0.0000
      4 O4         6.2459   -0.3054   14.1568 O.2       1 RES1    0.0000
      5 O5         5.1718   -1.8849   13.2057 O.2       1 RES1    0.0000
      6 O6         0.5388   -1.9269   12.6346 O.2       1 RES1    0.0000
      7 N1         4.9382    1.5662   15.4577 N.am      1 RES1    0.0000
      8 H1         5.6957    1.2320   15.2239 H         1 RES1    0.0000
      9 N2         0.3800   -0.9379   13.3216 N.pl3     1 RES1    0.0000
     10 N3         5.1980   -0.8335   13.8095 N.pl3     1 RES1    0.0000
     11 C1         6.5381    4.9969   17.4297 C.3       1 RES1    0.0000
     12 H2         7.0781    5.0665   16.6381 H         1 RES1    0.0000
     13 H3         6.8701    5.5999   18.0992 H         1 RES1    0.0000
     14 H4         5.6298    5.2231   17.2177 H         1 RES1    0.0000
     15 C2         6.5951    3.5831   17.9542 C.3       1 RES1    0.0000
     16 C3         4.9876    2.6049   16.3661 C.2       1 RES1    0.0000
     17 C4         3.8245    1.0003   14.8792 C.ar      1 RES1    0.0000
     18 C5         3.9171   -0.1836   14.1096 C.ar      1 RES1    0.0000
     19 C6         2.8001   -0.8023   13.5974 C.ar      1 RES1    0.0000
     20 H5         2.8827   -1.5842   13.1010 H         1 RES1    0.0000
     21 C7         1.5653   -0.2538   13.8265 C.ar      1 RES1    0.0000
     22 C8         8.0208    3.1630   18.2396 C.3       1 RES1    0.0000
     23 H6         8.0352    2.2395   18.5028 H         1 RES1    0.0000
     24 H7         8.3776    3.7031   18.9484 H         1 RES1    0.0000
     25 H8         8.5538    3.2788   17.4486 H         1 RES1    0.0000
     26 C9         5.7076    3.3604   19.1524 C.3       1 RES1    0.0000
     27 H9         4.8266    3.6929   18.9645 H         1 RES1    0.0000
     28 H10        6.0702    3.8249   19.9105 H         1 RES1    0.0000
     29 H11        5.6603    2.4207   19.3455 H         1 RES1    0.0000
     30 C10        2.5384    1.5350   15.0407 C.ar      1 RES1    0.0000
     31 H12        2.4384    2.3331   15.5080 H         1 RES1    0.0000
     32 C11        1.4268    0.9229   14.5347 C.ar      1 RES1    0.0000
     33 H13        0.5842    1.2950   14.6669 H         1 RES1    0.0000
@<TRIPOS>BOND
     1    1   15 1
     2    2    9 2
     3    3   16 2
     4    4   10 2
     5    5   10 2
     6    6    9 2
     7    7    8 1
     8    9   21 1
     9   10   18 1
    10   11   12 1
    11   13   11 1
    12   14   11 1
    13   15   11 1
    14   16    1 1
    15   17    7 1
    16   18   17 ar
    17   19   18 ar
    18   20   19 1
    19   21   19 ar
    20   22   15 1
    21   23   22 1
    22   24   22 1
    23   25   22 1
    24   26   15 1
    25   27   26 1
    26   28   26 1
    27   29   26 1
    28   30   17 ar
    29   31   30 1
    30   32   21 ar
    31   33   32 1
    32    7   16 1
    33   30   32 ar
@<TRIPOS>SUBSTRUCTURE
     1 RES1 1

@<TRIPOS>CRYSIN
  13.4412    6.0008   16.9685  90.0000 107.9330  90.0000  14 1

