# MOL2 file generated by ConQuest
# Please check atom types

@<TRIPOS>MOLECULE
VAXPIV
    34    36     1
SMALL
NO_CHARGES
****
Generated from CSD

@<TRIPOS>ATOM
      1 C1        12.0952    0.2722   -0.7746 C.ar      1 RES1    0.0000
      2 H1        12.9845   -0.0256   -0.6270 H         1 RES1    0.0000
      3 C2        11.1694   -0.5820   -1.3609 C.ar      1 RES1    0.0000
      4 H2        11.4156   -1.4646   -1.6121 H         1 RES1    0.0000
      5 C3         9.8812   -0.1212   -1.5724 C.ar      1 RES1    0.0000
      6 N1         8.9182   -1.0093   -2.2253 N.pl3     1 RES1    0.0000
      7 O1         9.3162   -2.1045   -2.6149 O.2       1 RES1    0.0000
      8 O2         7.7651   -0.6100   -2.3741 O.2       1 RES1    0.0000
      9 C4         9.4777    1.1548   -1.2209 C.ar      1 RES1    0.0000
     10 H3         8.5868    1.4448   -1.3748 H         1 RES1    0.0000
     11 C5        10.4083    1.9955   -0.6397 C.ar      1 RES1    0.0000
     12 H4        10.1522    2.8780   -0.3985 H         1 RES1    0.0000
     13 C6        11.7242    1.5722   -0.3991 C.ar      1 RES1    0.0000
     14 C7        12.6561    2.5412    0.1664 C.2       1 RES1    0.0000
     15 H5        12.3765    3.4457    0.0933 H         1 RES1    0.0000
     16 C8        13.8562    2.3703    0.7802 C.2       1 RES1    0.0000
     17 C9        14.5673    3.6459    1.0119 C.2       1 RES1    0.0000
     18 H6        14.1168    4.4485    0.7775 H         1 RES1    0.0000
     19 O3        15.6809    3.7463    1.4778 O.2       1 RES1    0.0000
     20 C10       14.4795    1.1357    1.2482 C.2       1 RES1    0.0000
     21 C11       15.8416    0.8982    1.2659 C.2       1 RES1    0.0000
     22 H7        16.5008    1.4832    0.9105 H         1 RES1    0.0000
     23 N2        16.1009   -0.2985    1.8678 N.pl3     1 RES1    0.0000
     24 H8        16.8997   -0.6503    1.9773 H         1 RES1    0.0000
     25 C12       14.9215   -0.8667    2.2747 C.ar      1 RES1    0.0000
     26 C13       14.7037   -2.0557    2.9761 C.ar      1 RES1    0.0000
     27 H9        15.4274   -2.6116    3.2400 H         1 RES1    0.0000
     28 C14       13.4017   -2.3907    3.2705 C.ar      1 RES1    0.0000
     29 H10       13.2199   -3.2014    3.7311 H         1 RES1    0.0000
     30 C15       12.3378   -1.5545    2.9018 C.ar      1 RES1    0.0000
     31 H11       11.4490   -1.8136    3.1142 H         1 RES1    0.0000
     32 C16       12.5515   -0.3605    2.2355 C.ar      1 RES1    0.0000
     33 H12       11.8227    0.2047    2.0084 H         1 RES1    0.0000
     34 C17       13.8662   -0.0022    1.9020 C.ar      1 RES1    0.0000
@<TRIPOS>BOND
     1    1    2 1
     2    3    1 ar
     3    4    3 1
     4    5    3 ar
     5    6    5 1
     6    7    6 2
     7    8    6 2
     8    9    5 ar
     9   10    9 1
    10   11    9 ar
    11   12   11 1
    12   13    1 ar
    13   14   13 1
    14   15   14 1
    15   16   14 2
    16   17   16 1
    17   18   17 1
    18   19   17 2
    19   20   16 1
    20   21   20 2
    21   22   21 1
    22   23   21 1
    23   24   23 1
    24   25   23 1
    25   26   25 ar
    26   27   26 1
    27   28   26 ar
    28   29   28 1
    29   30   28 ar
    30   31   30 1
    31   32   30 ar
    32   33   32 1
    33   34   20 1
    34   11   13 ar
    35   25   34 ar
    36   32   34 ar
@<TRIPOS>SUBSTRUCTURE
     1 RES1 1

@<TRIPOS>CRYSIN
  16.9797   11.6330    7.2322  90.0000  90.0070  90.0000  14 1

