# MOL2 file generated by ConQuest
# Please check atom types

@<TRIPOS>MOLECULE
VAXZUQ
    45    47     1
SMALL
NO_CHARGES
****
Generated from CSD

@<TRIPOS>ATOM
      1 C1        -0.3812    6.2765    3.4302 C.ar      1 RES1    0.0000
      2 O1         0.3773    5.4922    5.5124 O.3       1 RES1    0.0000
      3 O2         1.2316    7.4274    4.7542 O.2       1 RES1    0.0000
      4 O3         0.1777    4.5164   10.3892 O.3       1 RES1    0.0000
      5 O4         0.0422    2.3644   10.9670 O.2       1 RES1    0.0000
      6 C2         1.2762    4.2541    7.3712 C.3       1 RES1    0.0000
      7 H1         0.3841    3.8652    7.4811 H         1 RES1    0.0000
      8 C3         1.1203    5.6424    6.7717 C.3       1 RES1    0.0000
      9 H2         2.0052    6.0204    6.5882 H         1 RES1    0.0000
     10 C4         1.2850    2.3910    5.6031 C.3       1 RES1    0.0000
     11 H3         0.8261    1.7538    6.1724 H         1 RES1    0.0000
     12 H4         0.6109    2.9110    5.1401 H         1 RES1    0.0000
     13 C5         0.5051    6.4826    4.6079 C.2       1 RES1    0.0000
     14 N1        -3.0187    5.9313    0.1583 N.pl3     1 RES1    0.0000
     15 C6         1.9051    4.4290    8.7718 C.3       1 RES1    0.0000
     16 H5         2.8254    4.7554    8.6834 H         1 RES1    0.0000
     17 C7         0.6294    3.2561   10.3998 C.2       1 RES1    0.0000
     18 C8        -0.4788    7.2931    2.4978 C.ar      1 RES1    0.0000
     19 H6         0.0374    8.0615    2.5984 H         1 RES1    0.0000
     20 C9         0.3565    6.5654    7.6606 C.2       1 RES1    0.0000
     21 H7        -0.1102    7.2713    7.2732 H         1 RES1    0.0000
     22 C10       -1.9721    5.0037    2.1699 C.ar      1 RES1    0.0000
     23 H8        -2.4685    4.2260    2.0433 H         1 RES1    0.0000
     24 C11       -1.1262    5.1271    3.2520 C.ar      1 RES1    0.0000
     25 H9        -1.0567    4.4321    3.8669 H         1 RES1    0.0000
     26 C12       -1.3272    7.1854    1.4251 C.ar      1 RES1    0.0000
     27 H10       -1.3986    7.8741    0.8031 H         1 RES1    0.0000
     28 C13       -2.0683    6.0407    1.2879 C.ar      1 RES1    0.0000
     29 C14        1.8901    3.1406    9.5941 C.3       1 RES1    0.0000
     30 H11        1.8663    2.3613    9.0189 H         1 RES1    0.0000
     31 H12        2.6681    3.0859   10.1716 H         1 RES1    0.0000
     32 O5        -3.7821    4.9881    0.1356 O.2       1 RES1    0.0000
     33 C15        2.1047    3.3186    6.4722 C.3       1 RES1    0.0000
     34 H13        2.6700    3.8605    5.8984 H         1 RES1    0.0000
     35 H14        2.6855    2.7829    7.0346 H         1 RES1    0.0000
     36 C16        1.0995    5.3832    9.6647 C.3       1 RES1    0.0000
     37 H15        1.7055    5.8126   10.3039 H         1 RES1    0.0000
     38 C17        0.3166    6.4217    8.9645 C.2       1 RES1    0.0000
     39 H16       -0.2214    6.9933    9.4653 H         1 RES1    0.0000
     40 O6        -3.0318    6.8168   -0.6539 O.2       1 RES1    0.0000
     41 C18        2.0829    1.6538    4.6110 C.2       1 RES1    0.0000
     42 H17        2.8026    1.1588    4.9275 H         1 RES1    0.0000
     43 C19        1.8711    1.6335    3.3402 C.2       1 RES1    0.0000
     44 H18        1.1621    2.1161    2.9787 H         1 RES1    0.0000
     45 H19        2.4277    1.1385    2.7850 H         1 RES1    0.0000
@<TRIPOS>BOND
     1    1   13 1
     2    2    8 1
     3    3   13 2
     4    4   17 1
     5    5   17 2
     6    6    7 1
     7    8    6 1
     8    9    8 1
     9   10   11 1
    10   12   10 1
    11   13    2 1
    12   14   28 1
    13   15    6 1
    14   16   15 1
    15   17   29 1
    16   18    1 ar
    17   19   18 1
    18   20    8 1
    19   21   20 1
    20   22   23 1
    21   24    1 ar
    22   25   24 1
    23   26   18 ar
    24   27   26 1
    25   28   22 ar
    26   29   15 1
    27   30   29 1
    28   31   29 1
    29   32   14 2
    30   33    6 1
    31   34   33 1
    32   35   33 1
    33   36    4 1
    34   37   36 1
    35   38   20 2
    36   39   38 1
    37   40   14 2
    38   41   10 1
    39   42   41 1
    40   43   41 2
    41   44   43 1
    42   45   43 1
    43   10   33 1
    44   15   36 1
    45   22   24 ar
    46   26   28 ar
    47   36   38 1
@<TRIPOS>SUBSTRUCTURE
     1 RES1 1

@<TRIPOS>CRYSIN
   4.8563   15.6170   23.6220  90.0000  90.0000  90.0000  19 1

