# MOL2 file generated by ConQuest
# Please check atom types

@<TRIPOS>MOLECULE
VAYCUU
    62    63     1
SMALL
NO_CHARGES
****
Generated from CSD

@<TRIPOS>ATOM
      1 C1         7.0393    5.1298    6.2355 C.ar      1 RES1    0.0000
      2 C2         6.7506    5.6046    7.4974 C.ar      1 RES1    0.0000
      3 H1         7.3169    5.4082    8.2076 H         1 RES1    0.0000
      4 C3         5.6379    6.3609    7.7054 C.ar      1 RES1    0.0000
      5 H2         5.4229    6.6469    8.5643 H         1 RES1    0.0000
      6 C4         4.8231    6.7051    6.6300 C.ar      1 RES1    0.0000
      7 H3         4.0889    7.2614    6.7561 H         1 RES1    0.0000
      8 C5         5.1242    6.2035    5.3628 C.ar      1 RES1    0.0000
      9 H4         4.5511    6.3958    4.6547 H         1 RES1    0.0000
     10 C6         6.2405    5.4336    5.1227 C.ar      1 RES1    0.0000
     11 C7         6.5596    4.9542    3.7185 C.3       1 RES1    0.0000
     12 H5         7.3260    5.4462    3.3833 H         1 RES1    0.0000
     13 H6         6.8008    4.0157    3.7506 H         1 RES1    0.0000
     14 C8         4.5440    3.9828    2.7981 C.3       1 RES1    0.0000
     15 H7         4.2248    3.8208    3.7012 H         1 RES1    0.0000
     16 H8         5.0185    3.1916    2.5004 H         1 RES1    0.0000
     17 C9         3.3640    4.2425    1.8806 C.3       1 RES1    0.0000
     18 H9         2.8430    4.9820    2.2320 H         1 RES1    0.0000
     19 H10        3.6901    4.4951    1.0030 H         1 RES1    0.0000
     20 C10        2.4868    3.0342    1.7556 C.3       1 RES1    0.0000
     21 H11        3.0026    2.3017    1.3844 H         1 RES1    0.0000
     22 H12        2.1808    2.7674    2.6382 H         1 RES1    0.0000
     23 C11        0.5954    2.3047    0.4238 C.2       1 RES1    0.0000
     24 O1         8.6703    3.7499    7.0686 O.2       1 RES1    0.0000
     25 O2         8.8202    4.2825    5.0800 O.2       1 RES1    0.0000
     26 O3         0.8212    1.1116    0.6255 O.2       1 RES1    0.0000
     27 N1         8.2431    4.3285    6.1190 N.pl3     1 RES1    0.0000
     28 N2         5.4500    5.1243    2.7989 N.3       1 RES1    0.0000
     29 H13        5.3392    5.8218    2.3097 H         1 RES1    0.0000
     30 N3         1.3302    3.2893    0.9006 N.am      1 RES1    0.0000
     31 H14        1.1238    4.1007    0.7028 H         1 RES1    0.0000
     32 C1B       -7.0393   -0.0678   -6.2355 C.ar      1 RES1    0.0000
     33 C2B       -6.7506   -0.5426   -7.4974 C.ar      1 RES1    0.0000
     34 H1B       -7.3169   -0.3462   -8.2076 H         1 RES1    0.0000
     35 C3B       -5.6379   -1.2989   -7.7054 C.ar      1 RES1    0.0000
     36 H2B       -5.4229   -1.5849   -8.5643 H         1 RES1    0.0000
     37 C4B       -4.8231   -1.6431   -6.6300 C.ar      1 RES1    0.0000
     38 H3B       -4.0889   -2.1994   -6.7561 H         1 RES1    0.0000
     39 C5B       -5.1242   -1.1415   -5.3628 C.ar      1 RES1    0.0000
     40 H4B       -4.5511   -1.3338   -4.6547 H         1 RES1    0.0000
     41 C6B       -6.2405   -0.3716   -5.1227 C.ar      1 RES1    0.0000
     42 C7B       -6.5596    0.1078   -3.7185 C.3       1 RES1    0.0000
     43 H5B       -7.3260   -0.3842   -3.3833 H         1 RES1    0.0000
     44 H6B       -6.8008    1.0463   -3.7506 H         1 RES1    0.0000
     45 C8B       -4.5440    1.0792   -2.7981 C.3       1 RES1    0.0000
     46 H7B       -4.2248    1.2412   -3.7012 H         1 RES1    0.0000
     47 H8B       -5.0185    1.8704   -2.5004 H         1 RES1    0.0000
     48 C9B       -3.3640    0.8195   -1.8806 C.3       1 RES1    0.0000
     49 H9B       -2.8430    0.0800   -2.2320 H         1 RES1    0.0000
     50 H10B      -3.6901    0.5669   -1.0030 H         1 RES1    0.0000
     51 C10B      -2.4868    2.0278   -1.7556 C.3       1 RES1    0.0000
     52 H11B      -3.0026    2.7603   -1.3844 H         1 RES1    0.0000
     53 H12B      -2.1808    2.2946   -2.6382 H         1 RES1    0.0000
     54 C11B      -0.5954    2.7573   -0.4238 C.2       1 RES1    0.0000
     55 O1B       -8.6703    1.3121   -7.0686 O.2       1 RES1    0.0000
     56 O2B       -8.8202    0.7795   -5.0800 O.2       1 RES1    0.0000
     57 O3B       -0.8212    3.9504   -0.6255 O.2       1 RES1    0.0000
     58 N1B       -8.2431    0.7335   -6.1190 N.pl3     1 RES1    0.0000
     59 N2B       -5.4500   -0.0623   -2.7989 N.3       1 RES1    0.0000
     60 H13B      -5.3392   -0.7598   -2.3097 H         1 RES1    0.0000
     61 N3B       -1.3302    1.7727   -0.9006 N.am      1 RES1    0.0000
     62 H14B      -1.1238    0.9613   -0.7028 H         1 RES1    0.0000
@<TRIPOS>BOND
     1    1    2 ar
     2    2    3 1
     3    4    2 ar
     4    5    4 1
     5    6    4 ar
     6    7    6 1
     7    8    6 ar
     8    9    8 1
     9   10    1 ar
    10   11   10 1
    11   12   11 1
    12   13   11 1
    13   14   15 1
    14   16   14 1
    15   17   14 1
    16   18   17 1
    17   19   17 1
    18   20   17 1
    19   21   20 1
    20   22   20 1
    21   23   26 2
    22   24   27 2
    23   25   27 2
    24   27    1 1
    25   28   11 1
    26   29   28 1
    27   30   20 1
    28   31   30 1
    29   32   33 ar
    30   33   34 1
    31   35   33 ar
    32   36   35 1
    33   37   35 ar
    34   38   37 1
    35   39   37 ar
    36   40   39 1
    37   41   32 ar
    38   42   41 1
    39   43   42 1
    40   44   42 1
    41   45   46 1
    42   47   45 1
    43   48   45 1
    44   49   48 1
    45   50   48 1
    46   51   48 1
    47   52   51 1
    48   53   51 1
    49   54   23 1
    50   55   58 2
    51   56   58 2
    52   57   54 2
    53   58   32 1
    54   59   42 1
    55   60   59 1
    56   61   51 1
    57   62   61 1
    58    8   10 ar
    59   14   28 1
    60   23   30 1
    61   39   41 ar
    62   45   59 1
    63   54   61 1
@<TRIPOS>SUBSTRUCTURE
     1 RES1 1

@<TRIPOS>CRYSIN
   6.7620    5.0620   35.3560  90.0000  92.7000  90.0000 231 1

