# MOL2 file generated by ConQuest
# Please check atom types

@<TRIPOS>MOLECULE
VAYFAD
   100   106     2
SMALL
NO_CHARGES
****
Generated from CSD

@<TRIPOS>ATOM
      1 C1        -3.9757   -6.0049    1.8363 C.ar      1 RES1    0.0000
      2 C2        -3.5062   -6.3362    3.0874 C.ar      1 RES1    0.0000
      3 C3        -2.1914   -6.0469    3.3787 C.ar      1 RES1    0.0000
      4 C4        -1.3633   -5.3941    2.4475 C.ar      1 RES1    0.0000
      5 C5        -1.8570   -5.0628    1.2173 C.ar      1 RES1    0.0000
      6 C6        -3.1655   -5.3997    0.9155 C.ar      1 RES1    0.0000
      7 C7        -1.8801   -6.7821    5.7274 C.2       1 RES1    0.0000
      8 C8        -0.9126   -7.1483    6.7938 C.3       1 RES1    0.0000
      9 C9         0.0317   -6.2691    4.1330 C.3       1 RES1    0.0000
     10 C10       -0.0048   -5.1481    3.0770 C.3       1 RES1    0.0000
     11 C11        1.1607   -5.0782    2.1354 C.3       1 RES1    0.0000
     12 C12        1.5766   -6.4285    1.6074 C.3       1 RES1    0.0000
     13 C13        1.7813   -7.4307    2.7050 C.3       1 RES1    0.0000
     14 C14        0.4953   -7.5928    3.5217 C.3       1 RES1    0.0000
     15 C15        3.2098   -3.8216    2.2993 C.2       1 RES1    0.0000
     16 C16        4.3829   -3.5043    3.1004 C.ar      1 RES1    0.0000
     17 C17        4.3723   -3.6091    4.4815 C.ar      1 RES1    0.0000
     18 C18        5.5362   -3.2862    5.1578 C.ar      1 RES1    0.0000
     19 C19        6.6893   -2.8948    4.5647 C.ar      1 RES1    0.0000
     20 C20        6.6475   -2.7411    3.1914 C.ar      1 RES1    0.0000
     21 C21        5.5097   -3.0444    2.4397 C.ar      1 RES1    0.0000
     22 N1        -1.4069   -6.3838    4.5361 N.am      1 RES1    0.0000
     23 N2         5.5357   -3.3575    6.6247 N.pl3     1 RES1    0.0000
     24 N3         7.8529   -2.2840    2.4969 N.pl3     1 RES1    0.0000
     25 O1        -3.0900   -6.8310    5.9381 O.2       1 RES1    0.0000
     26 O2         2.2887   -4.5610    2.9443 O.3       1 RES1    0.0000
     27 O3         3.0870   -3.4665    1.1392 O.2       1 RES1    0.0000
     28 O4         4.4434   -3.4875    7.2047 O.2       1 RES1    0.0000
     29 O5         6.5885   -3.2177    7.2437 O.2       1 RES1    0.0000
     30 O6         8.8508   -2.0338    3.1758 O.2       1 RES1    0.0000
     31 O7         7.7976   -2.1219    1.2667 O.2       1 RES1    0.0000
     32 C22        6.9580    0.8261    2.1302 C.ar      2 RES2    0.0000
     33 C23        6.4291    0.5829    3.3631 C.ar      2 RES2    0.0000
     34 C24        5.1065    0.8596    3.5529 C.ar      2 RES2    0.0000
     35 C25        4.3347    1.4593    2.5568 C.ar      2 RES2    0.0000
     36 C26        4.8881    1.6955    1.3291 C.ar      2 RES2    0.0000
     37 C27        6.2241    1.3419    1.1080 C.ar      2 RES2    0.0000
     38 C28        4.6841    0.2041    5.9250 C.2       2 RES2    0.0000
     39 C29        3.6532   -0.1020    6.9290 C.3       2 RES2    0.0000
     40 C30        2.8324    0.6933    4.2240 C.3       2 RES2    0.0000
     41 C31        2.9355    1.7528    3.0926 C.3       2 RES2    0.0000
     42 C32        1.8147    1.7207    2.1068 C.3       2 RES2    0.0000
     43 C33        1.3920    0.3299    1.6516 C.3       2 RES2    0.0000
     44 C34        1.1402   -0.5675    2.8169 C.3       2 RES2    0.0000
     45 C35        2.3876   -0.6723    3.7064 C.3       2 RES2    0.0000
     46 C36       -0.2546    2.9801    2.0600 C.2       2 RES2    0.0000
     47 C37       -1.4366    3.3953    2.8377 C.ar      2 RES2    0.0000
     48 C38       -1.4956    3.3002    4.2162 C.ar      2 RES2    0.0000
     49 C39       -2.6448    3.6706    4.8664 C.ar      2 RES2    0.0000
     50 C40       -3.7611    4.1123    4.2188 C.ar      2 RES2    0.0000
     51 C41       -3.6687    4.2577    2.8429 C.ar      2 RES2    0.0000
     52 C42       -2.5232    3.9027    2.1510 C.ar      2 RES2    0.0000
     53 N4         4.2620    0.6011    4.6922 N.am      2 RES2    0.0000
     54 N5        -2.7237    3.5798    6.3386 N.pl3     2 RES2    0.0000
     55 N6        -4.8162    4.7707    2.0808 N.pl3     2 RES2    0.0000
     56 O8         5.8909    0.1300    6.1643 O.2       2 RES2    0.0000
     57 O9         0.6543    2.3273    2.7935 O.3       2 RES2    0.0000
     58 O10       -0.1365    3.1758    0.8609 O.2       2 RES2    0.0000
     59 O11       -1.6665    3.3310    6.9290 O.2       2 RES2    0.0000
     60 O12       -3.7966    3.7713    6.9004 O.2       2 RES2    0.0000
     61 O13       -5.8580    4.9874    2.7128 O.2       2 RES2    0.0000
     62 O14       -4.6844    4.9398    0.8713 O.2       2 RES2    0.0000
     63 H1        -4.8602   -6.1950    1.6152 H         1 RES1    0.0000
     64 H2        -4.0587   -6.7416    3.7142 H         1 RES1    0.0000
     65 H3        -1.3256   -4.6197    0.5956 H         1 RES1    0.0000
     66 H4        -3.5006   -5.2110    0.0676 H         1 RES1    0.0000
     67 H5        -0.3648   -6.3893    7.0045 H         1 RES1    0.0000
     68 H6        -0.3579   -7.8696    6.4895 H         1 RES1    0.0000
     69 H7        -1.3924   -7.4237    7.5793 H         1 RES1    0.0000
     70 H8         0.5929   -6.0175    4.8977 H         1 RES1    0.0000
     71 H9        -0.0503   -4.2940    3.5555 H         1 RES1    0.0000
     72 H10        0.9634   -4.4674    1.3941 H         1 RES1    0.0000
     73 H11        0.8939   -6.7570    1.0014 H         1 RES1    0.0000
     74 H12        2.4004   -6.3334    1.1054 H         1 RES1    0.0000
     75 H13        2.4998   -7.1358    3.2850 H         1 RES1    0.0000
     76 H14        2.0336   -8.2862    2.3227 H         1 RES1    0.0000
     77 H15        0.6476   -8.2358    4.2318 H         1 RES1    0.0000
     78 H16       -0.2055   -7.9409    2.9495 H         1 RES1    0.0000
     79 H17        3.6105   -3.8859    4.9367 H         1 RES1    0.0000
     80 H18        7.4649   -2.7397    5.0511 H         1 RES1    0.0000
     81 H19        5.5094   -2.9410    1.5164 H         1 RES1    0.0000
     82 H20        7.8540    0.6304    1.9846 H         2 RES2    0.0000
     83 H21        6.9531    0.2418    4.0497 H         2 RES2    0.0000
     84 H22        4.3838    2.0841    0.6502 H         2 RES2    0.0000
     85 H23        6.6071    1.4579    0.2679 H         2 RES2    0.0000
     86 H24        3.0766   -0.7926    6.5961 H         2 RES2    0.0000
     87 H25        3.1361    0.6877    7.1085 H         2 RES2    0.0000
     88 H26        4.0728   -0.3984    7.7405 H         2 RES2    0.0000
     89 H27        2.2461    1.0050    4.9445 H         2 RES2    0.0000
     90 H28        2.9486    2.6404    3.5087 H         2 RES2    0.0000
     91 H29        2.0520    2.2616    1.3239 H         2 RES2    0.0000
     92 H30        0.5850    0.3970    1.1184 H         2 RES2    0.0000
     93 H31        2.0887   -0.0531    1.0976 H         2 RES2    0.0000
     94 H32        0.8955   -1.4495    2.4969 H         2 RES2    0.0000
     95 H33        0.3995   -0.2209    3.3397 H         2 RES2    0.0000
     96 H34        2.1966   -1.2524    4.4581 H         2 RES2    0.0000
     97 H35        3.1099   -1.0721    3.1966 H         2 RES2    0.0000
     98 H36       -0.7625    2.9899    4.6974 H         2 RES2    0.0000
     99 H37       -4.5462    4.3080    4.6792 H         2 RES2    0.0000
    100 H38       -2.4841    4.0061    1.2277 H         2 RES2    0.0000
@<TRIPOS>BOND
     1    1    2 ar
     2    2    3 ar
     3    3    4 ar
     4    4    5 ar
     5    5    6 ar
     6    6    1 ar
     7    7    8 1
     8    8   67 1
     9    9   10 1
    10   10    4 1
    11   11   10 1
    12   12   11 1
    13   13   12 1
    14   14    9 1
    15   15   16 1
    16   16   17 ar
    17   17   18 ar
    18   18   19 ar
    19   19   20 ar
    20   20   21 ar
    21   21   16 ar
    22   22    3 1
    23   23   18 1
    24   24   20 1
    25   25    7 2
    26   26   11 1
    27   27   15 2
    28   28   23 2
    29   29   23 2
    30   30   24 2
    31   31   24 2
    32   32   33 ar
    33   33   34 ar
    34   34   35 ar
    35   35   36 ar
    36   36   37 ar
    37   37   32 ar
    38   38   39 1
    39   39   86 1
    40   40   41 1
    41   41   35 1
    42   42   41 1
    43   43   42 1
    44   44   43 1
    45   45   40 1
    46   46   47 1
    47   47   48 ar
    48   48   49 ar
    49   49   50 ar
    50   50   51 ar
    51   51   52 ar
    52   52   47 ar
    53   53   34 1
    54   54   49 1
    55   55   51 1
    56   56   38 2
    57   57   42 1
    58   58   46 2
    59   59   54 2
    60   60   54 2
    61   61   55 2
    62   62   55 2
    63   63    1 1
    64   64    2 1
    65   65    5 1
    66   66    6 1
    67   68    8 1
    68   69    8 1
    69   70    9 1
    70   71   10 1
    71   72   11 1
    72   73   12 1
    73   74   12 1
    74   75   13 1
    75   76   13 1
    76   77   14 1
    77   78   14 1
    78   79   17 1
    79   80   19 1
    80   81   21 1
    81   82   32 1
    82   83   33 1
    83   84   36 1
    84   85   37 1
    85   87   39 1
    86   88   39 1
    87   89   40 1
    88   90   41 1
    89   91   42 1
    90   92   43 1
    91   93   43 1
    92   94   44 1
    93   95   44 1
    94   96   45 1
    95   97   45 1
    96   98   48 1
    97   99   50 1
    98  100   52 1
    99    7   22 1
   100    9   22 1
   101   13   14 1
   102   15   26 1
   103   38   53 1
   104   40   53 1
   105   44   45 1
   106   46   57 1
@<TRIPOS>SUBSTRUCTURE
     1 RES1 1
     2 RES2 32

@<TRIPOS>CRYSIN
  10.6140   13.9780   26.4780  90.0000 100.7900  90.0000  14 1

