# MOL2 file generated by ConQuest
# Please check atom types

@<TRIPOS>MOLECULE
VAZBUV
    11    11     1
SMALL
NO_CHARGES
****
Generated from CSD

@<TRIPOS>ATOM
      1 O1         7.8682    3.2498    1.8280 O.2       1 RES1    0.0000
      2 O2         9.5919    3.0259    0.5126 O.2       1 RES1    0.0000
      3 N1         9.3396    0.3217    0.6223 N.2       1 RES1    0.0000
      4 N2         7.5529    0.5609    1.9777 N.2       1 RES1    0.0000
      5 N3         9.3682   -2.0431    0.6023 N.3       1 RES1    0.0000
      6 N4         8.6645    2.5685    1.1960 N.pl3     1 RES1    0.0000
      7 N5         8.8074   -0.8357    1.0215 N.pl3     1 RES1    0.0000
      8 N6         7.7559   -0.7427    1.8177 N.2       1 RES1    0.0000
      9 C1         8.5127    1.1388    1.2657 C.2       1 RES1    0.0000
     10 H1         8.6724   -2.5620    0.0242 H         1 RES1    0.0000
     11 H2         9.8353   -2.4004    1.1997 H         1 RES1    0.0000
@<TRIPOS>BOND
     1    1    6 2
     2    2    6 2
     3    3    7 1
     4    4    8 2
     5    5    7 1
     6    6    9 1
     7    7    8 1
     8    9    3 2
     9   10    5 1
    10   11    5 1
    11    4    9 1
@<TRIPOS>SUBSTRUCTURE
     1 RES1 1

@<TRIPOS>CRYSIN
   9.8550    8.0820    6.0590  90.0000  90.0000  90.0000  33 1

