# MOL2 file generated by ConQuest
# Please check atom types

@<TRIPOS>MOLECULE
VAZCAC01
   112   112     8
SMALL
NO_CHARGES
****
Generated from CSD

@<TRIPOS>ATOM
      1 N1         1.2233    3.5900    8.5073 N.3       1 RES1    0.0000
      2 N2         2.2575    4.3787    8.8428 N.2       1 RES1    0.0000
      3 C1         3.2658    3.6949    8.3330 C.2       1 RES1    0.0000
      4 N3         2.9960    2.5538    7.6891 N.2       1 RES1    0.0000
      5 C2         1.6900    2.5273    7.8260 C.2       1 RES1    0.0000
      6 N4        -0.0620    3.9655    8.9015 N.3       1 RES1    0.0000
      7 H1        -0.5480    4.1431    8.1765 H         1 RES1    0.0000
      8 H2        -0.4602    3.1623    9.0358 H         1 RES1    0.0000
      9 N5         4.6332    4.1488    8.4986 N.pl3     1 RES1    0.0000
     10 O1         4.8103    5.1692    9.1414 O.2       1 RES1    0.0000
     11 O2         5.5115    3.4783    7.9653 O.2       1 RES1    0.0000
     12 N6         0.8739    1.4337    7.3533 N.pl3     1 RES1    0.0000
     13 O3         1.4016    0.6487    6.5891 O.2       1 RES1    0.0000
     14 O4        -0.2776    1.3640    7.7508 O.2       1 RES1    0.0000
     15 N7         1.4030    0.2312    1.2337 N.3       2 RES2    0.0000
     16 N8         2.2494   -0.7605    0.8939 N.2       2 RES2    0.0000
     17 C3         3.2497   -0.5288    1.7077 C.2       2 RES2    0.0000
     18 N9         3.1431    0.5059    2.5536 N.2       2 RES2    0.0000
     19 C4         1.9649    0.9570    2.2044 C.2       2 RES2    0.0000
     20 N10        0.1292    0.2649    0.6428 N.3       2 RES2    0.0000
     21 H3         0.1433    1.0448    0.1956 H         2 RES2    0.0000
     22 H4        -0.4485    0.3365    1.3365 H         2 RES2    0.0000
     23 N11        4.4288   -1.3714    1.6966 N.pl3     2 RES2    0.0000
     24 O5         4.4871   -2.2609    0.8655 O.2       2 RES2    0.0000
     25 O6         5.2823   -1.1365    2.5240 O.2       2 RES2    0.0000
     26 N12        1.3127    2.0983    2.8333 N.pl3     2 RES2    0.0000
     27 O7         1.6630    2.3356    3.9721 O.2       2 RES2    0.0000
     28 O8         0.4925    2.6965    2.1788 O.2       2 RES2    0.0000
     29 N13        2.6401    5.9286    5.3723 N.3       3 RES3    0.0000
     30 N14        1.7828    4.9406    5.7117 N.2       3 RES3    0.0000
     31 C5         0.7878    5.1791    4.8948 C.2       3 RES3    0.0000
     32 N15        0.9010    6.2112    4.0521 N.2       3 RES3    0.0000
     33 C6         2.0841    6.6545    4.3987 C.2       3 RES3    0.0000
     34 N16        3.8975    5.9483    5.9873 N.3       3 RES3    0.0000
     35 H5         3.9783    6.7700    6.3237 H         3 RES3    0.0000
     36 H6         4.4876    5.9983    5.3041 H         3 RES3    0.0000
     37 N17       -0.4002    4.3556    4.9105 N.pl3     3 RES3    0.0000
     38 O9        -0.4751    3.4645    5.7419 O.2       3 RES3    0.0000
     39 O10       -1.2616    4.6124    4.0876 O.2       3 RES3    0.0000
     40 N18        2.7231    7.8046    3.7851 N.pl3     3 RES3    0.0000
     41 O11        2.3795    8.0538    2.6450 O.2       3 RES3    0.0000
     42 O12        3.5456    8.3944    4.4436 O.2       3 RES3    0.0000
     43 N19        6.7995    5.9551    1.2490 N.3       4 RES4    0.0000
     44 N20        5.9528    4.9664    0.8801 N.2       4 RES4    0.0000
     45 C7         4.9493    5.1972    1.6941 C.2       4 RES4    0.0000
     46 N21        5.0488    6.2213    2.5573 N.2       4 RES4    0.0000
     47 C8         6.2349    6.6649    2.2293 C.2       4 RES4    0.0000
     48 N22        8.0702    5.9809    0.6467 N.3       4 RES4    0.0000
     49 H7         8.1312    6.7998    0.2999 H         4 RES4    0.0000
     50 H8         8.5634    5.9990    1.4003 H         4 RES4    0.0000
     51 N23        3.7639    4.3682    1.6607 N.pl3     4 RES4    0.0000
     52 O13        3.7056    3.4803    0.8222 O.2       4 RES4    0.0000
     53 O14        2.9006    4.5994    2.4874 O.2       4 RES4    0.0000
     54 N24        6.8716    7.7915    2.8750 N.pl3     4 RES4    0.0000
     55 O15        6.5274    8.0186    4.0146 O.2       4 RES4    0.0000
     56 O16        7.6989    8.4040    2.2283 O.2       4 RES4    0.0000
     57 N25        6.9374    9.2970    8.5123 N.3       5 RES5    0.0000
     58 N26        5.8666   10.0513    8.7975 N.2       5 RES5    0.0000
     59 C9         4.9026    9.3652    8.2268 C.2       5 RES5    0.0000
     60 N27        5.2355    8.2361    7.6006 N.2       5 RES5    0.0000
     61 C10        6.5291    8.2297    7.7989 C.2       5 RES5    0.0000
     62 N28        8.2005    9.7333    8.9432 N.3       5 RES5    0.0000
     63 H9         8.5120    9.1529    9.5260 H         5 RES5    0.0000
     64 H10        8.8138    9.6041    8.3173 H         5 RES5    0.0000
     65 N29        3.5182    9.8091    8.2936 N.pl3     5 RES5    0.0000
     66 O17        3.2719   10.7920    8.9545 O.2       5 RES5    0.0000
     67 O18        2.7016    9.1426    7.6890 O.2       5 RES5    0.0000
     68 N30        7.3962    7.1529    7.3599 N.pl3     5 RES5    0.0000
     69 O19        6.8637    6.2800    6.7103 O.2       5 RES5    0.0000
     70 O20        8.5585    7.1750    7.6814 O.2       5 RES5    0.0000
     71 N31        5.5533   12.1835   11.1088 N.3       6 RES6    0.0000
     72 N32        4.4768   12.9383   10.8655 N.2       6 RES6    0.0000
     73 C11        3.5363   12.2357   11.4595 C.2       6 RES6    0.0000
     74 N33        3.8923   11.1098   12.0834 N.2       6 RES6    0.0000
     75 C12        5.1723   11.1097   11.8355 C.2       6 RES6    0.0000
     76 N34        6.8045   12.5871   10.6258 N.3       6 RES6    0.0000
     77 H11        7.4331   12.4573   11.2484 H         6 RES6    0.0000
     78 H12        6.9606   12.1766    9.8520 H         6 RES6    0.0000
     79 N35        2.1419   12.6198   11.3939 N.pl3     6 RES6    0.0000
     80 O21        1.8519   13.6088   10.7522 O.2       6 RES6    0.0000
     81 O22        1.3479   11.9152   11.9760 O.2       6 RES6    0.0000
     82 N36        6.0524   10.0319   12.2513 N.pl3     6 RES6    0.0000
     83 O23        5.5606    9.2007   12.9812 O.2       6 RES6    0.0000
     84 O24        7.1923   10.0234   11.8428 O.2       6 RES6    0.0000
     85 N37        5.5698   11.7007    5.3812 N.3       7 RES7    0.0000
     86 N38        6.4179   10.7091    5.7112 N.2       7 RES7    0.0000
     87 C13        7.4185   10.9502    4.8827 C.2       7 RES7    0.0000
     88 N39        7.3017   11.9864    4.0471 N.2       7 RES7    0.0000
     89 C14        6.1216   12.4259    4.4041 C.2       7 RES7    0.0000
     90 N40        4.3083   11.7208    5.9873 N.3       7 RES7    0.0000
     91 H13        3.6224   11.7734    5.4110 H         7 RES7    0.0000
     92 H14        4.1512   12.4565    6.4932 H         7 RES7    0.0000
     93 N41        8.6048   10.1241    4.8972 N.pl3     7 RES7    0.0000
     94 O25        8.6740    9.2246    5.7173 O.2       7 RES7    0.0000
     95 O26        9.4528   10.3715    4.0643 O.2       7 RES7    0.0000
     96 N42        5.4658   13.5782    3.7955 N.pl3     7 RES7    0.0000
     97 O27        5.8007   13.8349    2.6581 O.2       7 RES7    0.0000
     98 O28        4.6525   14.1714    4.4696 O.2       7 RES7    0.0000
     99 N43        8.3123    6.4135   11.0886 N.3       8 RES8    0.0000
    100 N44        9.3561    7.2028   10.7909 N.2       8 RES8    0.0000
    101 C15       10.3457    6.5475   11.3671 C.2       8 RES8    0.0000
    102 N45       10.0470    5.4035   11.9947 N.2       8 RES8    0.0000
    103 C16        8.7564    5.3627   11.7949 C.2       8 RES8    0.0000
    104 N46        7.0401    6.7986   10.6369 N.3       8 RES8    0.0000
    105 H15        6.5863    7.0225   11.3866 H         8 RES8    0.0000
    106 H16        6.5282    6.0820   10.7047 H         8 RES8    0.0000
    107 N47       11.7142    7.0309   11.2826 N.pl3     8 RES8    0.0000
    108 O29       11.9192    8.0232   10.6192 O.2       8 RES8    0.0000
    109 O30       12.5573    6.3994   11.8894 O.2       8 RES8    0.0000
    110 N48        7.9190    4.2798   12.2635 N.pl3     8 RES8    0.0000
    111 O31        8.4142    3.5038   13.0352 O.2       8 RES8    0.0000
    112 O32        6.7721    4.2266   11.8374 O.2       8 RES8    0.0000
@<TRIPOS>BOND
     1    1    2 1
     2    2    3 2
     3    3    4 1
     4    4    5 2
     5    5    1 1
     6    6    1 1
     7    7    6 1
     8    8    6 1
     9    9    3 1
    10   10    9 2
    11   11    9 2
    12   12    5 1
    13   13   12 2
    14   14   12 2
    15   15   16 1
    16   16   17 2
    17   17   18 1
    18   18   19 2
    19   19   15 1
    20   20   15 1
    21   21   20 1
    22   22   20 1
    23   23   17 1
    24   24   23 2
    25   25   23 2
    26   26   19 1
    27   27   26 2
    28   28   26 2
    29   29   30 1
    30   30   31 2
    31   31   32 1
    32   32   33 2
    33   33   29 1
    34   34   29 1
    35   35   34 1
    36   36   34 1
    37   37   31 1
    38   38   37 2
    39   39   37 2
    40   40   33 1
    41   41   40 2
    42   42   40 2
    43   43   44 1
    44   44   45 2
    45   45   46 1
    46   46   47 2
    47   47   43 1
    48   48   43 1
    49   49   48 1
    50   50   48 1
    51   51   45 1
    52   52   51 2
    53   53   51 2
    54   54   47 1
    55   55   54 2
    56   56   54 2
    57   57   58 1
    58   58   59 2
    59   59   60 1
    60   60   61 2
    61   61   57 1
    62   62   57 1
    63   63   62 1
    64   64   62 1
    65   65   59 1
    66   66   65 2
    67   67   65 2
    68   68   61 1
    69   69   68 2
    70   70   68 2
    71   71   72 1
    72   72   73 2
    73   73   74 1
    74   74   75 2
    75   75   71 1
    76   76   71 1
    77   77   76 1
    78   78   76 1
    79   79   73 1
    80   80   79 2
    81   81   79 2
    82   82   75 1
    83   83   82 2
    84   84   82 2
    85   85   86 1
    86   86   87 2
    87   87   88 1
    88   88   89 2
    89   89   85 1
    90   90   85 1
    91   91   90 1
    92   92   90 1
    93   93   87 1
    94   94   93 2
    95   95   93 2
    96   96   89 1
    97   97   96 2
    98   98   96 2
    99   99  100 1
   100  100  101 2
   101  101  102 1
   102  102  103 2
   103  103   99 1
   104  104   99 1
   105  105  104 1
   106  106  104 1
   107  107  101 1
   108  108  107 2
   109  109  107 2
   110  110  103 1
   111  111  110 2
   112  112  110 2
@<TRIPOS>SUBSTRUCTURE
     1 RES1 1
     2 RES2 15
     3 RES3 29
     4 RES4 43
     5 RES5 57
     6 RES6 71
     7 RES7 85
     8 RES8 99

@<TRIPOS>CRYSIN
   8.3290   11.4808   13.6457  78.0020  77.9160  89.9740   1 1

