# MOL2 file generated by ConQuest
# Please check atom types

@<TRIPOS>MOLECULE
VAZCAC
   112   112     8
SMALL
NO_CHARGES
****
Generated from CSD

@<TRIPOS>ATOM
      1 O1         2.1222    8.3093    5.3327 O.2       1 RES1    0.0000
      2 O2         0.4642    9.0328    4.1350 O.2       1 RES1    0.0000
      3 O3         5.6298   12.8554    2.9218 O.2       1 RES1    0.0000
      4 O4         6.2676   11.2233    4.1919 O.2       1 RES1    0.0000
      5 N1         2.0069   11.2292    3.3745 N.pl3     1 RES1    0.0000
      6 N2         3.0425   12.0266    3.0835 N.2       1 RES1    0.0000
      7 N3         3.7457   10.2276    4.2889 N.2       1 RES1    0.0000
      8 N4         1.6145    9.0889    4.5580 N.pl3     1 RES1    0.0000
      9 N5         5.4105   11.8632    3.5840 N.pl3     1 RES1    0.0000
     10 N6         0.7336   11.6060    2.9115 N.3       1 RES1    0.0000
     11 H1         0.3463   10.9111    2.5998 H         1 RES1    0.0000
     12 H2         0.2352   11.9768    3.5181 H         1 RES1    0.0000
     13 C1         2.4598   10.1703    4.0872 C.2       1 RES1    0.0000
     14 C2         4.0518   11.3597    3.6668 C.2       1 RES1    0.0000
     15 O5         3.5964    0.8425    9.3811 O.2       2 RES2    0.0000
     16 O6         8.4447    4.6143    9.7381 O.2       2 RES2    0.0000
     17 O7         7.2721    4.2716    7.9312 O.2       2 RES2    0.0000
     18 O8         4.3947   -0.3228   11.0315 O.2       2 RES2    0.0000
     19 N7         7.5289    2.1337   10.6616 N.pl3     2 RES2    0.0000
     20 N8         6.6718    1.1436   11.0005 N.2       2 RES2    0.0000
     21 N9         5.7778    2.4344    9.3449 N.2       2 RES2    0.0000
     22 N10        7.6106    4.0116    9.0720 N.pl3     2 RES2    0.0000
     23 N11        4.4642    0.5762   10.2024 N.pl3     2 RES2    0.0000
     24 N12        8.7997    2.1442   11.2695 N.3       2 RES2    0.0000
     25 H3         9.3028    2.0251   10.5284 H         2 RES2    0.0000
     26 H4         8.8849    2.9364   11.5243 H         2 RES2    0.0000
     27 C3         6.9642    2.8676    9.6967 C.2       2 RES2    0.0000
     28 C4         5.6605    1.3996   10.1843 C.2       2 RES2    0.0000
     29 O9         9.1938    3.3862    4.1312 O.2       3 RES3    0.0000
     30 O10        3.3351    5.2970    4.2825 O.2       3 RES3    0.0000
     31 O11        3.8471    7.0073    3.0628 O.2       3 RES3    0.0000
     32 O12        7.5502    2.5603    5.2719 O.2       3 RES3    0.0000
     33 N13        7.5624    5.5630    3.4120 N.pl3     3 RES3    0.0000
     34 N14        6.4805    6.3294    3.1676 N.2       3 RES3    0.0000
     35 N15        5.8967    4.4928    4.3834 N.2       3 RES3    0.0000
     36 N16        4.1403    6.0155    3.7056 N.pl3     3 RES3    0.0000
     37 N17        8.0575    3.3987    4.5476 N.pl3     3 RES3    0.0000
     38 N18        8.8115    5.9682    2.9218 N.3       3 RES3    0.0000
     39 H5         9.3906    5.9864    3.5181 H         3 RES3    0.0000
     40 H6         9.0029    5.4239    2.3411 H         3 RES3    0.0000
     41 C5         7.1783    4.4819    4.1324 C.2       3 RES3    0.0000
     42 C6         5.5381    5.6193    3.7729 C.2       3 RES3    0.0000
     43 O13        5.2023    4.2090    1.2869 O.2       4 RES4    0.0000
     44 O14        4.6264    2.5539    0.0065 O.2       4 RES4    0.0000
     45 O15       10.4941    0.5656    0.0142 O.2       4 RES4    0.0000
     46 O16        8.7710   -0.3462   -0.9364 O.2       4 RES4    0.0000
     47 N19        8.8834    2.6980    0.8317 N.pl3     4 RES4    0.0000
     48 N20        7.8170    3.4667    1.1149 N.2       4 RES4    0.0000
     49 N21        7.1646    1.6408   -0.0737 N.2       4 RES4    0.0000
     50 N22        9.3162    0.5390   -0.2936 N.pl3     4 RES4    0.0000
     51 N23        5.4458    3.2141    0.6221 N.pl3     4 RES4    0.0000
     52 N24       10.1512    3.1343    1.2559 N.3       4 RES4    0.0000
     53 H7        10.4407    2.5850    1.8237 H         4 RES4    0.0000
     54 H8        10.7199    3.1323    0.6079 H         4 RES4    0.0000
     55 C7         6.8396    2.7649    0.5497 C.2       4 RES4    0.0000
     56 C8         8.4614    1.6251    0.1332 C.2       4 RES4    0.0000
     57 O17        6.0312    6.5564    9.3371 O.2       5 RES5    0.0000
     58 O18        5.2555    5.3982   10.9997 O.2       5 RES5    0.0000
     59 O19        1.2197   10.3624    9.7523 O.2       5 RES5    0.0000
     60 O20        2.3647   10.0132    7.9312 O.2       5 RES5    0.0000
     61 N25        2.1388    7.8702   10.6590 N.pl3     5 RES5    0.0000
     62 N26        2.9944    6.8815   10.9888 N.2       5 RES5    0.0000
     63 N27        2.0333    9.7538    9.0797 N.pl3     5 RES5    0.0000
     64 N28        5.1842    6.2986   10.1766 N.pl3     5 RES5    0.0000
     65 N29        0.8712    7.8961   11.2643 N.3       5 RES5    0.0000
     66 H9         0.7724    8.7751   11.6148 H         5 RES5    0.0000
     67 H10        0.2309    7.9211   10.5672 H         5 RES5    0.0000
     68 N30        3.8751    8.1689    9.3332 N.2       5 RES5    0.0000
     69 C9         3.9922    7.1301   10.1649 C.2       5 RES5    0.0000
     70 C10        2.6881    8.6035    9.6915 C.2       5 RES5    0.0000
     71 O21        4.2620    4.6296    7.5393 O.2       6 RES6    0.0000
     72 O22        3.0926    4.2253    9.3371 O.2       6 RES6    0.0000
     73 O23        0.2397   -0.3032    6.1238 O.2       6 RES6    0.0000
     74 O24       -0.5697    0.8187    7.7876 O.2       6 RES6    0.0000
     75 N31        3.3560    2.1659    6.5563 N.pl3     6 RES6    0.0000
     76 N32        2.4978    1.1874    6.1838 N.2       6 RES6    0.0000
     77 N33        1.5971    2.4412    7.8613 N.2       6 RES6    0.0000
     78 N34        3.4348    4.0046    8.1899 N.pl3     6 RES6    0.0000
     79 N35        0.3039    0.5847    6.9637 N.pl3     6 RES6    0.0000
     80 N36        4.6267    2.1927    5.9678 N.3       6 RES6    0.0000
     81 H11        5.1746    2.2243    6.6999 H         6 RES6    0.0000
     82 H12        4.6837    3.0333    5.6393 H         6 RES6    0.0000
     83 C11        1.4905    1.4135    6.9973 C.2       6 RES6    0.0000
     84 C12        2.7911    2.8805    7.5289 C.2       6 RES6    0.0000
     85 O25        9.3630    5.4030    6.1605 O.2       7 RES7    0.0000
     86 O26       10.1734    6.5273    7.8303 O.2       7 RES7    0.0000
     87 O27        6.5603    9.9913    9.3022 O.2       7 RES7    0.0000
     88 O28        5.3690   10.3659    7.5044 O.2       7 RES7    0.0000
     89 N37        6.2705    7.8978    6.5485 N.pl3     7 RES7    0.0000
     90 N38        7.1199    6.9029    6.2058 N.2       7 RES7    0.0000
     91 N39        8.0356    8.1754    7.8588 N.2       7 RES7    0.0000
     92 N40        9.3129    6.2996    6.9986 N.pl3     7 RES7    0.0000
     93 N41        4.9886    7.9240    5.9678 N.3       7 RES7    0.0000
     94 H13        4.3638    7.9324    6.6611 H         7 RES7    0.0000
     95 H14        4.8806    8.8188    5.5358 H         7 RES7    0.0000
     96 N42        6.2016    9.7515    8.1614 N.pl3     7 RES7    0.0000
     97 C13        6.8535    8.6196    7.5173 C.2       7 RES7    0.0000
     98 C14        8.1287    7.1430    7.0103 C.2       7 RES7    0.0000
     99 O29        3.3378    5.4696   -1.0839 O.2       8 RES8    0.0000
    100 O30        1.6329    6.1921    0.0466 O.2       8 RES8    0.0000
    101 O31        6.7428   10.0246    1.4706 O.2       8 RES8    0.0000
    102 O32        7.4246    8.3502    0.2703 O.2       8 RES8    0.0000
    103 N43        4.1643    9.2203    1.1705 N.2       8 RES8    0.0000
    104 N44        4.9201    7.3986    0.0116 N.2       8 RES8    0.0000
    105 N45        6.5528    9.0130    0.8187 N.pl3     8 RES8    0.0000
    106 N46        2.7985    6.2613   -0.3298 N.pl3     8 RES8    0.0000
    107 N47        3.1360    8.4271    0.8265 N.pl3     8 RES8    0.0000
    108 N48        1.8451    8.7782    1.2365 N.3       8 RES8    0.0000
    109 H15        1.4835    7.9999    1.6426 H         8 RES8    0.0000
    110 H16        1.4283    9.0286    0.5950 H         8 RES8    0.0000
    111 C15        5.1856    8.5457    0.6467 C.2       8 RES8    0.0000
    112 C16        3.6128    7.3621    0.1436 C.2       8 RES8    0.0000
@<TRIPOS>BOND
     1    1    8 2
     2    2    8 2
     3    3    9 2
     4    4    9 2
     5    5    6 1
     6    6   14 2
     7    7   13 2
     8    8   13 1
     9    9   14 1
    10   10    5 1
    11   11   10 1
    12   12   10 1
    13   13    5 1
    14   14    7 1
    15   15   23 2
    16   16   22 2
    17   17   22 2
    18   18   23 2
    19   19   20 1
    20   20   28 2
    21   21   27 2
    22   22   27 1
    23   23   28 1
    24   24   19 1
    25   25   24 1
    26   26   24 1
    27   27   19 1
    28   28   21 1
    29   29   37 2
    30   30   36 2
    31   31   36 2
    32   32   37 2
    33   33   34 1
    34   34   42 2
    35   35   41 2
    36   36   42 1
    37   37   41 1
    38   38   33 1
    39   39   38 1
    40   40   38 1
    41   41   33 1
    42   42   35 1
    43   43   51 2
    44   44   51 2
    45   45   50 2
    46   46   50 2
    47   47   48 1
    48   48   55 2
    49   49   55 1
    50   50   56 1
    51   51   55 1
    52   52   47 1
    53   53   52 1
    54   54   52 1
    55   56   47 1
    56   57   64 2
    57   58   64 2
    58   59   63 2
    59   60   63 2
    60   61   62 1
    61   62   69 2
    62   63   70 1
    63   64   69 1
    64   65   61 1
    65   66   65 1
    66   67   65 1
    67   68   69 1
    68   70   61 1
    69   71   78 2
    70   72   78 2
    71   73   79 2
    72   74   79 2
    73   75   76 1
    74   76   83 2
    75   77   83 1
    76   78   84 1
    77   79   83 1
    78   80   75 1
    79   81   80 1
    80   82   80 1
    81   84   75 1
    82   85   92 2
    83   86   92 2
    84   87   96 2
    85   88   96 2
    86   89   90 1
    87   90   98 2
    88   91   97 2
    89   92   98 1
    90   93   89 1
    91   94   93 1
    92   95   93 1
    93   96   97 1
    94   97   89 1
    95   98   91 1
    96   99  106 2
    97  100  106 2
    98  101  105 2
    99  102  105 2
   100  103  107 1
   101  104  111 1
   102  105  111 1
   103  106  112 1
   104  107  108 1
   105  108  109 1
   106  110  108 1
   107  111  103 2
   108  112  104 2
   109   49   56 2
   110   68   70 2
   111   77   84 2
   112  107  112 1
@<TRIPOS>SUBSTRUCTURE
     1 RES1 1
     2 RES2 15
     3 RES3 29
     4 RES4 43
     5 RES5 57
     6 RES6 71
     7 RES7 85
     8 RES8 99

@<TRIPOS>CRYSIN
   8.3125   11.4102   13.5629  78.0740  77.3350  89.8730   1 1

