# MOL2 file generated by ConQuest
# Please check atom types

@<TRIPOS>MOLECULE
VAZMEP
    16    17     1
SMALL
NO_CHARGES
****
Generated from CSD

@<TRIPOS>ATOM
      1 O1         2.1012    5.8637    1.7895 O.2       1 RES1    0.0000
      2 O2         4.1383    5.1954    1.7393 O.2       1 RES1    0.0000
      3 N1         1.5764    0.9269    1.8766 N.ar      1 RES1    0.0000
      4 N2         2.9377    4.9943    1.7921 N.pl3     1 RES1    0.0000
      5 N3        -0.0367    4.0167    1.6161 N.3       1 RES1    0.0000
      6 N4        -0.6235    1.8612    1.6393 N.2       1 RES1    0.0000
      7 C1         3.3541    2.5556    1.9713 C.ar      1 RES1    0.0000
      8 C2         2.8661    1.2572    1.9823 C.ar      1 RES1    0.0000
      9 C3         0.7480    1.9705    1.7618 C.ar      1 RES1    0.0000
     10 C4         1.1290    3.3206    1.7476 C.ar      1 RES1    0.0000
     11 C5         2.4701    3.6059    1.8418 C.ar      1 RES1    0.0000
     12 C6        -1.0261    3.0985    1.5639 C.2       1 RES1    0.0000
     13 H1         3.4898    0.4883    2.0435 H         1 RES1    0.0000
     14 H2        -1.8969    3.3800    1.4827 H         1 RES1    0.0000
     15 H3        -0.2034    4.9407    1.6245 H         1 RES1    0.0000
     16 H4         4.2960    2.7672    2.0435 H         1 RES1    0.0000
@<TRIPOS>BOND
     1    1    4 2
     2    2    4 2
     3    3    8 ar
     4    4   11 1
     5    5   10 1
     6    6    9 1
     7    7    8 ar
     8    8   13 1
     9    9    3 ar
    10   10    9 ar
    11   11    7 ar
    12   12    5 1
    13   14   12 1
    14   15    5 1
    15   16    7 1
    16    6   12 2
    17   10   11 ar
@<TRIPOS>SUBSTRUCTURE
     1 RES1 1

@<TRIPOS>CRYSIN
  11.6840    9.5750    7.2052  90.0000 116.5300  90.0000  14 1

