# MOL2 file generated by ConQuest
# Please check atom types

@<TRIPOS>MOLECULE
VAZMUE
   100   102     2
SMALL
NO_CHARGES
****
Generated from CSD

@<TRIPOS>ATOM
      1 C1         3.5820    9.4538    2.4842 C.2       1 RES1    0.0000
      2 C2         4.0657    8.0961    3.0354 C.3       1 RES1    0.0000
      3 C3         5.1126    8.2711    4.1034 C.2       1 RES1    0.0000
      4 C4         5.3469    9.3795    4.7861 C.2       1 RES1    0.0000
      5 C5         4.5949   10.6365    4.4678 C.3       1 RES1    0.0000
      6 C6         4.1595   10.7675    2.9962 C.3       1 RES1    0.0000
      7 C7         4.4998    7.0885    1.8845 C.3       1 RES1    0.0000
      8 C8         3.2856    6.5607    1.1071 C.3       1 RES1    0.0000
      9 C9         5.4381    7.8265    0.9203 C.3       1 RES1    0.0000
     10 C10        5.2507    5.8781    2.4426 C.3       1 RES1    0.0000
     11 C11        6.2901    9.4412    5.9325 C.3       1 RES1    0.0000
     12 C12        3.1286   11.8733    2.8278 C.3       1 RES1    0.0000
     13 C13        5.4274   11.0723    2.1405 C.3       1 RES1    0.0000
     14 C14        5.9697   12.4753    2.2697 C.ar      1 RES1    0.0000
     15 C15        6.8484   12.8356    3.2915 C.ar      1 RES1    0.0000
     16 C16        7.2944   14.1266    3.4068 C.ar      1 RES1    0.0000
     17 C17        6.9060   15.0989    2.5118 C.ar      1 RES1    0.0000
     18 C18        6.0646   14.7424    1.4670 C.ar      1 RES1    0.0000
     19 C19        5.6023   13.4540    1.3540 C.ar      1 RES1    0.0000
     20 N1         2.8492    7.4235    3.7435 N.pl3     1 RES1    0.0000
     21 N2         3.3753   10.6604    5.3766 N.pl3     1 RES1    0.0000
     22 O1         2.7879    9.4815    1.5592 O.2       1 RES1    0.0000
     23 O2         3.1128    6.6413    4.6546 O.2       1 RES1    0.0000
     24 O3         1.7245    7.6401    3.3422 O.2       1 RES1    0.0000
     25 O4         2.5102    9.8455    5.1852 O.2       1 RES1    0.0000
     26 O5         3.3617   11.4879    6.2738 O.2       1 RES1    0.0000
     27 H1         5.6613    7.5091    4.3064 H         1 RES1    0.0000
     28 H2         5.1842   11.3808    4.6131 H         1 RES1    0.0000
     29 H3         2.7654    7.3215    0.7750 H         1 RES1    0.0000
     30 H4         2.7068    5.9788    1.6423 H         1 RES1    0.0000
     31 H5         3.6471    6.0557    0.3506 H         1 RES1    0.0000
     32 H6         5.0185    8.5583    0.4221 H         1 RES1    0.0000
     33 H7         5.7409    7.1363    0.2929 H         1 RES1    0.0000
     34 H8         6.2054    8.1704    1.4231 H         1 RES1    0.0000
     35 H9         6.1377    6.0960    2.7979 H         1 RES1    0.0000
     36 H10        5.3416    5.2496    1.6976 H         1 RES1    0.0000
     37 H11        4.7085    5.4687    3.1508 H         1 RES1    0.0000
     38 H12        6.9583   10.1528    5.8471 H         1 RES1    0.0000
     39 H13        6.7428    8.5747    5.9948 H         1 RES1    0.0000
     40 H14        5.7546    9.5911    6.7398 H         1 RES1    0.0000
     41 H15        3.4237   12.7247    3.2153 H         1 RES1    0.0000
     42 H16        2.2909   11.5937    3.2546 H         1 RES1    0.0000
     43 H17        2.9813   11.9854    1.8660 H         1 RES1    0.0000
     44 H18        5.2048   10.9249    1.2179 H         1 RES1    0.0000
     45 H19        6.1179   10.4614    2.4057 H         1 RES1    0.0000
     46 H20        7.1437   12.1731    3.9188 H         1 RES1    0.0000
     47 H21        7.8899   14.3570    4.1241 H         1 RES1    0.0000
     48 H22        7.2104   16.0032    2.6110 H         1 RES1    0.0000
     49 H23        5.8027   15.4024    0.8211 H         1 RES1    0.0000
     50 H24        5.0169   13.2248    0.6274 H         1 RES1    0.0000
     51 C20       -3.1241    7.6275    2.6664 C.2       2 RES2    0.0000
     52 C21       -2.5073    8.9790    3.1000 C.3       2 RES2    0.0000
     53 C22       -1.4456    8.8203    4.1610 C.2       2 RES2    0.0000
     54 C23       -1.2288    7.7346    4.8715 C.2       2 RES2    0.0000
     55 C24       -2.0212    6.4763    4.6362 C.3       2 RES2    0.0000
     56 C25       -2.5354    6.3076    3.2015 C.3       2 RES2    0.0000
     57 C26       -2.0294    9.8669    1.8891 C.3       2 RES2    0.0000
     58 C27       -3.1181   10.1440    0.8627 C.3       2 RES2    0.0000
     59 C28       -0.9158    9.1440    1.1833 C.3       2 RES2    0.0000
     60 C29       -1.4994   11.1932    2.3550 C.3       2 RES2    0.0000
     61 C30       -0.2181    7.6767    5.9948 C.3       2 RES2    0.0000
     62 C31       -3.6056    5.2257    3.0954 C.3       2 RES2    0.0000
     63 C32       -1.2969    5.9524    2.2904 C.3       2 RES2    0.0000
     64 C33       -0.7700    4.5468    2.4496 C.ar      2 RES2    0.0000
     65 C34        0.2594    4.2559    3.3307 C.ar      2 RES2    0.0000
     66 C35        0.7325    2.9485    3.4529 C.ar      2 RES2    0.0000
     67 C36        0.1774    1.9510    2.6895 C.ar      2 RES2    0.0000
     68 C37       -0.8410    2.2218    1.8060 C.ar      2 RES2    0.0000
     69 C38       -1.2976    3.5165    1.6861 C.ar      2 RES2    0.0000
     70 N3        -3.6454    9.7762    3.7989 N.pl3     2 RES2    0.0000
     71 N4        -3.2227    6.5154    5.5773 N.pl3     2 RES2    0.0000
     72 O6        -4.0311    7.5948    1.8775 O.2       2 RES2    0.0000
     73 O7        -3.3565   10.4639    4.7607 O.2       2 RES2    0.0000
     74 O8        -4.7697    9.7221    3.3537 O.2       2 RES2    0.0000
     75 O9        -4.0649    7.3656    5.3628 O.2       2 RES2    0.0000
     76 O10       -3.2481    5.7169    6.4953 O.2       2 RES2    0.0000
     77 H25       -0.8797    9.5772    4.3317 H         2 RES2    0.0000
     78 H26       -1.4333    5.7345    4.7976 H         2 RES2    0.0000
     79 H27       -3.8550   10.5987    1.3217 H         2 RES2    0.0000
     80 H28       -3.4374    9.2926    0.4982 H         2 RES2    0.0000
     81 H29       -2.7893   10.7095    0.1315 H         2 RES2    0.0000
     82 H30       -0.2013    8.9626    1.8291 H         2 RES2    0.0000
     83 H31       -0.5701    9.7120    0.4636 H         2 RES2    0.0000
     84 H32       -1.2374    8.2976    0.8073 H         2 RES2    0.0000
     85 H33       -0.7936   11.2045    3.0354 H         2 RES2    0.0000
     86 H34       -2.3242   11.5622    2.7356 H         2 RES2    0.0000
     87 H35       -1.2216   11.7348    1.5869 H         2 RES2    0.0000
     88 H36        0.3861    6.9348    5.7826 H         2 RES2    0.0000
     89 H37       -0.6730    7.4940    6.8413 H         2 RES2    0.0000
     90 H38        0.2981    8.5054    6.0709 H         2 RES2    0.0000
     91 H39       -3.2460    4.4020    3.4875 H         2 RES2    0.0000
     92 H40       -3.7755    5.0859    2.1405 H         2 RES2    0.0000
     93 H41       -4.4425    5.4625    3.5452 H         2 RES2    0.0000
     94 H42       -0.5866    6.5620    2.5026 H         2 RES2    0.0000
     95 H43       -1.5580    6.0720    1.3747 H         2 RES2    0.0000
     96 H44        0.6491    4.9574    3.8589 H         2 RES2    0.0000
     97 H45        1.4420    2.7470    4.0665 H         2 RES2    0.0000
     98 H46        0.5055    1.0517    2.7725 H         2 RES2    0.0000
     99 H47       -1.2287    1.5190    1.2801 H         2 RES2    0.0000
    100 H48       -1.9984    3.7105    1.0587 H         2 RES2    0.0000
@<TRIPOS>BOND
     1    1    2 1
     2    2    3 1
     3    3    4 2
     4    4    5 1
     5    5    6 1
     6    6    1 1
     7    7    2 1
     8    8    7 1
     9    9    7 1
    10   10    7 1
    11   11    4 1
    12   12    6 1
    13   13    6 1
    14   14   13 1
    15   15   14 ar
    16   16   15 ar
    17   17   16 ar
    18   18   17 ar
    19   19   14 ar
    20   20    2 1
    21   21    5 1
    22   22    1 2
    23   23   20 2
    24   24   20 2
    25   25   21 2
    26   26   21 2
    27   27    3 1
    28   28    5 1
    29   29    8 1
    30   30    8 1
    31   31    8 1
    32   32    9 1
    33   33    9 1
    34   34    9 1
    35   35   10 1
    36   36   10 1
    37   37   10 1
    38   38   11 1
    39   39   11 1
    40   40   11 1
    41   41   12 1
    42   42   12 1
    43   43   12 1
    44   44   13 1
    45   45   13 1
    46   46   15 1
    47   47   16 1
    48   48   17 1
    49   49   18 1
    50   50   19 1
    51   51   52 1
    52   52   53 1
    53   53   54 2
    54   54   55 1
    55   55   56 1
    56   56   51 1
    57   57   52 1
    58   58   57 1
    59   59   57 1
    60   60   57 1
    61   61   54 1
    62   62   56 1
    63   63   56 1
    64   64   63 1
    65   65   64 ar
    66   66   65 ar
    67   67   66 ar
    68   68   67 ar
    69   69   64 ar
    70   70   52 1
    71   71   55 1
    72   72   51 2
    73   73   70 2
    74   74   70 2
    75   75   71 2
    76   76   71 2
    77   77   53 1
    78   78   55 1
    79   79   58 1
    80   80   58 1
    81   81   58 1
    82   82   59 1
    83   83   59 1
    84   84   59 1
    85   85   60 1
    86   86   60 1
    87   87   60 1
    88   88   61 1
    89   89   61 1
    90   90   61 1
    91   91   62 1
    92   92   62 1
    93   93   62 1
    94   94   63 1
    95   95   63 1
    96   96   65 1
    97   97   66 1
    98   98   67 1
    99   99   68 1
   100  100   69 1
   101   18   19 ar
   102   68   69 ar
@<TRIPOS>SUBSTRUCTURE
     1 RES1 1
     2 RES2 51

@<TRIPOS>CRYSIN
  13.1190   12.5950   23.7790  90.0000 104.0700  90.0000  14 1

