# MOL2 file generated by ConQuest
# Please check atom types

@<TRIPOS>MOLECULE
VAZMOY
   100   102     2
SMALL
NO_CHARGES
****
Generated from CSD

@<TRIPOS>ATOM
      1 C1         4.5025   10.4266   -4.0578 C.2       1 RES1    0.0000
      2 C2         5.4092   11.5811   -3.5935 C.3       1 RES1    0.0000
      3 C3         4.6173   12.5643   -2.7523 C.2       1 RES1    0.0000
      4 C4         3.3379   12.4732   -2.4529 C.2       1 RES1    0.0000
      5 C5         2.4629   11.3933   -3.0281 C.3       1 RES1    0.0000
      6 C6         3.0172   10.7193   -4.2892 C.3       1 RES1    0.0000
      7 C7         6.7474   11.1668   -2.8853 C.3       1 RES1    0.0000
      8 C8         6.3982   10.3105   -1.6547 C.3       1 RES1    0.0000
      9 C9         7.5360   12.3931   -2.3809 C.3       1 RES1    0.0000
     10 C10        7.6888   10.3879   -3.8166 C.3       1 RES1    0.0000
     11 C11        2.6562   13.4537   -1.5327 C.3       1 RES1    0.0000
     12 C12        2.2801    9.4350   -4.6052 C.3       1 RES1    0.0000
     13 C13        2.9016   11.7330   -5.4630 C.3       1 RES1    0.0000
     14 C14        1.4946   12.0948   -5.8483 C.ar      1 RES1    0.0000
     15 C15        0.8619   13.2162   -5.3036 C.ar      1 RES1    0.0000
     16 C16       -0.4015   13.5918   -5.7152 C.ar      1 RES1    0.0000
     17 C17       -1.0373   12.8847   -6.6950 C.ar      1 RES1    0.0000
     18 C18       -0.4356   11.7799   -7.2604 C.ar      1 RES1    0.0000
     19 C19        0.8239   11.4098   -6.8391 C.ar      1 RES1    0.0000
     20 N1         5.8000   12.3075   -4.8962 N.pl3     1 RES1    0.0000
     21 N2         2.2480   10.3492   -1.9485 N.pl3     1 RES1    0.0000
     22 O1         4.9428    9.3162   -4.2421 O.2       1 RES1    0.0000
     23 O2         5.9027   11.6253   -5.9065 O.2       1 RES1    0.0000
     24 O3         6.0187   13.5117   -4.8477 O.2       1 RES1    0.0000
     25 O4         3.2081    9.7637   -1.5369 O.2       1 RES1    0.0000
     26 O5         1.0903   10.1421   -1.5743 O.2       1 RES1    0.0000
     27 H1         5.0929   13.3211   -2.4058 H         1 RES1    0.0000
     28 H2         1.6450   11.8131   -3.3052 H         1 RES1    0.0000
     29 H3         5.9722    9.4488   -1.8376 H         1 RES1    0.0000
     30 H4         5.8614   10.8077   -1.0034 H         1 RES1    0.0000
     31 H5         7.2967   10.1614   -1.2916 H         1 RES1    0.0000
     32 H6         7.0274   12.8212   -1.6602 H         1 RES1    0.0000
     33 H7         7.6456   13.0284   -3.1209 H         1 RES1    0.0000
     34 H8         8.4165   12.1279   -2.0455 H         1 RES1    0.0000
     35 H9         7.3026    9.5814   -4.2199 H         1 RES1    0.0000
     36 H10        8.4577   10.1393   -3.2623 H         1 RES1    0.0000
     37 H11        7.9816   10.9983   -4.5262 H         1 RES1    0.0000
     38 H12        1.9123   13.8818   -2.0067 H         1 RES1    0.0000
     39 H13        3.2909   14.1387   -1.2362 H         1 RES1    0.0000
     40 H14        2.3110   12.9704   -0.7553 H         1 RES1    0.0000
     41 H15        1.3298    9.6698   -4.6481 H         1 RES1    0.0000
     42 H16        2.4223    8.7749   -3.8956 H         1 RES1    0.0000
     43 H17        2.5615    9.0566   -5.4644 H         1 RES1    0.0000
     44 H18        3.3327   11.3518   -6.2308 H         1 RES1    0.0000
     45 H19        3.3570   12.5395   -5.2066 H         1 RES1    0.0000
     46 H20        1.3132   13.7354   -4.6329 H         1 RES1    0.0000
     47 H21       -0.8335   14.3486   -5.3119 H         1 RES1    0.0000
     48 H22       -1.9079   13.1582   -6.9916 H         1 RES1    0.0000
     49 H23       -0.8884   11.2745   -7.9381 H         1 RES1    0.0000
     50 H24        1.2460   10.6503   -7.2466 H         1 RES1    0.0000
     51 C20        1.1859   10.1780    3.6766 C.2       2 RES2    0.0000
     52 C21        0.2314    9.1726    3.0004 C.3       2 RES2    0.0000
     53 C22        0.9666    8.3136    2.0025 C.2       2 RES2    0.0000
     54 C23        2.2662    8.3523    1.7586 C.2       2 RES2    0.0000
     55 C24        3.1833    9.2720    2.4904 C.3       2 RES2    0.0000
     56 C25        2.6494    9.7581    3.8457 C.3       2 RES2    0.0000
     57 C26       -1.0815    9.8051    2.4058 C.3       2 RES2    0.0000
     58 C27       -0.6857   10.8823    1.3928 C.3       2 RES2    0.0000
     59 C28       -1.9073    8.7583    1.6713 C.3       2 RES2    0.0000
     60 C29       -1.9858   10.4321    3.4896 C.3       2 RES2    0.0000
     61 C30        2.9153    7.4381    0.7525 C.3       2 RES2    0.0000
     62 C31        3.4515   10.9375    4.3751 C.3       2 RES2    0.0000
     63 C32        2.7060    8.5512    4.8546 C.3       2 RES2    0.0000
     64 C33        4.0924    8.1534    5.2801 C.ar      2 RES2    0.0000
     65 C34        4.8429    7.2558    4.5248 C.ar      2 RES2    0.0000
     66 C35        6.1296    6.9299    4.9073 C.ar      2 RES2    0.0000
     67 C36        6.6659    7.4602    6.0492 C.ar      2 RES2    0.0000
     68 C37        5.9149    8.3219    6.8322 C.ar      2 RES2    0.0000
     69 C38        4.6380    8.6672    6.4442 C.ar      2 RES2    0.0000
     70 N3        -0.2164    8.2335    4.1575 N.pl3     2 RES2    0.0000
     71 N4         3.4688   10.4873    1.6159 N.pl3     2 RES2    0.0000
     72 O6         0.8068   11.2552    4.0439 O.2       2 RES2    0.0000
     73 O7        -0.2829    8.7279    5.2759 O.2       2 RES2    0.0000
     74 O8        -0.4721    7.0762    3.9025 O.2       2 RES2    0.0000
     75 O9         2.5073   11.1695    1.2805 O.2       2 RES2    0.0000
     76 O10        4.6268   10.7387    1.3290 O.2       2 RES2    0.0000
     77 H25        0.4455    7.6811    1.5023 H         2 RES2    0.0000
     78 H26        3.9755    8.7638    2.6761 H         2 RES2    0.0000
     79 H27       -0.2237   11.6170    1.8473 H         2 RES2    0.0000
     80 H28       -1.4922   11.2248    0.9548 H         2 RES2    0.0000
     81 H29       -0.0911   10.4873    0.7206 H         2 RES2    0.0000
     82 H30       -1.4160    8.5152    0.8606 H         2 RES2    0.0000
     83 H31       -2.7655    9.1616    1.4246 H         2 RES2    0.0000
     84 H32       -2.0675    7.9546    2.2090 H         2 RES2    0.0000
     85 H33       -1.5369   11.0894    4.0591 H         2 RES2    0.0000
     86 H34       -2.3036    9.6836    4.0397 H         2 RES2    0.0000
     87 H35       -2.7473   10.8519    3.0405 H         2 RES2    0.0000
     88 H36        3.4835    7.9932    0.1788 H         2 RES2    0.0000
     89 H37        2.2702    6.9520    0.1982 H         2 RES2    0.0000
     90 H38        3.4725    6.8000    1.2431 H         2 RES2    0.0000
     91 H39        4.3831   10.6337    4.4139 H         2 RES2    0.0000
     92 H40        3.1386   11.1474    5.2801 H         2 RES2    0.0000
     93 H41        3.3918   11.7385    3.8152 H         2 RES2    0.0000
     94 H42        2.2922    7.7916    4.4375 H         2 RES2    0.0000
     95 H43        2.2108    8.7942    5.6404 H         2 RES2    0.0000
     96 H44        4.4650    6.8636    3.7349 H         2 RES2    0.0000
     97 H45        6.6494    6.3277    4.3710 H         2 RES2    0.0000
     98 H46        7.5629    7.2392    6.3070 H         2 RES2    0.0000
     99 H47        6.2822    8.6754    7.6457 H         2 RES2    0.0000
    100 H48        4.1242    9.2693    6.9847 H         2 RES2    0.0000
@<TRIPOS>BOND
     1    1    2 1
     2    2    3 1
     3    3    4 2
     4    4    5 1
     5    5    6 1
     6    6    1 1
     7    7    2 1
     8    8    7 1
     9    9    7 1
    10   10    7 1
    11   11    4 1
    12   12    6 1
    13   13    6 1
    14   14   13 1
    15   15   14 ar
    16   16   15 ar
    17   17   16 ar
    18   18   17 ar
    19   19   14 ar
    20   20    2 1
    21   21    5 1
    22   22    1 2
    23   23   20 2
    24   24   20 2
    25   25   21 2
    26   26   21 2
    27   27    3 1
    28   28    5 1
    29   29    8 1
    30   30    8 1
    31   31    8 1
    32   32    9 1
    33   33    9 1
    34   34    9 1
    35   35   10 1
    36   36   10 1
    37   37   10 1
    38   38   11 1
    39   39   11 1
    40   40   11 1
    41   41   12 1
    42   42   12 1
    43   43   12 1
    44   44   13 1
    45   45   13 1
    46   46   15 1
    47   47   16 1
    48   48   17 1
    49   49   18 1
    50   50   19 1
    51   51   52 1
    52   52   53 1
    53   53   54 2
    54   54   55 1
    55   55   56 1
    56   56   51 1
    57   57   52 1
    58   58   57 1
    59   59   57 1
    60   60   57 1
    61   61   54 1
    62   62   56 1
    63   63   56 1
    64   64   63 1
    65   65   64 ar
    66   66   65 ar
    67   67   66 ar
    68   68   67 ar
    69   69   64 ar
    70   70   52 1
    71   71   55 1
    72   72   51 2
    73   73   70 2
    74   74   70 2
    75   75   71 2
    76   76   71 2
    77   77   53 1
    78   78   55 1
    79   79   58 1
    80   80   58 1
    81   81   58 1
    82   82   59 1
    83   83   59 1
    84   84   59 1
    85   85   60 1
    86   86   60 1
    87   87   60 1
    88   88   61 1
    89   89   61 1
    90   90   61 1
    91   91   62 1
    92   92   62 1
    93   93   62 1
    94   94   63 1
    95   95   63 1
    96   96   65 1
    97   97   66 1
    98   98   67 1
    99   99   68 1
   100  100   69 1
   101   18   19 ar
   102   68   69 ar
@<TRIPOS>SUBSTRUCTURE
     1 RES1 1
     2 RES2 51

@<TRIPOS>CRYSIN
   9.7530   27.6200   14.1280  90.0000 101.2100  90.0000  14 1

