# MOL2 file generated by ConQuest
# Please check atom types

@<TRIPOS>MOLECULE
VAZNEP
    49    50     1
SMALL
NO_CHARGES
****
Generated from CSD

@<TRIPOS>ATOM
      1 C1         3.6509   17.3707   -1.1573 C.2       1 RES1    0.0000
      2 C2         4.3297   16.4919   -2.1933 C.3       1 RES1    0.0000
      3 C3         3.7791   15.1137   -2.2699 C.2       1 RES1    0.0000
      4 C4         2.8942   14.5609   -1.4394 C.2       1 RES1    0.0000
      5 C5         2.3799   15.3914   -0.2988 C.3       1 RES1    0.0000
      6 C6         2.2852   16.8893   -0.5862 C.3       1 RES1    0.0000
      7 C7         5.8401   16.4715   -2.0022 C.3       1 RES1    0.0000
      8 C8         2.3016   13.1726   -1.6465 C.3       1 RES1    0.0000
      9 C9         2.9717   12.4262   -2.7970 C.3       1 RES1    0.0000
     10 C10        0.7889   13.3458   -2.0257 C.3       1 RES1    0.0000
     11 C11        2.4023   12.3294   -0.4042 C.3       1 RES1    0.0000
     12 C12        1.2677   17.0650   -1.7534 C.3       1 RES1    0.0000
     13 C13        1.8806   17.7528    0.6052 C.3       1 RES1    0.0000
     14 C14        0.4706   17.5159    1.1505 C.ar      1 RES1    0.0000
     15 C15        0.2451   16.6676    2.1925 C.ar      1 RES1    0.0000
     16 C16       -1.0497   16.4766    2.7014 C.ar      1 RES1    0.0000
     17 C17       -2.1081   17.1389    2.1311 C.ar      1 RES1    0.0000
     18 C18       -1.8925   17.9897    1.1012 C.ar      1 RES1    0.0000
     19 C19       -0.6057   18.2012    0.5779 C.ar      1 RES1    0.0000
     20 N1         3.2828   15.1901    0.8972 N.pl3     1 RES1    0.0000
     21 O1         4.1095   18.4508   -0.8570 O.2       1 RES1    0.0000
     22 O2         4.0017   17.0931   -3.4788 O.3       1 RES1    0.0000
     23 O3         2.8810   14.5660    1.8679 O.2       1 RES1    0.0000
     24 O4         4.4007   15.6971    0.8373 O.2       1 RES1    0.0000
     25 H1         4.0933   14.5635   -2.9919 H         1 RES1    0.0000
     26 H2         1.4823   15.0933   -0.1388 H         1 RES1    0.0000
     27 H3         6.0871   16.0512   -1.1520 H         1 RES1    0.0000
     28 H4         6.1754   17.3911   -2.0211 H         1 RES1    0.0000
     29 H5         6.2356   15.9646   -2.7431 H         1 RES1    0.0000
     30 H6         3.9135   12.3472   -2.5391 H         1 RES1    0.0000
     31 H7         2.9039   12.9382   -3.6297 H         1 RES1    0.0000
     32 H8         2.5915   11.5346   -2.9320 H         1 RES1    0.0000
     33 H9         0.4535   12.4390   -2.1774 H         1 RES1    0.0000
     34 H10        0.6921   13.8706   -2.8470 H         1 RES1    0.0000
     35 H11        0.2751   13.7687   -1.3060 H         1 RES1    0.0000
     36 H12        3.3633   12.2071   -0.2571 H         1 RES1    0.0000
     37 H13        1.9874   11.4633   -0.5961 H         1 RES1    0.0000
     38 H14        1.9958   12.7166    0.3989 H         1 RES1    0.0000
     39 H15        0.4339   16.6574   -1.4394 H         1 RES1    0.0000
     40 H16        1.5112   16.6829   -2.6218 H         1 RES1    0.0000
     41 H17        1.1430   18.0330   -1.8459 H         1 RES1    0.0000
     42 H18        2.5038   17.5872    1.3158 H         1 RES1    0.0000
     43 H19        1.9407   18.6724    0.3352 H         1 RES1    0.0000
     44 H20        0.9826   16.1964    2.5854 H         1 RES1    0.0000
     45 H21       -1.1931   15.8856    3.4439 H         1 RES1    0.0000
     46 H22       -2.9984   16.9963    2.4610 H         1 RES1    0.0000
     47 H23       -2.6372   18.4585    0.7190 H         1 RES1    0.0000
     48 H24       -0.4693   18.8024   -0.1562 H         1 RES1    0.0000
     49 H25        4.3478   18.0101   -3.5084 H         1 RES1    0.0000
@<TRIPOS>BOND
     1    1    2 1
     2    2    3 1
     3    3    4 2
     4    4    5 1
     5    5    6 1
     6    6    1 1
     7    7    2 1
     8    8    4 1
     9    9    8 1
    10   10    8 1
    11   11    8 1
    12   12    6 1
    13   13    6 1
    14   14   13 1
    15   15   14 ar
    16   16   15 ar
    17   17   16 ar
    18   18   17 ar
    19   19   14 ar
    20   20    5 1
    21   21    1 2
    22   22    2 1
    23   23   20 2
    24   24   20 2
    25   25    3 1
    26   26    5 1
    27   27    7 1
    28   28    7 1
    29   29    7 1
    30   30    9 1
    31   31    9 1
    32   32    9 1
    33   33   10 1
    34   34   10 1
    35   35   10 1
    36   36   11 1
    37   37   11 1
    38   38   11 1
    39   39   12 1
    40   40   12 1
    41   41   12 1
    42   42   13 1
    43   43   13 1
    44   44   15 1
    45   45   16 1
    46   46   17 1
    47   47   18 1
    48   48   19 1
    49   49   22 1
    50   18   19 ar
@<TRIPOS>SUBSTRUCTURE
     1 RES1 1

@<TRIPOS>CRYSIN
   9.0750   25.4740    7.6050  90.0000  94.2600  90.0000  14 1

