# MOL2 file generated by ConQuest
# Please check atom types

@<TRIPOS>MOLECULE
VAZRIX01
    62    63     1
SMALL
NO_CHARGES
****
Generated from CSD

@<TRIPOS>ATOM
      1 O1         1.2081   15.2541    7.3255 O.3       1 RES1    0.0000
      2 O2        -0.7763   22.4186    9.6499 O.3       1 RES1    0.0000
      3 O3        -0.5721   14.8658    6.0250 O.2       1 RES1    0.0000
      4 O4        -0.9863   22.9656    7.4785 O.2       1 RES1    0.0000
      5 O5         2.6720   13.3904    2.0051 O.2       1 RES1    0.0000
      6 O6         4.2721   24.0089    9.8261 O.2       1 RES1    0.0000
      7 N1         2.5253   13.8462    3.1828 N.3       1 RES1    0.0000
      8 N2         3.1535   23.9920    9.2221 N.3       1 RES1    0.0000
      9 C1         0.3339   15.3993    8.4668 C.3       1 RES1    0.0000
     10 C2        -1.9481   21.5779    9.5450 C.3       1 RES1    0.0000
     11 C3        -0.1801   16.7566    8.6091 C.1       1 RES1    0.0000
     12 C4        -1.5165   20.2139    9.2648 C.1       1 RES1    0.0000
     13 C5        -0.6026   17.8505    8.8137 C.1       1 RES1    0.0000
     14 C6        -1.0911   19.1166    9.0557 C.1       1 RES1    0.0000
     15 C7         0.6114   14.9165    6.1664 C.2       1 RES1    0.0000
     16 C8        -0.3533   22.9825    8.4980 C.2       1 RES1    0.0000
     17 C9         1.6145   14.5789    5.1345 C.2       1 RES1    0.0000
     18 C10        0.9891   23.5767    8.6367 C.2       1 RES1    0.0000
     19 C11        1.1955   14.1636    3.7442 C.3       1 RES1    0.0000
     20 C12        1.9737   23.2728    9.7522 C.3       1 RES1    0.0000
     21 C13        3.6627   14.0927    4.0840 C.3       1 RES1    0.0000
     22 C14        2.9130   24.7517    7.9696 C.3       1 RES1    0.0000
     23 C15        2.9186   14.5485    5.2982 C.2       1 RES1    0.0000
     24 C16        1.5020   24.3701    7.7151 C.2       1 RES1    0.0000
     25 C17        0.5848   15.3183    2.9551 C.3       1 RES1    0.0000
     26 C18        2.3062   21.7940    9.8777 C.3       1 RES1    0.0000
     27 C19        0.3249   12.9279    3.7032 C.3       1 RES1    0.0000
     28 C20        1.6029   23.8671   11.1079 C.3       1 RES1    0.0000
     29 C21        4.4315   12.7962    4.3215 C.3       1 RES1    0.0000
     30 C22        3.1141   26.2406    8.2302 C.3       1 RES1    0.0000
     31 C23        4.5791   15.1562    3.5040 C.3       1 RES1    0.0000
     32 C24        3.8411   24.2452    6.8781 C.3       1 RES1    0.0000
     33 H1         0.7992   15.1495    9.2567 H         1 RES1    0.0000
     34 H2        -2.5040   21.8852    8.8369 H         1 RES1    0.0000
     35 H3        -0.3962   14.7916    8.3841 H         1 RES1    0.0000
     36 H4        -2.4277   21.5914   10.3696 H         1 RES1    0.0000
     37 H5         3.3816   14.7882    6.0908 H         1 RES1    0.0000
     38 H6         1.0443   24.6706    6.9306 H         1 RES1    0.0000
     39 H7        -0.2808   15.5242    3.3118 H         1 RES1    0.0000
     40 H8         0.4910   15.0718    2.0442 H         1 RES1    0.0000
     41 H9         3.0412   21.6826   10.4710 H         1 RES1    0.0000
     42 H10        1.5529   21.3247   10.2193 H         1 RES1    0.0000
     43 H11        2.5342   21.4429    9.0237 H         1 RES1    0.0000
     44 H12        1.1353   16.0881    3.0263 H         1 RES1    0.0000
     45 H13       -0.5285   13.1203    4.0662 H         1 RES1    0.0000
     46 H14        0.7365   12.2357    4.2361 H         1 RES1    0.0000
     47 H15        1.3984   24.7854   11.0038 H         1 RES1    0.0000
     48 H16        0.8430   23.4079   11.4495 H         1 RES1    0.0000
     49 H17        2.3314   23.7624   11.7039 H         1 RES1    0.0000
     50 H18        0.2397   12.6172    2.8155 H         1 RES1    0.0000
     51 H19        5.1640   12.9751    4.9024 H         1 RES1    0.0000
     52 H20        4.7551   12.4687    3.4951 H         1 RES1    0.0000
     53 H21        4.0032   26.3892    8.5291 H         1 RES1    0.0000
     54 H22        2.9591   26.7268    7.4323 H         1 RES1    0.0000
     55 H23        2.5032   26.5276    8.9018 H         1 RES1    0.0000
     56 H24        3.8565   12.1614    4.7236 H         1 RES1    0.0000
     57 H25        5.3052   15.2913    4.1062 H         1 RES1    0.0000
     58 H26        4.0971   15.9631    3.4017 H         1 RES1    0.0000
     59 H27        3.6720   23.3235    6.7322 H         1 RES1    0.0000
     60 H28        3.6907   24.7348    6.0873 H         1 RES1    0.0000
     61 H29        4.7423   24.3634    7.1645 H         1 RES1    0.0000
     62 H30        4.9096   14.8625    2.6696 H         1 RES1    0.0000
@<TRIPOS>BOND
     1    1    9 1
     2    2   10 1
     3    3   15 2
     4    4   16 2
     5    5    7 1
     6    6    8 1
     7    7   19 1
     8    8   20 1
     9    9   11 1
    10   10   12 1
    11   11   13 3
    12   12   14 3
    13   13   14 1
    14   15    1 1
    15   16    2 1
    16   17   15 1
    17   18   16 1
    18   19   17 1
    19   20   18 1
    20   21    7 1
    21   22    8 1
    22   23   17 2
    23   24   18 2
    24   25   19 1
    25   26   20 1
    26   27   19 1
    27   28   20 1
    28   29   21 1
    29   30   22 1
    30   31   21 1
    31   32   22 1
    32   33    9 1
    33   34   10 1
    34   35    9 1
    35   36   10 1
    36   37   23 1
    37   38   24 1
    38   39   25 1
    39   40   25 1
    40   41   26 1
    41   42   26 1
    42   43   26 1
    43   44   25 1
    44   45   27 1
    45   46   27 1
    46   47   28 1
    47   48   28 1
    48   49   28 1
    49   50   27 1
    50   51   29 1
    51   52   29 1
    52   53   30 1
    53   54   30 1
    54   55   30 1
    55   56   29 1
    56   57   31 1
    57   58   31 1
    58   59   32 1
    59   60   32 1
    60   61   32 1
    61   62   31 1
    62   21   23 1
    63   22   24 1
@<TRIPOS>SUBSTRUCTURE
     1 RES1 1

@<TRIPOS>CRYSIN
   8.1520   33.7630    9.1920  90.0000 104.5900  90.0000 231 1

