# MOL2 file generated by ConQuest
# Please check atom types

@<TRIPOS>MOLECULE
VEBPEX
    23    23     1
SMALL
NO_CHARGES
****
Generated from CSD

@<TRIPOS>ATOM
      1 C1         4.2886   -1.3457    1.1915 C.3       1 RES1    0.0000
      2 C2         4.5195   -2.2475    0.0130 C.2       1 RES1    0.0000
      3 C3         4.4305   -1.5812   -1.3432 C.3       1 RES1    0.0000
      4 C4         5.1233   -0.2327   -1.3540 C.3       1 RES1    0.0000
      5 C5         4.7229    0.5893   -0.1419 C.3       1 RES1    0.0000
      6 C6         5.4402    1.9087   -0.0802 C.3       1 RES1    0.0000
      7 O1         5.0555   -0.1408    1.0388 O.3       1 RES1    0.0000
      8 O2         5.0437    2.6801    1.0399 O.3       1 RES1    0.0000
      9 O3         4.7820    0.4833   -2.5271 O.3       1 RES1    0.0000
     10 O4         4.9806   -2.3685   -2.3787 O.3       1 RES1    0.0000
     11 O5         4.7465   -4.0051    1.3464 O.3       1 RES1    0.0000
     12 N1         4.7245   -3.4862    0.0412 N.2       1 RES1    0.0000
     13 H1         3.2947   -1.0698    1.1915 H         1 RES1    0.0000
     14 H2         4.5243   -1.7736    2.0797 H         1 RES1    0.0000
     15 H3         3.4681   -1.3982   -1.5165 H         1 RES1    0.0000
     16 H4         6.1243   -0.3660   -1.3432 H         1 RES1    0.0000
     17 H5         3.7045    0.6944   -0.1083 H         1 RES1    0.0000
     18 H6         6.4238    1.7360   -0.0650 H         1 RES1    0.0000
     19 H7         5.3361    2.3460   -0.8774 H         1 RES1    0.0000
     20 H8         5.2652    2.3366    1.9173 H         1 RES1    0.0000
     21 H9         4.9578    0.0657   -3.3146 H         1 RES1    0.0000
     22 H10        4.4297   -3.0873   -2.5997 H         1 RES1    0.0000
     23 H11        4.7450   -4.9266    1.2782 H         1 RES1    0.0000
@<TRIPOS>BOND
     1    1    2 1
     2    2    3 1
     3    3    4 1
     4    4    5 1
     5    5    6 1
     6    6    8 1
     7    7    1 1
     8    8   20 1
     9    9    4 1
    10   10    3 1
    11   11   12 1
    12   12    2 2
    13   13    1 1
    14   14    1 1
    15   15    3 1
    16   16    4 1
    17   17    5 1
    18   18    6 1
    19   19    6 1
    20   21    9 1
    21   22   10 1
    22   23   11 1
    23    5    7 1
@<TRIPOS>SUBSTRUCTURE
     1 RES1 1

@<TRIPOS>CRYSIN
   7.8820    9.3840   10.8320  90.0000  90.0000  90.0000  19 1

