# MOL2 file generated by ConQuest
# Please check atom types

@<TRIPOS>MOLECULE
VEBVEE
    36    38     1
SMALL
NO_CHARGES
****
Generated from CSD

@<TRIPOS>ATOM
      1 C1         6.2324   13.8084    9.8250 C.3       1 RES1    0.0000
      2 H1         5.4764   14.1739    9.3201 H         1 RES1    0.0000
      3 C2         6.3163   14.5086   11.2322 C.3       1 RES1    0.0000
      4 H2         5.5349   15.0742   11.4018 H         1 RES1    0.0000
      5 C3         6.2438   13.0628   12.1054 C.3       1 RES1    0.0000
      6 H3         6.7990   13.1469   12.9083 H         1 RES1    0.0000
      7 C4         4.8487   12.5133   12.5089 C.3       1 RES1    0.0000
      8 H4         4.1966   12.7094   11.8198 H         1 RES1    0.0000
      9 H5         4.5538   12.9215   13.3387 H         1 RES1    0.0000
     10 C5         5.0235   10.7528   12.7138 C.3       1 RES1    0.0000
     11 H6         4.1858   10.2926   12.4986 H         1 RES1    0.0000
     12 C6         6.1513   10.3433   11.7184 C.3       1 RES1    0.0000
     13 H7         5.7919    9.8472   10.9673 H         1 RES1    0.0000
     14 H8         6.8293    9.8071   12.1592 H         1 RES1    0.0000
     15 C7         7.5647   14.2779    9.1836 C.3       1 RES1    0.0000
     16 H9         8.0999   13.5070    8.9414 H         1 RES1    0.0000
     17 H10        7.3775   14.7821    8.3765 H         1 RES1    0.0000
     18 C8         7.6724   15.3356   11.3211 C.2       1 RES1    0.0000
     19 C9         4.5570    9.8698   15.0066 C.3       1 RES1    0.0000
     20 C10        3.5088   11.0942   15.2838 C.3       1 RES1    0.0000
     21 H11        2.9265   11.1942   14.5286 H         1 RES1    0.0000
     22 H12        3.9975   11.9091   15.4225 H         1 RES1    0.0000
     23 H13        2.9866   10.8968   16.0660 H         1 RES1    0.0000
     24 C11        5.4348    9.6551   16.2440 C.3       1 RES1    0.0000
     25 H14        6.0322    8.9202   16.0888 H         1 RES1    0.0000
     26 H15        4.8779    9.4617   17.0014 H         1 RES1    0.0000
     27 H16        5.9440   10.4513   16.4158 H         1 RES1    0.0000
     28 C12        3.9136    8.3360   14.6444 C.3       1 RES1    0.0000
     29 H17        3.3172    8.4080   13.8953 H         1 RES1    0.0000
     30 H18        3.4320    8.0026   15.4039 H         1 RES1    0.0000
     31 H19        4.6274    7.7318   14.4272 H         1 RES1    0.0000
     32 N1         6.7649   11.8064   11.2346 N.3       1 RES1    0.0000
     33 O1         6.0679   12.1759    9.9614 O.3       1 RES1    0.0000
     34 O2         8.3288   15.1408   10.1541 O.3       1 RES1    0.0000
     35 O3         8.1405   16.0025   12.2378 O.2       1 RES1    0.0000
     36 O4         5.5013   10.3566   13.9980 O.3       1 RES1    0.0000
@<TRIPOS>BOND
     1    1    2 1
     2    3    1 1
     3    4    3 1
     4    5    3 1
     5    6    5 1
     6    7    5 1
     7    8    7 1
     8    9    7 1
     9   10    7 1
    10   11   10 1
    11   12   10 1
    12   13   12 1
    13   14   12 1
    14   15    1 1
    15   16   15 1
    16   17   15 1
    17   18    3 1
    18   19   20 1
    19   20   21 1
    20   22   20 1
    21   23   20 1
    22   24   19 1
    23   25   24 1
    24   26   24 1
    25   27   24 1
    26   28   19 1
    27   29   28 1
    28   30   28 1
    29   31   28 1
    30   32    5 1
    31   33    1 1
    32   34   15 1
    33   35   18 2
    34   36   10 1
    35   12   32 1
    36   18   34 1
    37   19   36 1
    38   32   33 1
@<TRIPOS>SUBSTRUCTURE
     1 RES1 1

@<TRIPOS>CRYSIN
   5.4115   13.3376   20.6930  90.0000  90.0000  90.0000  19 1

