# MOL2 file generated by ConQuest
# Please check atom types

@<TRIPOS>MOLECULE
VEBVUU
    51    53     1
SMALL
NO_CHARGES
****
Generated from CSD

@<TRIPOS>ATOM
      1 C1         0.3615   13.7694   16.8749 C.3       1 RES1    0.0000
      2 H1        -0.0595   13.4089   17.6822 H         1 RES1    0.0000
      3 C2        -0.4052   13.4509   15.6209 C.3       1 RES1    0.0000
      4 H2        -0.0339   12.6445   15.2062 H         1 RES1    0.0000
      5 C3         0.2146   15.6448   15.4516 C.2       1 RES1    0.0000
      6 C4         0.4647   15.2626   16.8868 C.3       1 RES1    0.0000
      7 H3        -0.1935   15.6666   17.4893 H         1 RES1    0.0000
      8 C5         1.9212   15.5687   17.3336 C.3       1 RES1    0.0000
      9 H4         2.3813   16.1172   16.6634 H         1 RES1    0.0000
     10 C6         2.0936   16.1653   18.7247 C.3       1 RES1    0.0000
     11 H5         1.4437   16.8754   18.9041 H         1 RES1    0.0000
     12 C7         1.9091   14.9674   19.6538 C.3       1 RES1    0.0000
     13 H6         2.3090   15.1305   20.5339 H         1 RES1    0.0000
     14 C8         2.6185   13.8456   18.9193 C.3       1 RES1    0.0000
     15 C9        -1.8790   13.2629   15.8544 C.3       1 RES1    0.0000
     16 H7        -2.3436   13.1495   15.0099 H         1 RES1    0.0000
     17 H8        -2.0371   12.4782   16.4027 H         1 RES1    0.0000
     18 C10        3.6819   18.0205   18.9024 C.3       1 RES1    0.0000
     19 C11        3.1487   18.5845   20.1616 C.3       1 RES1    0.0000
     20 H9         3.5275   18.1153   20.9079 H         1 RES1    0.0000
     21 H10        2.1930   18.4897   20.1751 H         1 RES1    0.0000
     22 H11        3.3792   19.5152   20.2174 H         1 RES1    0.0000
     23 C12        5.1889   18.1277   18.9176 C.3       1 RES1    0.0000
     24 H12        5.5421   17.7859   18.0934 H         1 RES1    0.0000
     25 H13        5.5391   17.6165   19.6521 H         1 RES1    0.0000
     26 H14        5.4442   19.0475   19.0175 H         1 RES1    0.0000
     27 C13        3.1239   18.7710   17.7465 C.3       1 RES1    0.0000
     28 H15        3.4936   18.4229   16.9308 H         1 RES1    0.0000
     29 H16        3.3483   19.7001   17.8294 H         1 RES1    0.0000
     30 H17        2.1689   18.6715   17.7313 H         1 RES1    0.0000
     31 C14       -0.0881   14.5292   21.0467 C.3       1 RES1    0.0000
     32 C15       -1.5559   14.2775   20.6964 C.3       1 RES1    0.0000
     33 H18       -1.6259   13.4758   20.1734 H         1 RES1    0.0000
     34 H19       -1.8956   15.0202   20.1903 H         1 RES1    0.0000
     35 H20       -2.0658   14.1796   21.5036 H         1 RES1    0.0000
     36 C16        0.5098   13.3188   21.7220 C.3       1 RES1    0.0000
     37 H21        0.3720   12.5451   21.1702 H         1 RES1    0.0000
     38 H22        0.0874   13.1852   22.5732 H         1 RES1    0.0000
     39 H23        1.4512   13.4556   21.8506 H         1 RES1    0.0000
     40 C17        0.1009   15.7598   21.8827 C.3       1 RES1    0.0000
     41 H24        1.0348   15.8763   22.0723 H         1 RES1    0.0000
     42 H25       -0.3841   15.6650   22.7052 H         1 RES1    0.0000
     43 H26       -0.2259   16.5242   21.4038 H         1 RES1    0.0000
     44 O1         1.7284   13.3157   16.6972 O.3       1 RES1    0.0000
     45 O2        -0.1913   14.5867   14.7476 O.3       1 RES1    0.0000
     46 O3         0.3457   16.7278   14.9422 O.2       1 RES1    0.0000
     47 O4         3.4266   16.6159   18.8584 O.3       1 RES1    0.0000
     48 O5         0.5136   14.7079   19.7537 O.3       1 RES1    0.0000
     49 O6        -2.3316   14.4251   16.5144 O.3       1 RES1    0.0000
     50 N1         2.5636   14.2200   17.4470 N.3       1 RES1    0.0000
     51 H27       -3.2007   14.3101   16.7717 H         1 RES1    0.0000
@<TRIPOS>BOND
     1    1    2 1
     2    3    1 1
     3    4    3 1
     4    5    6 1
     5    6    1 1
     6    7    6 1
     7    8    6 1
     8    9    8 1
     9   10    8 1
    10   11   10 1
    11   12   10 1
    12   13   12 1
    13   14   12 1
    14   15    3 1
    15   16   15 1
    16   17   15 1
    17   18   19 1
    18   19   20 1
    19   21   19 1
    20   22   19 1
    21   23   18 1
    22   24   23 1
    23   25   23 1
    24   26   23 1
    25   27   18 1
    26   28   27 1
    27   29   27 1
    28   30   27 1
    29   31   32 1
    30   32   33 1
    31   34   32 1
    32   35   32 1
    33   36   31 1
    34   37   36 1
    35   38   36 1
    36   39   36 1
    37   40   31 1
    38   41   40 1
    39   42   40 1
    40   43   40 1
    41   44    1 1
    42   45    3 1
    43   46    5 2
    44   47   10 1
    45   48   12 1
    46   49   15 1
    47   50    8 1
    48   51   49 1
    49    5   45 1
    50   14   50 1
    51   18   47 1
    52   31   48 1
    53   44   50 1
@<TRIPOS>SUBSTRUCTURE
     1 RES1 1

@<TRIPOS>CRYSIN
   7.5310   15.5376   16.9240  90.0000  90.0000  90.0000  19 1

