# MOL2 file generated by ConQuest
# Please check atom types

@<TRIPOS>MOLECULE
VEBVOQ
    71    75     1
SMALL
NO_CHARGES
****
Generated from CSD

@<TRIPOS>ATOM
      1 C1         2.1464    7.6148   11.6335 C.ar      1 RES1    0.0000
      2 C2         0.7495    7.6251   11.6622 C.ar      1 RES1    0.0000
      3 H1         0.2624    7.3452   10.8965 H         1 RES1    0.0000
      4 C3         0.0654    8.0388   12.7957 C.ar      1 RES1    0.0000
      5 H2        -0.8841    8.0343   12.8049 H         1 RES1    0.0000
      6 C4         0.7691    8.4580   13.9167 C.ar      1 RES1    0.0000
      7 H3         0.3009    8.7273   14.6986 H         1 RES1    0.0000
      8 C5         2.1545    8.4839   13.8943 C.ar      1 RES1    0.0000
      9 H4         2.6375    8.7891   14.6530 H         1 RES1    0.0000
     10 C6         2.8373    8.0612   12.7560 C.ar      1 RES1    0.0000
     11 H5         3.7869    8.0787   12.7458 H         1 RES1    0.0000
     12 C7         2.8903    7.1257   10.4036 C.3       1 RES1    0.0000
     13 H6         3.8700    7.1174   10.6047 H         1 RES1    0.0000
     14 C8         2.6582    7.9449    9.1384 C.2       1 RES1    0.0000
     15 C9         2.6831    9.4406    9.1860 C.3       1 RES1    0.0000
     16 H7         2.4711    9.7987    8.2986 H         1 RES1    0.0000
     17 H8         3.5750    9.7447    9.4559 H         1 RES1    0.0000
     18 H9         2.0196    9.7582    9.8339 H         1 RES1    0.0000
     19 C10        2.5476    7.1506    8.0764 C.2       1 RES1    0.0000
     20 C11        2.7219    5.6910    8.4339 C.3       1 RES1    0.0000
     21 C12        4.0998    5.1474    8.0576 C.3       1 RES1    0.0000
     22 H10        4.1368    4.1870    8.2530 H         1 RES1    0.0000
     23 H11        4.7882    5.6136    8.5768 H         1 RES1    0.0000
     24 H12        4.2587    5.2932    7.1018 H         1 RES1    0.0000
     25 C13        2.4617    5.7061    9.9604 C.3       1 RES1    0.0000
     26 H13        1.4681    5.6715   10.0703 H         1 RES1    0.0000
     27 C14        3.0081    4.5442   10.7620 C.ar      1 RES1    0.0000
     28 C15        4.1339    4.6366   11.5806 C.ar      1 RES1    0.0000
     29 H14        4.6202    5.4514   11.6143 H         1 RES1    0.0000
     30 C16        4.5584    3.5554   12.3502 C.ar      1 RES1    0.0000
     31 H15        5.3266    3.6369   12.9034 H         1 RES1    0.0000
     32 C17        3.8577    2.3597   12.3075 C.ar      1 RES1    0.0000
     33 H16        4.1266    1.6273   12.8492 H         1 RES1    0.0000
     34 C18        2.7574    2.2414   11.4657 C.ar      1 RES1    0.0000
     35 H17        2.2906    1.4150   11.4124 H         1 RES1    0.0000
     36 C19        2.3361    3.3207   10.7024 C.ar      1 RES1    0.0000
     37 H18        1.5826    3.2257   10.1319 H         1 RES1    0.0000
     38 C20        2.2404    7.4847    6.6487 C.3       1 RES1    0.0000
     39 H19        3.0252    7.2931    6.0762 H         1 RES1    0.0000
     40 H20        2.0162    8.4455    6.5625 H         1 RES1    0.0000
     41 C21        1.0339    6.6122    6.2158 C.3       1 RES1    0.0000
     42 C22        0.7591    6.8060    4.7259 C.2       1 RES1    0.0000
     43 C23       -0.9059    6.7701    3.0524 C.3       1 RES1    0.0000
     44 H21       -0.6744    7.6482    2.6853 H         1 RES1    0.0000
     45 H22       -1.8697    6.6193    2.9550 H         1 RES1    0.0000
     46 H23       -0.4148    6.0750    2.5671 H         1 RES1    0.0000
     47 C24       -0.2008    6.9892    7.0321 C.2       1 RES1    0.0000
     48 C25       -1.5209    8.7988    7.7377 C.3       1 RES1    0.0000
     49 H24       -2.3376    8.4050    7.3665 H         1 RES1    0.0000
     50 H25       -1.5702    9.7755    7.6719 H         1 RES1    0.0000
     51 H26       -1.4314    8.5382    8.6778 H         1 RES1    0.0000
     52 C26        1.4645    5.1142    6.4545 C.3       1 RES1    0.0000
     53 H27        2.3390    4.9785    5.9900 H         1 RES1    0.0000
     54 C27        0.5001    4.0807    5.9100 C.ar      1 RES1    0.0000
     55 C28       -0.3687    3.3604    6.7303 C.ar      1 RES1    0.0000
     56 H28       -0.3877    3.5326    7.6645 H         1 RES1    0.0000
     57 C29       -1.2074    2.3914    6.1872 C.ar      1 RES1    0.0000
     58 H29       -1.7943    1.8918    6.7423 H         1 RES1    0.0000
     59 C30       -1.1666    2.1731    4.8165 C.ar      1 RES1    0.0000
     60 C31       -0.3200    2.8717    3.9752 C.ar      1 RES1    0.0000
     61 H30       -0.3198    2.7122    3.0387 H         1 RES1    0.0000
     62 C32        0.5270    3.8108    4.5366 C.ar      1 RES1    0.0000
     63 H31        1.1376    4.2797    3.9806 H         1 RES1    0.0000
     64 N1        -2.0216    1.1283    4.2243 N.pl3     1 RES1    0.0000
     65 O1         1.6177    6.9496    3.8979 O.2       1 RES1    0.0000
     66 O2        -0.5488    6.7228    4.4568 O.3       1 RES1    0.0000
     67 O3        -0.9185    6.2392    7.6364 O.2       1 RES1    0.0000
     68 O4         1.6786    4.8712    7.8334 O.3       1 RES1    0.0000
     69 O5        -2.9266    0.6652    4.9051 O.2       1 RES1    0.0000
     70 O6        -1.7792    0.7561    3.0767 O.2       1 RES1    0.0000
     71 O7        -0.3774    8.3249    6.9962 O.3       1 RES1    0.0000
@<TRIPOS>BOND
     1    1    2 ar
     2    2    3 1
     3    4    2 ar
     4    5    4 1
     5    6    4 ar
     6    7    6 1
     7    8    6 ar
     8    9    8 1
     9   10    1 ar
    10   11   10 1
    11   12    1 1
    12   13   12 1
    13   14   12 1
    14   15   14 1
    15   16   15 1
    16   17   15 1
    17   18   15 1
    18   19   14 2
    19   20   19 1
    20   21   20 1
    21   22   21 1
    22   23   21 1
    23   24   21 1
    24   25   12 1
    25   26   25 1
    26   27   25 1
    27   28   27 ar
    28   29   28 1
    29   30   28 ar
    30   31   30 1
    31   32   30 ar
    32   33   32 1
    33   34   32 ar
    34   35   34 1
    35   36   27 ar
    36   37   36 1
    37   38   19 1
    38   39   38 1
    39   40   38 1
    40   41   38 1
    41   42   41 1
    42   43   44 1
    43   45   43 1
    44   46   43 1
    45   47   41 1
    46   48   49 1
    47   50   48 1
    48   51   48 1
    49   52   41 1
    50   53   52 1
    51   54   52 1
    52   55   54 ar
    53   56   55 1
    54   57   55 ar
    55   58   57 1
    56   59   57 ar
    57   60   59 ar
    58   61   60 1
    59   62   54 ar
    60   63   62 1
    61   64   59 1
    62   65   42 2
    63   66   42 1
    64   67   47 2
    65   68   20 1
    66   69   64 2
    67   70   64 2
    68   71   47 1
    69    8   10 ar
    70   20   25 1
    71   34   36 ar
    72   43   66 1
    73   48   71 1
    74   52   68 1
    75   60   62 ar
@<TRIPOS>SUBSTRUCTURE
     1 RES1 1

@<TRIPOS>CRYSIN
  11.5480   19.3040   13.5890  90.0000 115.0340  90.0000  14 1

