# MOL2 file generated by ConQuest
# Please check atom types

@<TRIPOS>MOLECULE
VEBVII
    80    84     2
SMALL
NO_CHARGES
****
Generated from CSD

@<TRIPOS>ATOM
      1 H1         3.3659    2.1933   12.3891 H         1 RES1    0.0000
      2 H2         7.2359    8.6522   14.0908 H         2 RES2    0.0000
      3 C1         5.6744    1.3912   10.5579 C.3       1 RES1    0.0000
      4 H3         6.0830    1.8968   11.2914 H         1 RES1    0.0000
      5 C2         9.5082    7.3084   11.7339 C.3       2 RES2    0.0000
      6 H4         9.4664    8.2619   11.9551 H         2 RES2    0.0000
      7 C3         4.9952    2.3401    9.5743 C.3       1 RES1    0.0000
      8 H5         5.0831    3.2797    9.8398 H         1 RES1    0.0000
      9 C4         8.6409    6.9980   10.5239 C.3       2 RES2    0.0000
     10 H6         8.1658    7.7907   10.1988 H         2 RES2    0.0000
     11 C5         5.7103    2.0399    8.2775 C.3       1 RES1    0.0000
     12 H7         5.0985    2.1403    7.5185 H         1 RES1    0.0000
     13 C6         9.6433    6.4757    9.5028 C.3       2 RES2    0.0000
     14 H8         9.2261    5.7991    8.9310 H         2 RES2    0.0000
     15 C7         7.0130    2.8224    8.0274 C.3       1 RES1    0.0000
     16 H9         6.8554    3.5678    7.4283 H         1 RES1    0.0000
     17 H10        7.3749    3.1626    8.8612 H         1 RES1    0.0000
     18 C8        10.3607    7.5147    8.6553 C.3       2 RES2    0.0000
     19 H11        9.9255    7.6123    7.7942 H         2 RES2    0.0000
     20 H12       10.3657    8.3762    9.1012 H         2 RES2    0.0000
     21 C9         7.9570    1.8252    7.4028 C.3       1 RES1    0.0000
     22 H13        8.8183    1.8262    7.8708 H         1 RES1    0.0000
     23 C10       11.7759    6.9924    8.4851 C.3       2 RES2    0.0000
     24 H14       12.4324    7.7080    8.6111 H         2 RES2    0.0000
     25 C11        7.2640    0.4730    7.5577 C.3       1 RES1    0.0000
     26 H15        6.9773    0.1487    6.6897 H         1 RES1    0.0000
     27 H16        7.8821   -0.1729    7.9355 H         1 RES1    0.0000
     28 C12       11.9259    5.9023    9.5692 C.3       2 RES2    0.0000
     29 H17       12.0855    5.0408    9.1522 H         2 RES2    0.0000
     30 H18       12.6796    6.1086   10.1427 H         2 RES2    0.0000
     31 C13        4.5579    0.4861   11.0923 C.3       1 RES1    0.0000
     32 H19        4.7989   -0.4563   10.9715 H         1 RES1    0.0000
     33 C14        8.9511    6.4711   12.8724 C.3       2 RES2    0.0000
     34 H20        9.6563    5.8735   13.1991 H         2 RES2    0.0000
     35 C15        3.5519    1.8801    9.5420 C.2       1 RES1    0.0000
     36 C16        7.7018    5.9339   10.9936 C.2       2 RES2    0.0000
     37 C17        9.2910    2.8001    5.5632 C.3       1 RES1    0.0000
     38 C18       13.0854    6.6848    6.4430 C.3       2 RES2    0.0000
     39 C19        9.4203    4.0836    6.3562 C.3       1 RES1    0.0000
     40 H21        8.6125    4.5956    6.2694 H         1 RES1    0.0000
     41 H22       10.1604    4.5947    6.0209 H         1 RES1    0.0000
     42 H23        9.5690    3.8745    7.2820 H         1 RES1    0.0000
     43 C20       14.3343    6.4153    7.2326 C.3       2 RES2    0.0000
     44 H24       14.3523    5.4934    7.4998 H         2 RES2    0.0000
     45 H25       14.3473    6.9738    8.0137 H         2 RES2    0.0000
     46 H26       15.1036    6.6058    6.6897 H         2 RES2    0.0000
     47 C21        8.9980    3.0520    4.1149 C.3       1 RES1    0.0000
     48 H27        8.2080    3.5910    4.0367 H         1 RES1    0.0000
     49 H28        8.8587    2.2146    3.6657 H         1 RES1    0.0000
     50 H29        9.7400    3.5102    3.7133 H         1 RES1    0.0000
     51 C22       13.0590    8.1076    5.9818 C.3       2 RES2    0.0000
     52 H30       13.1705    8.6904    6.7357 H         2 RES2    0.0000
     53 H31       12.2181    8.2898    5.5581 H         2 RES2    0.0000
     54 H32       13.7721    8.2536    5.3572 H         2 RES2    0.0000
     55 C23       10.5220    1.9516    5.7010 C.3       1 RES1    0.0000
     56 H33       10.6849    1.7732    6.6302 H         1 RES1    0.0000
     57 H34       11.2747    2.4163    5.3283 H         1 RES1    0.0000
     58 H35       10.3944    1.1227    5.2347 H         1 RES1    0.0000
     59 C24       12.9358    5.7573    5.2296 C.3       2 RES2    0.0000
     60 H36       12.9609    4.8428    5.5206 H         2 RES2    0.0000
     61 H37       13.6552    5.9172    4.6136 H         2 RES2    0.0000
     62 H38       12.0985    5.9311    4.7940 H         2 RES2    0.0000
     63 C25        4.2192    0.7500   12.5201 C.3       1 RES1    0.0000
     64 H39        3.4230    0.2481   12.7566 H         1 RES1    0.0000
     65 H40        4.9451    0.4387   13.0834 H         1 RES1    0.0000
     66 C26        8.3841    7.2387   14.0398 C.3       2 RES2    0.0000
     67 H41        8.0038    6.6263   14.6899 H         2 RES2    0.0000
     68 H42        9.0845    7.7498   14.4755 H         2 RES2    0.0000
     69 N1         6.0955    0.6282    8.4460 N.3       1 RES1    0.0000
     70 N2        10.6807    5.8530   10.3690 N.3       2 RES2    0.0000
     71 O1         6.6715    0.6942    9.8228 O.3       1 RES1    0.0000
     72 O2        10.8381    6.9311   11.3756 O.3       2 RES2    0.0000
     73 O3         3.3654    0.8076   10.3066 O.3       1 RES1    0.0000
     74 O4         7.8700    5.6570   12.2968 O.3       2 RES2    0.0000
     75 O5         2.6651    2.3856    8.9089 O.2       1 RES1    0.0000
     76 O6         6.8911    5.3112   10.3435 O.2       2 RES2    0.0000
     77 O7         8.1435    2.0260    6.0060 O.3       1 RES1    0.0000
     78 O8        11.9155    6.3939    7.2056 O.3       2 RES2    0.0000
     79 O9         3.9939    2.1171   12.7754 O.3       1 RES1    0.0000
     80 O10        7.3770    8.1114   13.5412 O.3       2 RES2    0.0000
@<TRIPOS>BOND
     1    1   79 1
     2    2   80 1
     3    3    4 1
     4    5    6 1
     5    7    3 1
     6    8    7 1
     7    9    5 1
     8   10    9 1
     9   11    7 1
    10   12   11 1
    11   13    9 1
    12   14   13 1
    13   15   11 1
    14   16   15 1
    15   17   15 1
    16   18   13 1
    17   19   18 1
    18   20   18 1
    19   21   15 1
    20   22   21 1
    21   23   18 1
    22   24   23 1
    23   25   21 1
    24   26   25 1
    25   27   25 1
    26   28   23 1
    27   29   28 1
    28   30   28 1
    29   31    3 1
    30   32   31 1
    31   33    5 1
    32   34   33 1
    33   35    7 1
    34   36    9 1
    35   37   39 1
    36   38   43 1
    37   39   40 1
    38   41   39 1
    39   42   39 1
    40   43   44 1
    41   45   43 1
    42   46   43 1
    43   47   37 1
    44   48   47 1
    45   49   47 1
    46   50   47 1
    47   51   38 1
    48   52   51 1
    49   53   51 1
    50   54   51 1
    51   55   37 1
    52   56   55 1
    53   57   55 1
    54   58   55 1
    55   59   38 1
    56   60   59 1
    57   61   59 1
    58   62   59 1
    59   63   31 1
    60   64   63 1
    61   65   63 1
    62   66   33 1
    63   67   66 1
    64   68   66 1
    65   69   11 1
    66   70   13 1
    67   71    3 1
    68   72    5 1
    69   73   31 1
    70   74   33 1
    71   75   35 2
    72   76   36 2
    73   77   21 1
    74   78   23 1
    75   79   63 1
    76   80   66 1
    77   25   69 1
    78   28   70 1
    79   35   73 1
    80   36   74 1
    81   37   77 1
    82   38   78 1
    83   69   71 1
    84   70   72 1
@<TRIPOS>SUBSTRUCTURE
     1 RES1 1
     2 RES2 2

@<TRIPOS>CRYSIN
   8.9486    9.2935   17.0180  90.0000  90.1600  90.0000   4 1

