# MOL2 file generated by ConQuest
# Please check atom types

@<TRIPOS>MOLECULE
VECBOU
    20    21     1
SMALL
NO_CHARGES
****
Generated from CSD

@<TRIPOS>ATOM
      1 O1        -0.7335   -0.9098    8.0440 O.3       1 RES1    0.0000
      2 O2         2.8881    0.2599    8.4068 O.2       1 RES1    0.0000
      3 O3        -0.0497    0.8154    9.4370 O.3       1 RES1    0.0000
      4 O4         0.9196    2.5903    8.6102 O.2       1 RES1    0.0000
      5 O5         8.4535    1.9232    4.1565 O.2       1 RES1    0.0000
      6 O6         9.2203    0.9250    5.8823 O.2       1 RES1    0.0000
      7 N1         1.9605    1.0174    6.5329 N.am      1 RES1    0.0000
      8 N2         8.3074    1.3586    5.2299 N.pl3     1 RES1    0.0000
      9 C1         3.0262    0.7209    7.2847 C.2       1 RES1    0.0000
     10 C2        -0.3068   -0.5788    9.3020 C.3       1 RES1    0.0000
     11 C3        -0.3992    1.5058    6.1729 C.3       1 RES1    0.0000
     12 C4         0.5599    1.4622    8.4387 C.2       1 RES1    0.0000
     13 C5         0.6241    0.8022    7.0578 C.3       1 RES1    0.0000
     14 C6         0.3271   -0.6884    7.1169 C.3       1 RES1    0.0000
     15 C7         4.3883    0.9291    6.6913 C.ar      1 RES1    0.0000
     16 C8         5.4351    0.2467    7.2744 C.ar      1 RES1    0.0000
     17 C9         6.7148    0.3757    6.8075 C.ar      1 RES1    0.0000
     18 C10        6.9253    1.2164    5.7445 C.ar      1 RES1    0.0000
     19 C11        5.9333    1.9049    5.1671 C.ar      1 RES1    0.0000
     20 C12        4.6545    1.7668    5.6358 C.ar      1 RES1    0.0000
@<TRIPOS>BOND
     1    1   10 1
     2    2    9 2
     3    3   10 1
     4    4   12 2
     5    5    8 2
     6    6    8 2
     7    7    9 1
     8    8   18 1
     9    9   15 1
    10   11   13 1
    11   12    3 1
    12   13    7 1
    13   14    1 1
    14   15   16 ar
    15   16   17 ar
    16   17   18 ar
    17   18   19 ar
    18   19   20 ar
    19   20   15 ar
    20   12   13 1
    21   13   14 1
@<TRIPOS>SUBSTRUCTURE
     1 RES1 1

@<TRIPOS>CRYSIN
  13.3330   10.1540    9.5970  90.0000 102.3700  90.0000  14 1

