# MOL2 file generated by ConQuest
# Please check atom types

@<TRIPOS>MOLECULE
VECDUC
    38    40     1
SMALL
NO_CHARGES
****
Generated from CSD

@<TRIPOS>ATOM
      1 C1        -1.8127    2.5841    5.3314 C.ar      1 RES1    0.0000
      2 C2        -1.7524    2.7401    6.7019 C.ar      1 RES1    0.0000
      3 C3        -2.8570    2.8993    7.4774 C.ar      1 RES1    0.0000
      4 C4        -3.0285    2.6094    4.7203 C.ar      1 RES1    0.0000
      5 C5        -4.1579    2.7654    5.4626 C.ar      1 RES1    0.0000
      6 C6        -4.0672    2.8977    6.8331 C.ar      1 RES1    0.0000
      7 C7        -2.7210    3.0569    8.9888 C.3       1 RES1    0.0000
      8 C8        -3.6543    4.0842    9.5789 C.3       1 RES1    0.0000
      9 C9        -2.7989    5.3054    9.5911 C.2       1 RES1    0.0000
     10 N1        -1.5599    5.0375    9.4429 N.2       1 RES1    0.0000
     11 O1        -1.4106    3.6430    9.2511 O.3       1 RES1    0.0000
     12 C10       -3.2465    6.6636    9.8153 C.ar      1 RES1    0.0000
     13 C11       -2.3726    7.7304    9.8040 C.ar      1 RES1    0.0000
     14 C12       -2.8468    9.0035    9.9910 C.ar      1 RES1    0.0000
     15 C13       -4.1398    9.2478   10.2201 C.ar      1 RES1    0.0000
     16 C14       -5.0119    8.2173   10.2800 C.ar      1 RES1    0.0000
     17 C15       -4.5431    6.9284   10.0784 C.ar      1 RES1    0.0000
     18 C16       -2.6841    1.6939    9.6963 C.3       1 RES1    0.0000
     19 C17       -3.9887    0.9659    9.5587 C.3       1 RES1    0.0000
     20 N2        -2.4450    1.9239   11.1219 N.3       1 RES1    0.0000
     21 H1        -0.9786    2.7732    7.0751 H         1 RES1    0.0000
     22 H2        -0.9548    2.5054    4.8166 H         1 RES1    0.0000
     23 H3        -3.1699    2.5211    3.8209 H         1 RES1    0.0000
     24 H4        -5.0857    2.7260    4.9785 H         1 RES1    0.0000
     25 H5        -4.8376    2.9938    7.3423 H         1 RES1    0.0000
     26 H6        -1.5489    7.6894    9.4632 H         1 RES1    0.0000
     27 H7        -2.1913    9.6748    9.9974 H         1 RES1    0.0000
     28 H8        -4.3913   10.1160   10.2727 H         1 RES1    0.0000
     29 H9        -5.9964    8.3197   10.6046 H         1 RES1    0.0000
     30 H10       -5.1150    6.2870   10.0622 H         1 RES1    0.0000
     31 H11       -4.4503    4.2229    9.0827 H         1 RES1    0.0000
     32 H12       -3.8791    3.8447   10.4508 H         1 RES1    0.0000
     33 H13       -2.0238    1.1030    9.2203 H         1 RES1    0.0000
     34 H14       -4.5990    1.5915    9.9246 H         1 RES1    0.0000
     35 H15       -4.3464    0.8351    8.6860 H         1 RES1    0.0000
     36 H16       -4.0041    0.1576    9.9813 H         1 RES1    0.0000
     37 H17       -2.4150    1.1187   11.4708 H         1 RES1    0.0000
     38 H18       -1.5884    2.2690   11.2036 H         1 RES1    0.0000
@<TRIPOS>BOND
     1    1    2 ar
     2    2    3 ar
     3    3    6 ar
     4    4    1 ar
     5    5    4 ar
     6    6    5 ar
     7    7    3 1
     8    8    7 1
     9    9    8 1
    10   10    9 2
    11   11    7 1
    12   12    9 1
    13   13   12 ar
    14   14   13 ar
    15   15   14 ar
    16   16   15 ar
    17   17   12 ar
    18   18    7 1
    19   19   18 1
    20   20   18 1
    21   21    2 1
    22   22    1 1
    23   23    4 1
    24   24    5 1
    25   25    6 1
    26   26   13 1
    27   27   14 1
    28   28   15 1
    29   29   16 1
    30   30   17 1
    31   31    8 1
    32   32    8 1
    33   33   18 1
    34   34   19 1
    35   35   19 1
    36   36   19 1
    37   37   20 1
    38   38   20 1
    39   10   11 1
    40   16   17 ar
@<TRIPOS>SUBSTRUCTURE
     1 RES1 1

@<TRIPOS>CRYSIN
  11.2310   15.7570    8.7290  90.0000 111.9700  90.0000  14 2

