# MOL2 file generated by ConQuest
# Please check atom types

@<TRIPOS>MOLECULE
VECFIT
    66    69     1
SMALL
NO_CHARGES
****
Generated from CSD

@<TRIPOS>ATOM
      1 O1        -2.5679    1.9469    4.3611 O.2       1 RES1    0.0000
      2 O2         1.7230    6.9261    0.9931 O.2       1 RES1    0.0000
      3 O3         4.7153    3.8389    6.4274 O.2       1 RES1    0.0000
      4 N1         0.2871    5.2047    0.6518 N.am      1 RES1    0.0000
      5 N2         4.8898    4.2066    4.1983 N.am      1 RES1    0.0000
      6 N3        -0.4631    2.3209    5.1419 N.am      1 RES1    0.0000
      7 C1         2.6215    0.3892    4.5152 C.ar      1 RES1    0.0000
      8 C2         1.9126    2.9472    5.1576 C.ar      1 RES1    0.0000
      9 H1         1.6696    3.8339    5.3948 H         1 RES1    0.0000
     10 C3         0.9256    1.9910    4.9580 C.ar      1 RES1    0.0000
     11 C4         3.6208    1.3208    4.6852 C.ar      1 RES1    0.0000
     12 H2         4.5347    1.0832    4.5816 H         1 RES1    0.0000
     13 C5         2.9821    3.7672    0.4526 C.ar      1 RES1    0.0000
     14 H3         2.5264    3.6343   -0.3709 H         1 RES1    0.0000
     15 C6         1.2762    0.6940    4.6338 C.ar      1 RES1    0.0000
     16 H4         0.6126    0.0290    4.4962 H         1 RES1    0.0000
     17 C7        -0.3401    3.5706    2.3731 C.ar      1 RES1    0.0000
     18 H5        -0.0850    4.1896    3.0474 H         1 RES1    0.0000
     19 C8         4.0714    2.9927    0.7995 C.ar      1 RES1    0.0000
     20 C9        -0.9037    2.3468    2.7303 C.ar      1 RES1    0.0000
     21 C10        4.3016    4.0693    2.8935 C.ar      1 RES1    0.0000
     22 C11        3.2526    2.6155    5.0122 C.ar      1 RES1    0.0000
     23 C12       -0.9939    1.7613    0.4327 C.ar      1 RES1    0.0000
     24 C13       -0.1494    3.8881    1.0276 C.ar      1 RES1    0.0000
     25 C14        4.7388    3.1030    1.9979 C.ar      1 RES1    0.0000
     26 H6         5.4733    2.5382    2.2046 H         1 RES1    0.0000
     27 C15       -0.4691    2.9723    0.0441 C.ar      1 RES1    0.0000
     28 H7        -0.3310    3.1724   -0.8742 H         1 RES1    0.0000
     29 C16       -1.2549    1.4392    1.7485 C.ar      1 RES1    0.0000
     30 H8        -1.6652    0.6132    1.9747 H         1 RES1    0.0000
     31 C17        2.5776    4.7463    1.3452 C.ar      1 RES1    0.0000
     32 C18        3.2576    4.9049    2.5424 C.ar      1 RES1    0.0000
     33 H9         3.0018    5.6027    3.1345 H         1 RES1    0.0000
     34 C19        4.3464    3.6238    5.2875 C.2       1 RES1    0.0000
     35 C20       -1.3761    2.1457    4.1420 C.2       1 RES1    0.0000
     36 C21        1.4915    5.7228    0.9962 C.2       1 RES1    0.0000
     37 C22        5.9909    5.1699    4.3910 C.3       1 RES1    0.0000
     38 H10        6.5929    5.1360    3.6064 H         1 RES1    0.0000
     39 H11        6.5151    4.9090    5.1893 H         1 RES1    0.0000
     40 C23       -0.7397    6.1022    0.0818 C.3       1 RES1    0.0000
     41 H12       -1.2426    5.6124   -0.6164 H         1 RES1    0.0000
     42 H13       -0.2901    6.8694   -0.3535 H         1 RES1    0.0000
     43 C24        5.4856    6.5829    4.5694 C.3       1 RES1    0.0000
     44 H14        5.0411    6.8775    3.7474 H         1 RES1    0.0000
     45 H15        6.2402    7.1768    4.7627 H         1 RES1    0.0000
     46 H16        4.8483    6.6103    5.3129 H         1 RES1    0.0000
     47 C25       -0.9517    2.4598    6.5354 C.3       1 RES1    0.0000
     48 H17       -1.7935    2.9808    6.5301 H         1 RES1    0.0000
     49 H18       -0.2849    2.9696    7.0595 H         1 RES1    0.0000
     50 C26       -1.7097    6.6220    1.1070 C.3       1 RES1    0.0000
     51 H19       -2.2210    5.8747    1.4819 H         1 RES1    0.0000
     52 H20       -2.3227    7.2589    0.6826 H         1 RES1    0.0000
     53 H21       -1.2166    7.0722    1.8250 H         1 RES1    0.0000
     54 C27       -1.2007    1.1346    7.2169 C.3       1 RES1    0.0000
     55 H22       -1.9094    0.6519    6.7426 H         1 RES1    0.0000
     56 H23       -1.4768    1.2908    8.1444 H         1 RES1    0.0000
     57 H24       -0.3780    0.6020    7.2058 H         1 RES1    0.0000
     58 N4         3.0143   -1.0079    4.2368 N.pl3     1 RES1    0.0000
     59 N5         4.5424    1.9889   -0.1788 N.pl3     1 RES1    0.0000
     60 N6        -1.2992    0.7595   -0.6121 N.pl3     1 RES1    0.0000
     61 O4         2.1562   -1.8761    4.2686 O.2       1 RES1    0.0000
     62 O5        -1.6118   -0.3744   -0.2523 O.2       1 RES1    0.0000
     63 O6         3.9625    1.8888   -1.2397 O.2       1 RES1    0.0000
     64 O7         4.1767   -1.2516    4.0313 O.2       1 RES1    0.0000
     65 O8        -1.2020    1.0998   -1.7854 O.2       1 RES1    0.0000
     66 O9         5.4927    1.2942    0.1400 O.2       1 RES1    0.0000
@<TRIPOS>BOND
     1    1   35 2
     2    2   36 2
     3    3   34 2
     4    4   24 1
     5    5   21 1
     6    6   10 1
     7    7   11 ar
     8    8    9 1
     9   10    8 ar
    10   11   12 1
    11   13   14 1
    12   15    7 ar
    13   16   15 1
    14   17   18 1
    15   19   13 ar
    16   20   17 ar
    17   21   25 ar
    18   22    8 ar
    19   23   27 ar
    20   24   17 ar
    21   25   19 ar
    22   26   25 1
    23   27   24 ar
    24   28   27 1
    25   29   20 ar
    26   30   29 1
    27   31   13 ar
    28   32   21 ar
    29   33   32 1
    30   34    5 1
    31   35    6 1
    32   36    4 1
    33   37    5 1
    34   38   37 1
    35   39   37 1
    36   40    4 1
    37   41   40 1
    38   42   40 1
    39   43   37 1
    40   44   43 1
    41   45   43 1
    42   46   43 1
    43   47    6 1
    44   48   47 1
    45   49   47 1
    46   50   40 1
    47   51   50 1
    48   52   50 1
    49   53   50 1
    50   54   47 1
    51   55   54 1
    52   56   54 1
    53   57   54 1
    54   58    7 1
    55   59   19 1
    56   60   23 1
    57   61   58 2
    58   62   60 2
    59   63   59 2
    60   64   58 2
    61   65   60 2
    62   66   59 2
    63   10   15 ar
    64   11   22 ar
    65   20   35 1
    66   22   34 1
    67   23   29 ar
    68   31   32 ar
    69   31   36 1
@<TRIPOS>SUBSTRUCTURE
     1 RES1 1

@<TRIPOS>CRYSIN
   9.4900   16.0952   17.6257  90.0000  98.8950  90.0000 231 1

