# MOL2 file generated by ConQuest
# Please check atom types

@<TRIPOS>MOLECULE
VECRED
    53    58     1
SMALL
NO_CHARGES
****
Generated from CSD

@<TRIPOS>ATOM
      1 O1         6.2323    5.6700    0.5481 O.3       1 RES1    0.0000
      2 N1        10.2526    5.2003    0.4670 N.3       1 RES1    0.0000
      3 C1         9.5857    4.2365   -0.4670 C.3       1 RES1    0.0000
      4 O2         6.5631    2.6511    0.7345 O.2       1 RES1    0.0000
      5 C2         7.3672    5.4469   -0.2844 C.3       1 RES1    0.0000
      6 N2         9.8953    4.6861    1.7553 N.am      1 RES1    0.0000
      7 O3         7.5418    2.4749   -1.1849 O.2       1 RES1    0.0000
      8 C3         8.2016    4.2211    0.2101 C.3       1 RES1    0.0000
      9 N3         7.3913    2.9951   -0.0985 N.pl3     1 RES1    0.0000
     10 O4        10.7422    3.3040    3.3645 O.2       1 RES1    0.0000
     11 C4         8.4910    4.3139    1.7341 C.3       1 RES1    0.0000
     12 C5         7.6231    5.2977    2.4760 C.ar      1 RES1    0.0000
     13 C6         7.8845    5.5737    3.8126 C.ar      1 RES1    0.0000
     14 H1         8.5888    5.1443    4.2436 H         1 RES1    0.0000
     15 C7         7.1131    6.4761    4.5048 C.ar      1 RES1    0.0000
     16 H2         7.3044    6.6640    5.3945 H         1 RES1    0.0000
     17 C8         6.0515    7.1060    3.8796 C.ar      1 RES1    0.0000
     18 H3         5.5308    7.7151    4.3514 H         1 RES1    0.0000
     19 C9         5.7634    6.8351    2.5579 C.ar      1 RES1    0.0000
     20 H4         5.0489    7.2535    2.1359 H         1 RES1    0.0000
     21 C10        6.5588    5.9265    1.8671 C.ar      1 RES1    0.0000
     22 C11       11.7357    5.2304    0.5094 C.3       1 RES1    0.0000
     23 H5        12.0491    6.1258    0.7098 H         1 RES1    0.0000
     24 H6        12.1031    4.9568   -0.3449 H         1 RES1    0.0000
     25 C12       12.1634    4.2627    1.6039 C.3       1 RES1    0.0000
     26 H7        12.5239    3.4471    1.2222 H         1 RES1    0.0000
     27 H8        12.8339    4.6643    2.1790 H         1 RES1    0.0000
     28 C13       10.8975    3.9847    2.3681 C.2       1 RES1    0.0000
     29 C14       10.3065    2.9197   -0.6618 C.ar      1 RES1    0.0000
     30 C15       10.2647    1.8617    0.2343 C.ar      1 RES1    0.0000
     31 H9         9.7124    1.9131    0.9817 H         1 RES1    0.0000
     32 C16       11.0373    0.7259    0.0277 C.ar      1 RES1    0.0000
     33 H10       11.0032    0.0227    0.6351 H         1 RES1    0.0000
     34 C17       11.8506    0.6440   -1.0751 C.ar      1 RES1    0.0000
     35 H11       12.3790   -0.1094   -1.2072 H         1 RES1    0.0000
     36 C18       11.8839    1.6706   -1.9820 C.ar      1 RES1    0.0000
     37 H12       12.4284    1.6064   -2.7329 H         1 RES1    0.0000
     38 C19       11.1117    2.8031   -1.7838 C.ar      1 RES1    0.0000
     39 H13       11.1334    3.4911   -2.4095 H         1 RES1    0.0000
     40 C20        6.8942    5.3453   -1.7115 C.ar      1 RES1    0.0000
     41 C21        7.6150    5.9724   -2.7118 C.ar      1 RES1    0.0000
     42 H14        8.3638    6.4808   -2.4974 H         1 RES1    0.0000
     43 C22        7.2216    5.8434   -4.0337 C.ar      1 RES1    0.0000
     44 H15        7.7126    6.2564   -4.7063 H         1 RES1    0.0000
     45 C23        6.1076    5.1070   -4.3537 C.ar      1 RES1    0.0000
     46 H16        5.8508    5.0165   -5.2436 H         1 RES1    0.0000
     47 C24        5.3764    4.5075   -3.3717 C.ar      1 RES1    0.0000
     48 H17        4.6155    4.0209   -3.5935 H         1 RES1    0.0000
     49 C25        5.7612    4.6188   -2.0487 C.ar      1 RES1    0.0000
     50 H18        5.2595    4.2055   -1.3830 H         1 RES1    0.0000
     51 H19        8.4244    3.4655    2.1508 H         1 RES1    0.0000
     52 H20        7.9874    6.1996   -0.2007 H         1 RES1    0.0000
     53 H21        9.5138    4.6728   -1.3101 H         1 RES1    0.0000
@<TRIPOS>BOND
     1    1    5 1
     2    2    3 1
     3    3    8 1
     4    4    9 2
     5    5    8 1
     6    6    2 1
     7    7    9 2
     8    8    9 1
     9   10   28 2
    10   11    6 1
    11   12   11 1
    12   13   12 ar
    13   14   13 1
    14   15   13 ar
    15   16   15 1
    16   17   15 ar
    17   18   17 1
    18   19   17 ar
    19   20   19 1
    20   21    1 1
    21   22    2 1
    22   23   22 1
    23   24   22 1
    24   25   22 1
    25   26   25 1
    26   27   25 1
    27   28    6 1
    28   29    3 1
    29   30   29 ar
    30   31   30 1
    31   32   30 ar
    32   33   32 1
    33   34   32 ar
    34   35   34 1
    35   36   34 ar
    36   37   36 1
    37   38   29 ar
    38   39   38 1
    39   40    5 1
    40   41   40 ar
    41   42   41 1
    42   43   41 ar
    43   44   43 1
    44   45   43 ar
    45   46   45 1
    46   47   45 ar
    47   48   47 1
    48   49   40 ar
    49   50   49 1
    50   51   11 1
    51   52    5 1
    52   53    3 1
    53    8   11 1
    54   12   21 ar
    55   19   21 ar
    56   25   28 1
    57   36   38 ar
    58   47   49 ar
@<TRIPOS>SUBSTRUCTURE
     1 RES1 1

@<TRIPOS>CRYSIN
   8.8430   14.2030   16.6040  90.0000  92.8800  90.0000  14 1

