# MOL2 file generated by ConQuest
# Please check atom types

@<TRIPOS>MOLECULE
VECXIM
    41    44     1
SMALL
NO_CHARGES
****
Generated from CSD

@<TRIPOS>ATOM
      1 N1         0.0539   23.0403    4.0370 N.pl3     1 RES1    0.0000
      2 H1        -0.0544   23.7806    3.6117 H         1 RES1    0.0000
      3 N2         2.0700   21.4726   10.2516 N.2       1 RES1    0.0000
      4 O1        -0.5554   17.7517    2.7805 O.3       1 RES1    0.0000
      5 O2         1.6795   23.9378    7.8778 O.2       1 RES1    0.0000
      6 O3         2.0920   22.8406    9.7709 O.3       1 RES1    0.0000
      7 C1        -1.3277   15.1142    2.7917 C.ar      1 RES1    0.0000
      8 H2        -1.2503   15.5755    3.5951 H         1 RES1    0.0000
      9 C2        -1.5363   13.7476    2.8038 C.ar      1 RES1    0.0000
     10 H3        -1.5873   13.2945    3.6150 H         1 RES1    0.0000
     11 C3        -1.6690   13.0564    1.6301 C.ar      1 RES1    0.0000
     12 H4        -1.8261   12.1392    1.6412 H         1 RES1    0.0000
     13 C4        -1.5694   13.7236    0.4376 C.ar      1 RES1    0.0000
     14 H5        -1.6473   13.2552   -0.3614 H         1 RES1    0.0000
     15 C5        -1.3545   15.0833    0.4155 C.ar      1 RES1    0.0000
     16 H6        -1.2906   15.5263   -0.4001 H         1 RES1    0.0000
     17 C6        -1.2331   15.7985    1.5959 C.ar      1 RES1    0.0000
     18 C7        -1.0516   17.2933    1.5296 C.3       1 RES1    0.0000
     19 H7        -0.4269   17.5200    0.8234 H         1 RES1    0.0000
     20 H8        -1.9005   17.7208    1.3339 H         1 RES1    0.0000
     21 C8        -0.4570   19.1110    2.9740 C.ar      1 RES1    0.0000
     22 C9        -0.7404   20.0610    1.9882 C.ar      1 RES1    0.0000
     23 H9        -1.0200   19.7814    1.1461 H         1 RES1    0.0000
     24 C10       -0.6088   21.4090    2.2512 C.ar      1 RES1    0.0000
     25 H10       -0.8042   22.0467    1.6036 H         1 RES1    0.0000
     26 C11       -0.1799   21.7745    3.5023 C.ar      1 RES1    0.0000
     27 C12        0.1130   20.8453    4.5069 C.ar      1 RES1    0.0000
     28 C13       -0.0410   19.4885    4.2350 C.ar      1 RES1    0.0000
     29 H11        0.1321   18.8505    4.8893 H         1 RES1    0.0000
     30 C14        0.4673   22.9427    5.2971 C.2       1 RES1    0.0000
     31 H12        0.6789   23.6625    5.8464 H         1 RES1    0.0000
     32 C15        0.5372   21.5940    5.6751 C.2       1 RES1    0.0000
     33 C16        0.9048   21.0197    6.8963 C.2       1 RES1    0.0000
     34 H13        0.8099   20.0943    6.9040 H         1 RES1    0.0000
     35 C17        1.3732   21.5184    8.0822 C.2       1 RES1    0.0000
     36 C18        1.6928   22.8748    8.4690 C.2       1 RES1    0.0000
     37 C19        1.6591   20.7536    9.2592 C.2       1 RES1    0.0000
     38 C20        1.5360   19.2781    9.4017 C.3       1 RES1    0.0000
     39 H14        1.8544   19.0118   10.2682 H         1 RES1    0.0000
     40 H15        2.0579   18.8465    8.7220 H         1 RES1    0.0000
     41 H16        0.6149   19.0237    9.3089 H         1 RES1    0.0000
@<TRIPOS>BOND
     1    1    2 1
     2    3    6 1
     3    4   18 1
     4    5   36 2
     5    6   36 1
     6    7    8 1
     7    9    7 ar
     8   10    9 1
     9   11    9 ar
    10   12   11 1
    11   13   11 ar
    12   14   13 1
    13   15   13 ar
    14   16   15 1
    15   17    7 ar
    16   18   17 1
    17   19   18 1
    18   20   18 1
    19   21    4 1
    20   22   21 ar
    21   23   22 1
    22   24   22 ar
    23   25   24 1
    24   26    1 1
    25   27   26 ar
    26   28   21 ar
    27   29   28 1
    28   30    1 1
    29   31   30 1
    30   32   27 1
    31   33   32 1
    32   34   33 1
    33   35   33 2
    34   36   35 1
    35   37    3 2
    36   38   37 1
    37   39   38 1
    38   40   38 1
    39   41   38 1
    40   15   17 ar
    41   24   26 ar
    42   27   28 ar
    43   30   32 2
    44   35   37 1
@<TRIPOS>SUBSTRUCTURE
     1 RES1 1

@<TRIPOS>CRYSIN
   7.3056   19.6810   11.4450  90.0000 105.0630  90.0000 231 1

