# MOL2 file generated by ConQuest
# Please check atom types

@<TRIPOS>MOLECULE
VEDQAZ
    62    62     3
SMALL
NO_CHARGES
****
Generated from CSD

@<TRIPOS>ATOM
      1 O1         0.4282    5.9355    3.7577 O.2       1 RES1    0.0000
      2 N1        -1.4383    5.6282    7.2439 N.3       1 RES1    0.0000
      3 N2         0.0240    5.8680    4.9239 N.2       1 RES1    0.0000
      4 N3        -0.3432    2.7383    3.6650 N.1       1 RES1    0.0000
      5 C1        -0.9671    4.5470    6.6794 C.2       1 RES1    0.0000
      6 C2        -1.0711    3.2668    7.3970 C.ar      1 RES1    0.0000
      7 C3        -0.2348    2.1879    7.1065 C.ar      1 RES1    0.0000
      8 C4        -0.3669    1.0066    7.8125 C.ar      1 RES1    0.0000
      9 C5        -1.3082    0.8921    8.8132 C.ar      1 RES1    0.0000
     10 C6        -2.1273    1.9687    9.1335 C.ar      1 RES1    0.0000
     11 C7        -2.0085    3.1644    8.4349 C.ar      1 RES1    0.0000
     12 C8        -2.8617    4.3613    8.7370 C.3       1 RES1    0.0000
     13 C9        -2.0798    5.6557    8.5831 C.3       1 RES1    0.0000
     14 C10       -0.3806    4.6441    5.3683 C.2       1 RES1    0.0000
     15 C11       -3.0387    6.8408    8.6129 C.3       1 RES1    0.0000
     16 C12       -0.9909    5.7963    9.6359 C.3       1 RES1    0.0000
     17 C13       -0.3575    3.5389    4.4769 C.1       1 RES1    0.0000
     18 H1        -1.2392    6.4107    6.8201 H         1 RES1    0.0000
     19 H2         0.4055    2.2599    6.4642 H         1 RES1    0.0000
     20 H3         0.2213    0.2613    7.6312 H         1 RES1    0.0000
     21 H4        -1.4245    0.0461    9.2866 H         1 RES1    0.0000
     22 H5        -2.7307    1.9217    9.8494 H         1 RES1    0.0000
     23 H6        -3.1735    4.3199    9.6342 H         1 RES1    0.0000
     24 H7        -3.6498    4.3922    8.0368 H         1 RES1    0.0000
     25 H8        -3.5015    6.8257    9.4439 H         1 RES1    0.0000
     26 H9        -2.5754    7.6559    8.4672 H         1 RES1    0.0000
     27 H10       -3.7003    6.7181    7.9292 H         1 RES1    0.0000
     28 H11       -0.3713    5.0424    9.5846 H         1 RES1    0.0000
     29 H12       -0.5043    6.6720    9.4604 H         1 RES1    0.0000
     30 H13       -1.4062    5.8572   10.5033 H         1 RES1    0.0000
     31 O2        -0.0716    7.0072    5.5869 Du        3 SUP3    0.0000
     32 O3        -0.8505    8.4203    6.6124 O.2       2 RES2    0.0000
     33 N4         0.4381    9.8872    4.9810 N.3       2 RES2    0.0000
     34 N5        -1.0994    9.4567    7.3482 N.2       2 RES2    0.0000
     35 N6        -1.0417   12.5339    8.6170 N.1       2 RES2    0.0000
     36 C14       -0.0904   10.9012    5.6067 C.2       2 RES2    0.0000
     37 C15       -0.0222   12.2327    4.9744 C.ar      2 RES2    0.0000
     38 C16       -0.9459   13.2378    5.2574 C.ar      2 RES2    0.0000
     39 C17       -0.8708   14.4518    4.5878 C.ar      2 RES2    0.0000
     40 C18        0.1237   14.6598    3.6410 C.ar      2 RES2    0.0000
     41 C19        1.0320   13.6595    3.3463 C.ar      2 RES2    0.0000
     42 C20        0.9657   12.4393    4.0002 C.ar      2 RES2    0.0000
     43 C21        1.9176   11.3198    3.7105 C.3       2 RES2    0.0000
     44 C22        1.1951    9.9708    3.7088 C.3       2 RES2    0.0000
     45 C23       -0.7355   10.6617    6.8780 C.2       2 RES2    0.0000
     46 C24        2.1873    8.8240    3.6989 C.3       2 RES2    0.0000
     47 C25        0.2070    9.8574    2.5501 C.3       2 RES2    0.0000
     48 C26       -0.9220   11.7160    7.8208 C.1       2 RES2    0.0000
     49 H14        0.3252    9.1471    5.3054 H         2 RES2    0.0000
     50 H15       -1.7337   13.0519    5.9014 H         2 RES2    0.0000
     51 H16       -1.5194   15.1273    4.7674 H         2 RES2    0.0000
     52 H17        0.0531   15.5270    3.1949 H         2 RES2    0.0000
     53 H18        1.7440   13.7899    2.6569 H         2 RES2    0.0000
     54 H19        2.3809   11.4270    2.8803 H         2 RES2    0.0000
     55 H20        2.6223   11.2671    4.3205 H         2 RES2    0.0000
     56 H21        2.8595    8.9011    4.4529 H         2 RES2    0.0000
     57 H22        1.7388    7.9480    3.7660 H         2 RES2    0.0000
     58 H23        2.6635    8.8396    2.8721 H         2 RES2    0.0000
     59 H24        0.6633    9.9312    1.7216 H         2 RES2    0.0000
     60 H25       -0.4879   10.5615    2.5989 H         2 RES2    0.0000
     61 H26       -0.2959    9.0549    2.6320 H         2 RES2    0.0000
     62 O4        -1.3555    9.5314    8.5549 Du        3 SUP3    0.0000
@<TRIPOS>BOND
     1    1    3 2
     2    2    5 1
     3    3   14 1
     4    4   17 3
     5    5    6 1
     6    6    7 ar
     7    7    8 ar
     8    8    9 ar
     9    9   10 ar
    10   10   11 ar
    11   11    6 ar
    12   12   11 1
    13   13    2 1
    14   14    5 2
    15   15   13 1
    16   16   13 1
    17   17   14 1
    18   18    2 1
    19   19    7 1
    20   20    8 1
    21   21    9 1
    22   22   10 1
    23   23   12 1
    24   24   12 1
    25   25   15 1
    26   26   15 1
    27   27   15 1
    28   28   16 1
    29   29   16 1
    30   30   16 1
    31   32   34 2
    32   33   36 1
    33   34   45 1
    34   35   48 3
    35   36   37 1
    36   37   38 ar
    37   38   39 ar
    38   39   40 ar
    39   40   41 ar
    40   41   42 ar
    41   42   37 ar
    42   43   42 1
    43   44   33 1
    44   45   36 2
    45   46   44 1
    46   47   44 1
    47   48   45 1
    48   49   33 1
    49   50   38 1
    50   51   39 1
    51   52   40 1
    52   53   41 1
    53   54   43 1
    54   55   43 1
    55   56   46 1
    56   57   46 1
    57   58   46 1
    58   59   47 1
    59   60   47 1
    60   61   47 1
    61   12   13 1
    62   43   44 1
@<TRIPOS>SUBSTRUCTURE
     1 RES1 1
     2 RES2 32
     3 SUP3 31

@<TRIPOS>CRYSIN
   8.9959   15.3733    9.0789  90.0000 114.2650  90.0000   4 1

