# MOL2 file generated by ConQuest
# Please check atom types

@<TRIPOS>MOLECULE
VEDWAF
    22    24     1
SMALL
NO_CHARGES
****
Generated from CSD

@<TRIPOS>ATOM
      1 O1         6.7826    8.3092    3.3514 O.2       1 RES1    0.0000
      2 O2         3.2539    5.8620    4.2785 O.2       1 RES1    0.0000
      3 N1         6.2810    7.0298    7.5678 N.pl3     1 RES1    0.0000
      4 N2         7.4187    7.7859    7.4066 N.2       1 RES1    0.0000
      5 N3         7.5624    8.1065    6.1497 N.2       1 RES1    0.0000
      6 C1         6.5176    7.5547    5.4970 C.ar      1 RES1    0.0000
      7 N4         6.1353    7.6663    4.1932 N.pl3     1 RES1    0.0000
      8 N5         5.0022    7.0796    3.7735 N.ar      1 RES1    0.0000
      9 N6         4.2814    6.3908    4.7342 N.pl3     1 RES1    0.0000
     10 N7         4.5417    6.2563    6.0304 N.ar      1 RES1    0.0000
     11 C2         5.6832    6.8746    6.3611 C.ar      1 RES1    0.0000
     12 C3         5.9270    6.5294    8.8618 C.ar      1 RES1    0.0000
     13 C4         4.7289    5.8517    9.0409 C.ar      1 RES1    0.0000
     14 H1         4.1355    5.7068    8.3130 H         1 RES1    0.0000
     15 C5         4.4223    5.3893   10.3253 C.ar      1 RES1    0.0000
     16 H2         3.6076    4.9238   10.4738 H         1 RES1    0.0000
     17 C6         5.2901    5.6007   11.3850 C.ar      1 RES1    0.0000
     18 H3         5.0700    5.2824   12.2526 H         1 RES1    0.0000
     19 C7         6.4814    6.2800   11.1730 C.ar      1 RES1    0.0000
     20 H4         7.0747    6.4257   11.8997 H         1 RES1    0.0000
     21 C8         6.8164    6.7479    9.9102 C.ar      1 RES1    0.0000
     22 H5         7.6350    7.2071    9.7639 H         1 RES1    0.0000
@<TRIPOS>BOND
     1    1    7 1
     2    2    9 1
     3    3    4 1
     4    4    5 2
     5    5    6 1
     6    6    7 ar
     7    7    8 ar
     8    8    9 ar
     9    9   10 ar
    10   10   11 ar
    11   11    3 1
    12   12    3 1
    13   13   12 ar
    14   14   13 1
    15   15   13 ar
    16   16   15 1
    17   17   15 ar
    18   18   17 1
    19   19   17 ar
    20   20   19 1
    21   21   12 ar
    22   22   21 1
    23    6   11 ar
    24   19   21 ar
@<TRIPOS>SUBSTRUCTURE
     1 RES1 1

@<TRIPOS>CRYSIN
   5.6257    7.9173   20.7580  90.0000  90.6780  90.0000 231 1

