# MOL2 file generated by ConQuest
# Please check atom types

@<TRIPOS>MOLECULE
VEFBUF
    31    33     1
SMALL
NO_CHARGES
****
Generated from CSD

@<TRIPOS>ATOM
      1 O1         1.7033    2.5450    4.9427 O.2       1 RES1    0.0000
      2 O2         5.7428    0.1204    8.1958 O.3       1 RES1    0.0000
      3 N1         4.2737    1.2562    5.9393 N.3       1 RES1    0.0000
      4 O3         1.0580    4.3771    5.9633 O.2       1 RES1    0.0000
      5 N2         3.2159    4.3524    7.5680 N.2       1 RES1    0.0000
      6 N3         4.9275    2.9181    7.5226 N.pl3     1 RES1    0.0000
      7 N4         1.8484    3.4207    5.8225 N.pl3     1 RES1    0.0000
      8 C1         3.2686    0.2573    5.7265 C.ar      1 RES1    0.0000
      9 C2         2.9569    3.3364    6.6675 C.2       1 RES1    0.0000
     10 C3         2.1651    0.1383    6.5776 C.ar      1 RES1    0.0000
     11 H1         2.1035    0.7786    7.2791 H         1 RES1    0.0000
     12 C4         1.2280   -0.8547    6.3625 C.ar      1 RES1    0.0000
     13 H2         0.4455   -0.9362    7.0048 H         1 RES1    0.0000
     14 C5         1.3681   -1.7514    5.3085 C.ar      1 RES1    0.0000
     15 H3         0.7341   -2.4410    5.1461 H         1 RES1    0.0000
     16 C6         4.0072    2.4091    6.6285 C.2       1 RES1    0.0000
     17 C7         4.4020    4.0841    8.0402 C.2       1 RES1    0.0000
     18 H4         4.9363    4.6045    8.7103 H         1 RES1    0.0000
     19 C8         6.2744    2.3868    7.7601 C.3       1 RES1    0.0000
     20 H5         6.4484    2.3804    8.7160 H         1 RES1    0.0000
     21 H6         6.9143    2.9866    7.3271 H         1 RES1    0.0000
     22 C9         6.3682    0.9573    7.2333 C.3       1 RES1    0.0000
     23 H7         7.3660    0.6628    7.1168 H         1 RES1    0.0000
     24 C10        5.7014    0.8740    5.8614 C.3       1 RES1    0.0000
     25 H8         6.1911    1.4778    5.1953 H         1 RES1    0.0000
     26 H9         5.7598   -0.0364    5.5108 H         1 RES1    0.0000
     27 C11        3.4127   -0.6296    4.6562 C.ar      1 RES1    0.0000
     28 H10        4.1928   -0.5456    4.0579 H         1 RES1    0.0000
     29 C12        2.4653   -1.6306    4.4740 C.ar      1 RES1    0.0000
     30 H11        2.6117   -2.2160    3.7722 H         1 RES1    0.0000
     31 H12        5.4931   -0.7409    7.8987 H         1 RES1    0.0000
@<TRIPOS>BOND
     1    1    7 2
     2    2   22 1
     3    3    8 1
     4    4    7 2
     5    5    9 1
     6    6   16 1
     7    7    9 1
     8    8   10 ar
     9    9   16 2
    10   10   11 1
    11   12   10 ar
    12   13   12 1
    13   14   12 ar
    14   15   14 1
    15   16    3 1
    16   17    5 2
    17   18   17 1
    18   19    6 1
    19   20   19 1
    20   21   19 1
    21   22   19 1
    22   23   22 1
    23   24    3 1
    24   25   24 1
    25   26   24 1
    26   27    8 ar
    27   28   27 1
    28   29   14 ar
    29   30   29 1
    30   31    2 1
    31    6   17 1
    32   22   24 1
    33   27   29 ar
@<TRIPOS>SUBSTRUCTURE
     1 RES1 1

@<TRIPOS>CRYSIN
  15.6857   13.4712   11.4308  90.0000  90.0000  90.0000  60 1

