# MOL2 file generated by ConQuest
# Please check atom types

@<TRIPOS>MOLECULE
VEGBIS
    14    14     1
SMALL
NO_CHARGES
****
Generated from CSD

@<TRIPOS>ATOM
      1 C1         5.7091   14.7051    2.3627 C.ar      1 RES1    0.0000
      2 C2         6.0410   15.9623    1.8913 C.ar      1 RES1    0.0000
      3 C3         6.6279   16.8811    2.7465 C.ar      1 RES1    0.0000
      4 C4         6.8775   16.4991    4.0481 C.ar      1 RES1    0.0000
      5 C5         6.6111   15.2539    4.5037 C.ar      1 RES1    0.0000
      6 C6         5.9996   14.3448    3.6502 C.ar      1 RES1    0.0000
      7 C7         5.0600   13.7259    1.4748 C.2       1 RES1    0.0000
      8 N1         5.8477   13.1069    0.6476 N.2       1 RES1    0.0000
      9 O1         5.1060   12.1833   -0.1663 O.3       1 RES1    0.0000
     10 N2         3.7462   13.4986    1.5769 N.3       1 RES1    0.0000
     11 C8         2.8569   14.1731    2.5027 C.3       1 RES1    0.0000
     12 N3         7.4194   17.4904    4.9727 N.pl3     1 RES1    0.0000
     13 O2         7.4420   18.6509    4.6507 O.2       1 RES1    0.0000
     14 O3         7.8345   17.0866    6.0736 O.2       1 RES1    0.0000
@<TRIPOS>BOND
     1    1    2 ar
     2    2    3 ar
     3    3    4 ar
     4    4    5 ar
     5    5    6 ar
     6    6    1 ar
     7    7    1 1
     8    8    7 2
     9    9    8 1
    10   10    7 1
    11   11   10 1
    12   12    4 1
    13   13   12 2
    14   14   12 2
@<TRIPOS>SUBSTRUCTURE
     1 RES1 1

@<TRIPOS>CRYSIN
   6.6990   24.1780    6.0750  90.0000 106.2000  90.0000  14 2

