# MOL2 file generated by ConQuest
# Please check atom types

@<TRIPOS>MOLECULE
VEGGUJ
    20    20     1
SMALL
NO_CHARGES
****
Generated from CSD

@<TRIPOS>ATOM
      1 O1         1.1826    3.6891    3.3730 O.2       1 RES1    0.0000
      2 N1        -0.0347    2.1190    4.5360 N.am      1 RES1    0.0000
      3 N2        -1.2754    0.4745    3.3730 N.3       1 RES1    0.0000
      4 O2         0.6760    3.7584    5.9068 O.2       1 RES1    0.0000
      5 O3        -3.0515    1.3369    4.4537 O.2       1 RES1    0.0000
      6 O4         0.6910    1.7028    6.5976 O.2       1 RES1    0.0000
      7 C1        -0.5174    0.7077    4.5738 C.3       1 RES1    0.0000
      8 N3        -2.5569    1.1198    3.3730 N.pl3     1 RES1    0.0000
      9 C2         0.4695    2.7311    3.3730 C.2       1 RES1    0.0000
     10 N4         0.5024    2.5713    5.7732 N.pl3     1 RES1    0.0000
     11 H1        -1.0611    0.6212    5.3347 H         1 RES1    0.0000
     12 H2         0.2647    0.0623    4.5562 H         1 RES1    0.0000
     13 N1G       -0.0347    2.1190    2.2100 N.am      1 RES1    0.0000
     14 C1G       -0.5174    0.7077    2.1722 C.3       1 RES1    0.0000
     15 O3G       -3.0515    1.3369    2.2923 O.2       1 RES1    0.0000
     16 N4G        0.5024    2.5713    0.9728 N.pl3     1 RES1    0.0000
     17 H1G       -1.0611    0.6212    1.4113 H         1 RES1    0.0000
     18 H2G        0.2647    0.0623    2.1898 H         1 RES1    0.0000
     19 O2G        0.6760    3.7584    0.8392 O.2       1 RES1    0.0000
     20 O4G        0.6910    1.7028    0.1484 O.2       1 RES1    0.0000
@<TRIPOS>BOND
     1    1    9 2
     2    2    7 1
     3    3    7 1
     4    4   10 2
     5    5    8 2
     6    6   10 2
     7    7   11 1
     8    8    3 1
     9    9    2 1
    10   10    2 1
    11   12    7 1
    12   13    9 1
    13   14    3 1
    14   15    8 2
    15   16   13 1
    16   17   14 1
    17   18   14 1
    18   19   16 2
    19   20   16 2
    20   13   14 1
@<TRIPOS>SUBSTRUCTURE
     1 RES1 1

@<TRIPOS>CRYSIN
   5.9880   10.0520   13.4920  90.0000  90.0000  90.0000  62 2

