# MOL2 file generated by ConQuest
# Please check atom types

@<TRIPOS>MOLECULE
VEGGIA
    52    48     2
SMALL
USER_CHARGES
****
Generated from CSD

@<TRIPOS>ATOM
      1 N1         4.5454    1.4174    2.4349 N.pl3     1 RES1    1.0000
      2 C1         5.7429    1.2630    1.8044 C.ar      1 RES1    0.0000
      3 N2         6.0401    1.9917    0.7379 N.ar      1 RES1    0.0000
      4 C2         5.1691    2.8550    0.2952 C.ar      1 RES1    0.0000
      5 C3         3.9071    3.0576    0.8359 C.ar      1 RES1    0.0000
      6 C4         2.9279    4.0539    0.2756 C.3       1 RES1    0.0000
      7 H1         2.5451    3.6984   -0.5414 H         1 RES1    0.0000
      8 H2         3.3996    4.8705    0.0520 H         1 RES1    0.0000
      9 C5         1.4839    3.6949    0.7113 C.3       1 RES1    0.0000
     10 H3         0.8727    4.3975    0.4374 H         1 RES1    0.0000
     11 H4         1.2074    2.8680    0.2877 H         1 RES1    0.0000
     12 C6         1.4526    3.5408    2.2114 C.3       1 RES1    0.0000
     13 H5         0.5368    3.4129    2.5044 H         1 RES1    0.0000
     14 H6         1.7907    4.3502    2.6265 H         1 RES1    0.0000
     15 C7         2.2950    2.3562    2.6518 C.3       1 RES1    0.0000
     16 H7         2.4074    2.8259    3.4928 H         1 RES1    0.0000
     17 H8         1.9861    1.4576    2.8474 H         1 RES1    0.0000
     18 C8         3.6055    2.2884    1.9399 C.ar      1 RES1    0.0000
     19 O1         4.2564    0.7434    3.5381 O.2       1 RES1   -1.0000
     20 C9         6.7998    0.3043    2.3388 C.3       1 RES1    0.0000
     21 C10        6.2416   -1.1165    2.5543 C.3       1 RES1    0.0000
     22 H9         5.6032   -1.1037    3.2710 H         1 RES1    0.0000
     23 H10        6.9606   -1.7117    2.7762 H         1 RES1    0.0000
     24 H11        5.8142   -1.4174    1.7496 H         1 RES1    0.0000
     25 C11        7.3334    0.8600    3.6601 C.3       1 RES1    0.0000
     26 H12        7.7190    1.7257    3.5109 H         1 RES1    0.0000
     27 H13        8.0038    0.2681    4.0088 H         1 RES1    0.0000
     28 H14        6.6131    0.9338    4.2902 H         1 RES1    0.0000
     29 C12        7.9507    0.2139    1.3394 C.3       1 RES1    0.0000
     30 H15        7.6193   -0.1104    0.4990 H         1 RES1    0.0000
     31 H16        8.6192   -0.3889    1.6742 H         1 RES1    0.0000
     32 H17        8.3378    1.0845    1.2167 H         1 RES1    0.0000
     33 O2         5.4719    3.6397   -0.7680 O.3       1 RES1    0.0000
     34 C13        7.5396    2.0467   -3.3337 C.ar      1 RES1    0.0000
     35 C14        6.5204    2.2548   -2.4119 C.ar      1 RES1    0.0000
     36 H18        5.7990    1.6679   -2.3760 H         1 RES1    0.0000
     37 C15        6.5791    3.3387   -1.5438 C.ar      1 RES1    0.0000
     38 C16        7.6570    4.2147   -1.5977 C.ar      1 RES1    0.0000
     39 H19        7.6960    4.9406   -1.0171 H         1 RES1    0.0000
     40 C17        8.6762    4.0066   -2.5195 C.ar      1 RES1    0.0000
     41 H20        9.3976    4.5919   -2.5554 H         1 RES1    0.0000
     42 C18        8.6176    2.9227   -3.3876 C.ar      1 RES1    0.0000
     43 H21        9.2996    2.7839   -4.0046 H         1 RES1    0.0000
     44 N3         7.4457    0.9666   -4.1845 N.3       1 RES1    0.0000
     45 H22        6.7682    0.4397   -4.1373 H         1 RES1    0.0000
     46 H23        8.0655    0.8199   -4.7626 H         1 RES1    0.0000
     47 C19        1.7861    4.3835    1.2697 Du        2 SUP2    0.0000
     48 H24        2.1211    4.9318    1.9959 Du        2 SUP2    0.0000
     49 H25        1.0787    4.8705    0.8175 Du        2 SUP2    0.0000
     50 C20        1.2588    3.0747    1.8048 Du        2 SUP2    0.0000
     51 H26        1.0011    2.5053    1.0627 Du        2 SUP2    0.0000
     52 H27        0.4677    3.2429    2.3410 Du        2 SUP2    0.0000
@<TRIPOS>BOND
     1    1    2 ar
     2    2    3 ar
     3    3    4 ar
     4    4    5 ar
     5    5    6 1
     6    6    7 1
     7    8    6 1
     8    9    6 1
     9   10    9 1
    10   11    9 1
    11   12    9 1
    12   13   12 1
    13   14   12 1
    14   15   12 1
    15   16   15 1
    16   17   15 1
    17   18    1 ar
    18   19    1 1
    19   20    2 1
    20   21   20 1
    21   22   21 1
    22   23   21 1
    23   24   21 1
    24   25   20 1
    25   26   25 1
    26   27   25 1
    27   28   25 1
    28   29   20 1
    29   30   29 1
    30   31   29 1
    31   32   29 1
    32   33    4 1
    33   34   35 ar
    34   35   36 1
    35   37   33 1
    36   38   37 ar
    37   39   38 1
    38   40   38 ar
    39   41   40 1
    40   42   34 ar
    41   43   42 1
    42   44   34 1
    43   45   44 1
    44   46   44 1
    45    5   18 ar
    46   15   18 1
    47   35   37 ar
    48   40   42 ar
@<TRIPOS>SUBSTRUCTURE
     1 RES1 1
     2 SUP2 47

@<TRIPOS>CRYSIN
   9.1151   17.5198   11.3989  90.0000 111.3510  90.0000  14 1

