# MOL2 file generated by ConQuest
# Please check atom types

@<TRIPOS>MOLECULE
VEGHEU
    18    18     1
SMALL
NO_CHARGES
****
Generated from CSD

@<TRIPOS>ATOM
      1 O1         0.3519    6.2809    1.9550 O.2       1 RES1    0.0000
      2 N1         0.4473    5.2712    4.0312 N.am      1 RES1    0.0000
      3 O2         0.1612    3.0601    4.1856 O.2       1 RES1    0.0000
      4 N2         0.6238    3.9622    3.5216 N.pl3     1 RES1    0.0000
      5 O3         1.2482    3.8533    2.4905 O.2       1 RES1    0.0000
      6 C1         0.2725    6.3418    3.1480 C.2       1 RES1    0.0000
      7 C2        -0.0892    7.6211    3.8536 C.3       1 RES1    0.0000
      8 H1         0.3107    8.3236    3.3857 H         1 RES1    0.0000
      9 H2        -1.0766    7.6872    3.8453 H         1 RES1    0.0000
     10 C2F       -0.0892    5.3399    5.3944 C.3       1 RES1    0.0000
     11 N1F        0.4473    7.6898    5.2168 N.am      1 RES1    0.0000
     12 C1F        0.2725    6.6192    6.1000 C.2       1 RES1    0.0000
     13 H1F        0.3107    4.6374    5.8623 H         1 RES1    0.0000
     14 H2F       -1.0766    5.2738    5.4027 H         1 RES1    0.0000
     15 N2F        0.6238    8.9988    5.7264 N.pl3     1 RES1    0.0000
     16 O1F        0.3519    6.6801    7.2930 O.2       1 RES1    0.0000
     17 O2F        0.1612    9.9009    5.0624 O.2       1 RES1    0.0000
     18 O3F        1.2482    9.1077    6.7575 O.2       1 RES1    0.0000
@<TRIPOS>BOND
     1    1    6 2
     2    2    4 1
     3    3    4 2
     4    4    5 2
     5    6    2 1
     6    7    6 1
     7    8    7 1
     8    9    7 1
     9   10    2 1
    10   11    7 1
    11   12   10 1
    12   13   10 1
    13   14   10 1
    14   15   11 1
    15   16   12 2
    16   17   15 2
    17   18   15 2
    18   11   12 1
@<TRIPOS>SUBSTRUCTURE
     1 RES1 1

@<TRIPOS>CRYSIN
   6.1520   12.9610    9.2480  90.0000  90.0000  90.0000  41 6

