# MOL2 file generated by ConQuest
# Please check atom types

@<TRIPOS>MOLECULE
VEGJOG
    35    36     1
SMALL
NO_CHARGES
****
Generated from CSD

@<TRIPOS>ATOM
      1 O1         2.6758    7.6067   -4.3391 O.2       1 RES1    0.0000
      2 O2         4.4039    7.1811   -3.5547 O.2       1 RES1    0.0000
      3 O3         4.2152    4.8389    0.6170 O.3       1 RES1    0.0000
      4 O4         2.3697    3.6256    1.2151 O.2       1 RES1    0.0000
      5 O5         3.5950    7.4468    1.5003 O.3       1 RES1    0.0000
      6 O6         1.5448    8.0719    1.0435 O.2       1 RES1    0.0000
      7 O7         6.1763    6.8638    0.6170 O.3       1 RES1    0.0000
      8 O8         7.0847    5.7881   -1.1530 O.2       1 RES1    0.0000
      9 O9         4.5575    9.7350   -0.7877 O.3       1 RES1    0.0000
     10 O10        3.9439   10.9360    0.9937 O.2       1 RES1    0.0000
     11 O11        6.9636    9.2253   -1.8844 O.3       1 RES1    0.0000
     12 O12        9.1560    9.0623   -1.8738 O.2       1 RES1    0.0000
     13 N1         3.1672    6.9277   -3.4975 N.pl3     1 RES1    0.0000
     14 C1         1.9133    5.1060   -3.3831 C.3       1 RES1    0.0000
     15 C2         2.9087    4.3669   -4.2247 C.2       1 RES1    0.0000
     16 C3         3.5898    3.6770   -3.4158 C.2       1 RES1    0.0000
     17 C4         3.0974    3.8854   -1.9857 C.3       1 RES1    0.0000
     18 C5         3.5822    5.3160   -1.6588 C.3       1 RES1    0.0000
     19 C6         2.7132    6.1049   -2.5659 C.3       1 RES1    0.0000
     20 C7         1.6498    4.0291   -2.1818 C.3       1 RES1    0.0000
     21 C8         3.4025    5.6739   -0.1798 C.3       1 RES1    0.0000
     22 C9         3.5934    3.9070    1.3647 C.2       1 RES1    0.0000
     23 C10        4.4781    3.0864    2.2881 C.3       1 RES1    0.0000
     24 C11        3.8074    7.1586    0.1144 C.3       1 RES1    0.0000
     25 C12        2.3665    7.9516    1.7896 C.2       1 RES1    0.0000
     26 C13        2.3607    8.3225    3.1543 C.3       1 RES1    0.0000
     27 C14        5.2666    7.5751   -0.2206 C.3       1 RES1    0.0000
     28 C15        7.0820    6.0549    0.0490 C.2       1 RES1    0.0000
     29 C16        7.9352    5.3907    1.0296 C.3       1 RES1    0.0000
     30 C17        5.5671    9.0458   -0.0082 C.3       1 RES1    0.0000
     31 C18        3.8373   10.6480   -0.1471 C.2       1 RES1    0.0000
     32 C19        2.9334   11.3304   -1.1277 C.3       1 RES1    0.0000
     33 C20        6.8736    9.4458   -0.4821 C.3       1 RES1    0.0000
     34 C21        8.0535    8.9949   -2.4515 C.2       1 RES1    0.0000
     35 C22        8.0368    8.8859   -3.8815 C.3       1 RES1    0.0000
@<TRIPOS>BOND
     1    1   13 2
     2    2   13 2
     3    3   21 1
     4    4   22 2
     5    5   24 1
     6    6   25 2
     7    7   27 1
     8    8   28 2
     9    9   30 1
    10   10   31 2
    11   11   33 1
    12   12   34 2
    13   13   19 1
    14   14   15 1
    15   15   16 2
    16   16   17 1
    17   17   18 1
    18   18   19 1
    19   19   14 1
    20   20   14 1
    21   21   18 1
    22   22    3 1
    23   23   22 1
    24   24   21 1
    25   25    5 1
    26   26   25 1
    27   27   24 1
    28   28    7 1
    29   29   28 1
    30   30   27 1
    31   31    9 1
    32   32   31 1
    33   33   30 1
    34   34   11 1
    35   35   34 1
    36   17   20 1
@<TRIPOS>SUBSTRUCTURE
     1 RES1 1

@<TRIPOS>CRYSIN
   8.6800    9.7600    8.6950  98.6900 103.1300 112.0900   1 1

