# MOL2 file generated by ConQuest
# Please check atom types

@<TRIPOS>MOLECULE
VEGJIA
    64    65     1
SMALL
NO_CHARGES
****
Generated from CSD

@<TRIPOS>ATOM
      1 O1        -2.9950    6.0326    5.7891 O.2       1 RES1    0.0000
      2 O2        -4.2949    7.6373    6.0491 O.2       1 RES1    0.0000
      3 O3        -0.8580    5.1305    9.9728 O.3       1 RES1    0.0000
      4 O4         1.0734    6.1557   10.4255 O.2       1 RES1    0.0000
      5 O5         0.7783    4.4200    7.7546 O.3       1 RES1    0.0000
      6 O6         1.4657    6.1666    6.5746 O.2       1 RES1    0.0000
      7 O7        -1.2654    2.6829    8.5309 O.3       1 RES1    0.0000
      8 O8        -3.3074    3.2157    9.2837 O.2       1 RES1    0.0000
      9 O9        -1.1182    3.5585    5.0355 O.3       1 RES1    0.0000
     10 O10        0.9572    3.1378    4.3836 O.2       1 RES1    0.0000
     11 O11       -3.0818    1.5938    6.0164 O.3       1 RES1    0.0000
     12 O12       -3.2031    1.3960    3.8573 O.2       1 RES1    0.0000
     13 N1        -3.3230    7.0313    6.3546 N.pl3     1 RES1    0.0000
     14 C1        -2.7871    7.2167    9.8473 C.3       1 RES1    0.0000
     15 C2        -1.7494    8.2995   10.0618 C.2       1 RES1    0.0000
     16 C3        -1.8954    9.1906    9.0773 C.2       1 RES1    0.0000
     17 C4        -3.0142    8.7264    8.2164 C.3       1 RES1    0.0000
     18 C5        -2.4371    7.4846    7.4800 C.3       1 RES1    0.0000
     19 C6        -2.3390    6.4127    8.5818 C.3       1 RES1    0.0000
     20 C7        -3.9065    8.0502    9.2427 C.3       1 RES1    0.0000
     21 C8        -0.9510    5.8036    8.6809 C.3       1 RES1    0.0000
     22 C9         0.1844    5.4047   10.7609 C.2       1 RES1    0.0000
     23 C10        0.0923    4.6974   12.0555 C.3       1 RES1    0.0000
     24 C11       -0.5947    4.8298    7.5664 C.3       1 RES1    0.0000
     25 C12        1.7256    5.1772    7.2018 C.2       1 RES1    0.0000
     26 C13        3.0764    4.6756    7.5046 C.3       1 RES1    0.0000
     27 C14       -1.4175    3.5538    7.3991 C.3       1 RES1    0.0000
     28 C15       -2.2870    2.6128    9.4046 C.2       1 RES1    0.0000
     29 C16       -1.9771    1.6624   10.4937 C.3       1 RES1    0.0000
     30 C17       -0.9387    2.7234    6.2273 C.3       1 RES1    0.0000
     31 C18       -0.0871    3.6862    4.1973 C.2       1 RES1    0.0000
     32 C19       -0.4115    4.5821    3.1009 C.3       1 RES1    0.0000
     33 C20       -1.6856    1.4100    6.0364 C.3       1 RES1    0.0000
     34 C21       -3.7593    1.4131    4.9382 C.2       1 RES1    0.0000
     35 C22       -5.1993    1.4380    5.0527 C.3       1 RES1    0.0000
     36 H1        -2.9216    6.6729   10.6409 H         1 RES1    0.0000
     37 H2        -1.0630    8.4802   10.7218 H         1 RES1    0.0000
     38 H3        -1.3053    9.9805    9.0464 H         1 RES1    0.0000
     39 H4        -3.3785    9.4306    7.6337 H         1 RES1    0.0000
     40 H5        -1.5977    7.7028    7.0782 H         1 RES1    0.0000
     41 H6        -2.8877    5.6571    8.3727 H         1 RES1    0.0000
     42 H7        -4.3489    8.6547    9.8455 H         1 RES1    0.0000
     43 H8        -4.6191    7.5142    8.8300 H         1 RES1    0.0000
     44 H9        -0.3103    6.5420    8.6282 H         1 RES1    0.0000
     45 H10        0.8237    4.9467   12.6282 H         1 RES1    0.0000
     46 H11       -0.7241    4.9903   12.5246 H         1 RES1    0.0000
     47 H12        0.0588    3.7813   11.9473 H         1 RES1    0.0000
     48 H13       -0.7585    5.3580    6.7664 H         1 RES1    0.0000
     49 H14        3.7255    5.2629    7.0627 H         1 RES1    0.0000
     50 H15        3.2443    4.6584    8.4082 H         1 RES1    0.0000
     51 H16        3.1829    3.8093    7.1109 H         1 RES1    0.0000
     52 H17       -2.3393    3.8607    7.2782 H         1 RES1    0.0000
     53 H18       -2.6811    1.5860   11.0818 H         1 RES1    0.0000
     54 H19       -1.8013    0.7728   10.0955 H         1 RES1    0.0000
     55 H20       -1.1706    1.9101   10.9418 H         1 RES1    0.0000
     56 H21       -0.0208    2.4897    6.4109 H         1 RES1    0.0000
     57 H22        0.3246    4.6771    2.4755 H         1 RES1    0.0000
     58 H23       -1.1616    4.2487    2.5955 H         1 RES1    0.0000
     59 H24       -0.6346    5.4561    3.4155 H         1 RES1    0.0000
     60 H25       -1.4904    0.8164    6.7764 H         1 RES1    0.0000
     61 H26       -1.4252    0.9987    5.2373 H         1 RES1    0.0000
     62 H27       -5.6325    1.3072    4.2318 H         1 RES1    0.0000
     63 H28       -5.5400    0.8289    5.7046 H         1 RES1    0.0000
     64 H29       -5.4916    2.3432    5.3773 H         1 RES1    0.0000
@<TRIPOS>BOND
     1    1   13 2
     2    2   13 2
     3    3   21 1
     4    4   22 2
     5    5   24 1
     6    6   25 2
     7    7   27 1
     8    8   28 2
     9    9   30 1
    10   10   31 2
    11   11   33 1
    12   12   34 2
    13   13   18 1
    14   14   15 1
    15   15   16 2
    16   16   17 1
    17   17   18 1
    18   18   19 1
    19   19   14 1
    20   20   14 1
    21   21   19 1
    22   22    3 1
    23   23   22 1
    24   24   21 1
    25   25    5 1
    26   26   25 1
    27   27   24 1
    28   28    7 1
    29   29   28 1
    30   30   27 1
    31   31    9 1
    32   32   31 1
    33   33   30 1
    34   34   11 1
    35   35   34 1
    36   36   14 1
    37   37   15 1
    38   38   16 1
    39   39   17 1
    40   40   18 1
    41   41   19 1
    42   42   20 1
    43   43   20 1
    44   44   21 1
    45   45   23 1
    46   46   23 1
    47   47   23 1
    48   48   24 1
    49   49   26 1
    50   50   26 1
    51   51   26 1
    52   52   27 1
    53   53   29 1
    54   54   29 1
    55   55   29 1
    56   56   30 1
    57   57   32 1
    58   58   32 1
    59   59   32 1
    60   60   33 1
    61   61   33 1
    62   62   35 1
    63   63   35 1
    64   64   35 1
    65   17   20 1
@<TRIPOS>SUBSTRUCTURE
     1 RES1 1

@<TRIPOS>CRYSIN
   9.0540   15.5800   10.1380  90.0000 116.2700  90.0000   4 1

