# MOL2 file generated by ConQuest
# Please check atom types

@<TRIPOS>MOLECULE
VEGLUP
    37    38     1
SMALL
NO_CHARGES
****
Generated from CSD

@<TRIPOS>ATOM
      1 O1         0.9832    9.3207    9.7534 O.2       1 RES1    0.0000
      2 O2         3.6280    5.3809    6.1134 O.3       1 RES1    0.0000
      3 O3         1.8650    4.0737    6.4131 O.2       1 RES1    0.0000
      4 O4         0.6653   12.3045    5.9536 O.2       1 RES1    0.0000
      5 O5         0.2883   12.3640    3.8613 O.2       1 RES1    0.0000
      6 N1         2.3936    8.4092    8.2425 N.am      1 RES1    0.0000
      7 H1         3.0795    8.8076    8.5744 H         1 RES1    0.0000
      8 N2         0.2771    7.5337    8.5177 N.am      1 RES1    0.0000
      9 N3         0.6549   11.7878    4.8644 N.pl3     1 RES1    0.0000
     10 C1         1.2230    8.4849    8.8864 C.2       1 RES1    0.0000
     11 C2         2.5365    7.6765    7.0021 C.3       1 RES1    0.0000
     12 H2         3.4895    7.4874    6.8678 H         1 RES1    0.0000
     13 C3         1.8099    6.3509    7.1572 C.2       1 RES1    0.0000
     14 C4         0.6620    6.3532    7.8596 C.2       1 RES1    0.0000
     15 C5        -1.0265    7.6424    9.1757 C.3       1 RES1    0.0000
     16 H3        -1.0101    7.1520   10.0011 H         1 RES1    0.0000
     17 H4        -1.7058    7.2815    8.6018 H         1 RES1    0.0000
     18 H5        -1.2172    8.5663    9.3572 H         1 RES1    0.0000
     19 C6        -0.2670    5.1853    8.0289 C.3       1 RES1    0.0000
     20 H6        -1.0969    5.3689    7.5826 H         1 RES1    0.0000
     21 H7        -0.4316    5.0394    8.9639 H         1 RES1    0.0000
     22 H8         0.1336    4.3999    7.6488 H         1 RES1    0.0000
     23 C7         2.3823    5.1406    6.5492 C.2       1 RES1    0.0000
     24 C8         4.3201    4.2920    5.4818 C.3       1 RES1    0.0000
     25 H9         4.4308    3.5740    6.1105 H         1 RES1    0.0000
     26 H10        5.1825    4.5901    5.1830 H         1 RES1    0.0000
     27 H11        3.8108    3.9820    4.7292 H         1 RES1    0.0000
     28 C9         2.0282    8.4476    5.7853 C.ar      1 RES1    0.0000
     29 C10        2.0284    7.8427    4.5325 C.ar      1 RES1    0.0000
     30 H12        2.3429    6.9715    4.4493 H         1 RES1    0.0000
     31 C11        1.5754    8.5035    3.4131 C.ar      1 RES1    0.0000
     32 H13        1.5869    8.0759    2.5877 H         1 RES1    0.0000
     33 C12        1.1057    9.7923    3.5067 C.ar      1 RES1    0.0000
     34 H14        0.7860   10.2435    2.7589 H         1 RES1    0.0000
     35 C13        1.1245   10.3933    4.7453 C.ar      1 RES1    0.0000
     36 C14        1.5712    9.7507    5.8874 C.ar      1 RES1    0.0000
     37 H15        1.5638   10.1866    6.7090 H         1 RES1    0.0000
@<TRIPOS>BOND
     1    1   10 2
     2    2   23 1
     3    3   23 2
     4    4    9 2
     5    5    9 2
     6    6    7 1
     7    8   10 1
     8    9   35 1
     9   10    6 1
    10   11    6 1
    11   12   11 1
    12   13   11 1
    13   14    8 1
    14   15    8 1
    15   16   15 1
    16   17   15 1
    17   18   15 1
    18   19   14 1
    19   20   19 1
    20   21   19 1
    21   22   19 1
    22   23   13 1
    23   24    2 1
    24   25   24 1
    25   26   24 1
    26   27   24 1
    27   28   11 1
    28   29   28 ar
    29   30   29 1
    30   31   29 ar
    31   32   31 1
    32   33   31 ar
    33   34   33 1
    34   35   33 ar
    35   36   28 ar
    36   37   36 1
    37   13   14 2
    38   35   36 ar
@<TRIPOS>SUBSTRUCTURE
     1 RES1 1

@<TRIPOS>CRYSIN
   7.5489   19.6160    9.5165  90.0000  96.5370  90.0000  14 1

