# MOL2 file generated by ConQuest
# Please check atom types

@<TRIPOS>MOLECULE
VEGPAZ
    34    36     1
SMALL
NO_CHARGES
****
Generated from CSD

@<TRIPOS>ATOM
      1 C1         5.2438    6.4506   16.4800 C.3       1 RES1    0.0000
      2 H1         4.9921    5.5042   16.5240 H         1 RES1    0.0000
      3 C2         6.7392    6.7182   16.2660 C.3       1 RES1    0.0000
      4 H2         7.1574    5.9855   15.7660 H         1 RES1    0.0000
      5 C3         7.2742    6.7833   17.6760 C.3       1 RES1    0.0000
      6 H3         7.9545    7.4865   17.7200 H         1 RES1    0.0000
      7 C4         7.8352    5.5347   18.2820 C.3       1 RES1    0.0000
      8 H4         7.5376    4.7522   17.7920 H         1 RES1    0.0000
      9 H5         8.8051    5.5561   18.2760 H         1 RES1    0.0000
     10 C5         7.3189    5.5103   19.6680 C.3       1 RES1    0.0000
     11 H6         7.8750    6.0741   20.2480 H         1 RES1    0.0000
     12 C6         5.9210    6.1239   19.5100 C.3       1 RES1    0.0000
     13 C7         4.5976    7.2402   15.3420 C.3       1 RES1    0.0000
     14 H7         4.4212    6.6602   14.5860 H         1 RES1    0.0000
     15 H8         3.7620    7.6340   15.6340 H         1 RES1    0.0000
     16 C8         6.7908    8.0065   15.4800 C.2       1 RES1    0.0000
     17 C9         7.5674    3.9279   21.5220 C.3       1 RES1    0.0000
     18 C10        9.0772    4.2464   21.7440 C.3       1 RES1    0.0000
     19 H9         9.6084    3.7122   21.1500 H         1 RES1    0.0000
     20 H10        9.3164    4.0460   22.6520 H         1 RES1    0.0000
     21 H11        9.2375    5.1765   21.5700 H         1 RES1    0.0000
     22 C11        7.2816    2.4982   21.6960 C.3       1 RES1    0.0000
     23 H12        7.8296    1.9864   21.0980 H         1 RES1    0.0000
     24 H13        6.3547    2.3313   21.5020 H         1 RES1    0.0000
     25 H14        7.4680    2.2418   22.6020 H         1 RES1    0.0000
     26 C12        6.7566    4.7786   22.4780 C.3       1 RES1    0.0000
     27 H15        7.0008    5.7006   22.3720 H         1 RES1    0.0000
     28 H16        6.9356    4.5029   23.3820 H         1 RES1    0.0000
     29 H17        5.8216    4.6708   22.2900 H         1 RES1    0.0000
     30 N1         6.1266    7.1771   18.5280 N.3       1 RES1    0.0000
     31 O1         4.9636    7.2097   17.6740 O.3       1 RES1    0.0000
     32 O2         5.5557    8.2873   14.9700 O.3       1 RES1    0.0000
     33 O3         7.6942    8.7493   15.3160 O.2       1 RES1    0.0000
     34 O4         7.2729    4.1996   20.1640 O.3       1 RES1    0.0000
@<TRIPOS>BOND
     1    1    2 1
     2    3    1 1
     3    4    3 1
     4    5    3 1
     5    6    5 1
     6    7    5 1
     7    8    7 1
     8    9    7 1
     9   10    7 1
    10   11   10 1
    11   12   10 1
    12   13    1 1
    13   14   13 1
    14   15   13 1
    15   16    3 1
    16   17   18 1
    17   18   19 1
    18   20   18 1
    19   21   18 1
    20   22   17 1
    21   23   22 1
    22   24   22 1
    23   25   22 1
    24   26   17 1
    25   27   26 1
    26   28   26 1
    27   29   26 1
    28   30    5 1
    29   31    1 1
    30   32   13 1
    31   33   16 2
    32   34   10 1
    33   12   30 1
    34   16   32 1
    35   17   34 1
    36   30   31 1
@<TRIPOS>SUBSTRUCTURE
     1 RES1 1

@<TRIPOS>CRYSIN
   6.2130   10.1760   20.0000  90.0000  90.0000  90.0000  19 1

