# MOL2 file generated by ConQuest
# Please check atom types

@<TRIPOS>MOLECULE
VEHFOG
   151   155     1
SMALL
NO_CHARGES
****
Generated from CSD

@<TRIPOS>ATOM
      1 N1        16.3923    9.3629    7.6790 N.am      1 RES1    0.0000
      2 H1        17.1660    9.4827    7.3236 H         1 RES1    0.0000
      3 N2        14.9859    6.7904    5.5385 N.am      1 RES1    0.0000
      4 H2        14.2606    6.7609    5.9981 H         1 RES1    0.0000
      5 N3        13.4680    4.3432    5.5225 N.am      1 RES1    0.0000
      6 H3        12.9724    4.8609    5.9978 H         1 RES1    0.0000
      7 N4        11.4619    2.9572    7.0277 N.am      1 RES1    0.0000
      8 N5        10.8618    6.1681    8.6008 N.am      1 RES1    0.0000
      9 H4        10.3098    6.4796    9.1824 H         1 RES1    0.0000
     10 N6        12.0522    9.0040    8.6008 N.am      1 RES1    0.0000
     11 H5        12.7985    8.5834    8.6750 H         1 RES1    0.0000
     12 N7        13.8500   11.5315    8.7247 N.am      1 RES1    0.0000
     13 N8        16.2303   13.5199   11.8442 N.3       1 RES1    0.0000
     14 N9         7.8150    7.2127    3.2115 N.pl3     1 RES1    0.0000
     15 O1        15.5548   12.0242    7.3873 O.2       1 RES1    0.0000
     16 O2        14.5419    8.0813    7.7696 O.2       1 RES1    0.0000
     17 O3        16.2560    5.7979    3.9467 O.2       1 RES1    0.0000
     18 O4        14.3839    2.2996    5.3640 O.2       1 RES1    0.0000
     19 O5         9.6056    4.2091    7.1183 O.2       1 RES1    0.0000
     20 O6        12.0083    6.5214    6.7013 O.2       1 RES1    0.0000
     21 O7        10.7939   10.7350    9.3121 O.2       1 RES1    0.0000
     22 O8         8.7713    6.5423    2.8119 O.2       1 RES1    0.0000
     23 O9         6.7450    7.0152    2.6680 O.2       1 RES1    0.0000
     24 O10        5.7502    8.8970    4.2025 O.3       1 RES1    0.0000
     25 H6         5.7537    8.4858    3.4937 H         1 RES1    0.0000
     26 O11       16.5184   15.5191   14.5136 O.3       1 RES1    0.0000
     27 C1        15.0776   11.3137    8.2705 C.2       1 RES1    0.0000
     28 C2        15.9825   10.1905    8.8219 C.3       1 RES1    0.0000
     29 H7        15.4903    9.6485    9.4732 H         1 RES1    0.0000
     30 C3        17.2030   10.8224    9.4773 C.3       1 RES1    0.0000
     31 H8        17.8012   10.1216    9.7786 H         1 RES1    0.0000
     32 H9        17.6756   11.3575    8.8212 H         1 RES1    0.0000
     33 C4        16.5643   13.0077   10.5961 C.2       1 RES1    0.0000
     34 H10       16.6007   13.5142    9.8166 H         1 RES1    0.0000
     35 C5        16.8268   11.6947   10.6521 C.2       1 RES1    0.0000
     36 C6        16.6653   11.3024   12.0214 C.ar      1 RES1    0.0000
     37 C7        16.8323   10.0972   12.7154 C.ar      1 RES1    0.0000
     38 H11       17.0676    9.3215   12.2591 H         1 RES1    0.0000
     39 C8        16.6414   10.0723   14.0900 C.ar      1 RES1    0.0000
     40 H12       16.7379    9.2723   14.5546 H         1 RES1    0.0000
     41 C9        16.3092   11.2357   14.7800 C.ar      1 RES1    0.0000
     42 H13       16.2092   11.1958   15.7039 H         1 RES1    0.0000
     43 C10       16.1201   12.4426   14.1446 C.ar      1 RES1    0.0000
     44 H14       15.8837   13.2083   14.6162 H         1 RES1    0.0000
     45 C11       16.3018   12.4658   12.7433 C.ar      1 RES1    0.0000
     46 C12       15.8430   14.9178   12.1506 C.3       1 RES1    0.0000
     47 C13       16.8414   15.4781   13.1070 C.3       1 RES1    0.0000
     48 H15       17.7742   15.2580   12.9055 H         1 RES1    0.0000
     49 C14       16.6451   16.7555   13.7916 C.3       1 RES1    0.0000
     50 H16       17.4278   17.3014   13.9638 H         1 RES1    0.0000
     51 H17       15.8340   17.2520   13.5995 H         1 RES1    0.0000
     52 C15       15.9605   15.7689   10.8506 C.3       1 RES1    0.0000
     53 H18       15.7110   16.6772   11.0400 H         1 RES1    0.0000
     54 H19       16.8650   15.7453   10.5327 H         1 RES1    0.0000
     55 H20       15.3748   15.4105   10.1797 H         1 RES1    0.0000
     56 C16       14.4132   14.9520   12.6608 C.3       1 RES1    0.0000
     57 H21       14.1657   15.8581   12.8588 H         1 RES1    0.0000
     58 H22       13.8252   14.5984   11.9900 H         1 RES1    0.0000
     59 H23       14.3455   14.4207   13.4581 H         1 RES1    0.0000
     60 C17       15.5842    8.4337    7.1915 C.2       1 RES1    0.0000
     61 C18       15.9293    7.8505    5.8142 C.3       1 RES1    0.0000
     62 H24       16.8335    7.4742    5.8450 H         1 RES1    0.0000
     63 C19       15.8834    8.9545    4.7513 C.3       1 RES1    0.0000
     64 H25       16.5804    9.6016    4.9407 H         1 RES1    0.0000
     65 H26       16.0705    8.5630    3.8842 H         1 RES1    0.0000
     66 C20       14.5491    9.6743    4.6873 C.2       1 RES1    0.0000
     67 H27       14.2624   10.1362    5.4425 H         1 RES1    0.0000
     68 C21       13.7727    9.6817    3.6204 C.2       1 RES1    0.0000
     69 H28       14.0440    9.1847    2.8831 H         1 RES1    0.0000
     70 C22       12.4861   10.4343    3.5178 C.3       1 RES1    0.0000
     71 H29       12.0987   10.2886    2.6513 H         1 RES1    0.0000
     72 H30       11.8795   10.1252    4.1949 H         1 RES1    0.0000
     73 H31       12.6527   11.3712    3.6406 H         1 RES1    0.0000
     74 C23       15.1841    5.8496    4.6021 C.2       1 RES1    0.0000
     75 C24       14.0645    4.8775    4.2984 C.3       1 RES1    0.0000
     76 H32       14.4502    4.1253    3.8022 H         1 RES1    0.0000
     77 C25       12.9927    5.5156    3.4153 C.3       1 RES1    0.0000
     78 H33       12.6014    6.2609    3.8961 H         1 RES1    0.0000
     79 H34       12.2910    4.8639    3.2633 H         1 RES1    0.0000
     80 C26       13.4900    6.0190    2.0580 C.3       1 RES1    0.0000
     81 H35       14.1213    6.7515    2.2228 H         1 RES1    0.0000
     82 C27       14.2169    4.9499    1.2494 C.3       1 RES1    0.0000
     83 H36       14.9539    4.6082    1.7620 H         1 RES1    0.0000
     84 H37       13.6102    4.2361    1.0453 H         1 RES1    0.0000
     85 H38       14.5465    5.3350    0.4340 H         1 RES1    0.0000
     86 C28       12.3246    6.5819    1.2814 C.3       1 RES1    0.0000
     87 H39       11.8826    7.2505    1.8076 H         1 RES1    0.0000
     88 H40       12.6437    6.9736    0.4654 H         1 RES1    0.0000
     89 H41       11.7075    5.8747    1.0766 H         1 RES1    0.0000
     90 C29       13.6589    3.0887    5.9354 C.2       1 RES1    0.0000
     91 C30       12.9082    2.7205    7.2275 C.3       1 RES1    0.0000
     92 H42       13.2116    3.3345    7.9279 H         1 RES1    0.0000
     93 C31       13.2661    1.3000    7.6764 C.3       1 RES1    0.0000
     94 H43       12.7631    0.6754    7.1306 H         1 RES1    0.0000
     95 H44       14.2069    1.1531    7.4900 H         1 RES1    0.0000
     96 C32       13.0294    0.9815    9.0483 C.3       1 RES1    0.0000
     97 H45       12.0790    1.1052    9.2518 H         1 RES1    0.0000
     98 C33       13.9048    1.8442   10.0687 C.3       1 RES1    0.0000
     99 H46       13.6994    1.5834   10.9691 H         1 RES1    0.0000
    100 H47       14.8380    1.6947    9.8973 H         1 RES1    0.0000
    101 H48       13.7055    2.7772    9.9531 H         1 RES1    0.0000
    102 C34       13.4130   -0.4950    9.2708 C.3       1 RES1    0.0000
    103 H49       13.2612   -0.7318   10.1886 H         1 RES1    0.0000
    104 H50       12.8749   -1.0544    8.7039 H         1 RES1    0.0000
    105 H51       14.3400   -0.6221    9.0565 H         1 RES1    0.0000
    106 C35       10.7296    3.9763    7.5378 C.2       1 RES1    0.0000
    107 C36       11.2821    4.7855    8.6927 C.3       1 RES1    0.0000
    108 H52       12.2609    4.7382    8.6901 H         1 RES1    0.0000
    109 C37       10.7425    4.1791    9.9914 C.3       1 RES1    0.0000
    110 H53       11.0193    3.2621   10.0555 H         1 RES1    0.0000
    111 H54       11.0852    4.6704   10.7410 H         1 RES1    0.0000
    112 H55        9.7831    4.2241    9.9907 H         1 RES1    0.0000
    113 C38       11.3078    6.9638    7.6391 C.2       1 RES1    0.0000
    114 C39       10.9939    8.4470    7.7949 C.3       1 RES1    0.0000
    115 H56       10.1378    8.5533    8.2602 H         1 RES1    0.0000
    116 C40       10.9297    9.1615    6.4309 C.3       1 RES1    0.0000
    117 H57       11.1707   10.0942    6.5453 H         1 RES1    0.0000
    118 H58       11.5744    8.7587    5.8273 H         1 RES1    0.0000
    119 C41        9.5623    9.0733    5.8249 C.ar      1 RES1    0.0000
    120 C42        9.3623    8.1795    4.8778 C.ar      1 RES1    0.0000
    121 H59       10.0385    7.6078    4.5930 H         1 RES1    0.0000
    122 C43        7.9564    8.1336    4.2731 C.ar      1 RES1    0.0000
    123 C44        6.9726    8.9267    4.6993 C.ar      1 RES1    0.0000
    124 C45        7.2938    9.8488    5.6877 C.ar      1 RES1    0.0000
    125 H60        6.6414   10.4546    5.9592 H         1 RES1    0.0000
    126 C46        8.5308    9.9111    6.2818 C.ar      1 RES1    0.0000
    127 H61        8.6856   10.5033    6.9817 H         1 RES1    0.0000
    128 C47       11.8804   10.1786    9.2375 C.2       1 RES1    0.0000
    129 C48       13.1652   10.7916    9.8116 C.3       1 RES1    0.0000
    130 H62       13.7513   10.0594   10.0977 H         1 RES1    0.0000
    131 C49       12.9046   11.6885   11.0184 C.3       1 RES1    0.0000
    132 H63       12.3541   12.4352   10.7332 H         1 RES1    0.0000
    133 H64       13.7508   12.0494   11.3236 H         1 RES1    0.0000
    134 C50       12.2126   10.9975   12.2039 C.3       1 RES1    0.0000
    135 H65       11.3530   10.6459   11.8886 H         1 RES1    0.0000
    136 C51       13.0073    9.8517   12.7447 C.3       1 RES1    0.0000
    137 H66       13.1757    9.2200   12.0428 H         1 RES1    0.0000
    138 H67       13.8425   10.1782   13.0892 H         1 RES1    0.0000
    139 H68       12.5152    9.4258   13.4496 H         1 RES1    0.0000
    140 C52       11.9281   12.0183   13.2908 C.3       1 RES1    0.0000
    141 H69       11.4174   12.7439   12.9241 H         1 RES1    0.0000
    142 H70       11.4303   11.6028   13.9989 H         1 RES1    0.0000
    143 H71       12.7576   12.3551   13.6385 H         1 RES1    0.0000
    144 C53       13.1064   12.6666    8.1279 C.3       1 RES1    0.0000
    145 H72       12.2374   12.7268    8.5306 H         1 RES1    0.0000
    146 H73       13.5889   13.4820    8.2835 H         1 RES1    0.0000
    147 H74       13.0125   12.5261    7.1827 H         1 RES1    0.0000
    148 C54       10.8636    2.1695    5.9474 C.3       1 RES1    0.0000
    149 H75       11.4767    1.4833    5.6751 H         1 RES1    0.0000
    150 H76       10.0496    1.7666    6.2588 H         1 RES1    0.0000
    151 H77       10.6721    2.7428    5.2019 H         1 RES1    0.0000
@<TRIPOS>BOND
     1    1    2 1
     2    3    4 1
     3    5    6 1
     4    7   91 1
     5    8    9 1
     6   10   11 1
     7   12   27 1
     8   13   33 1
     9   14   22 2
    10   15   27 2
    11   16   60 2
    12   17   74 2
    13   18   90 2
    14   19  106 2
    15   20  113 2
    16   21  128 2
    17   23   14 2
    18   24   25 1
    19   26   47 1
    20   27   28 1
    21   28    1 1
    22   29   28 1
    23   30   28 1
    24   31   30 1
    25   32   30 1
    26   33   34 1
    27   35   30 1
    28   36   35 1
    29   37   36 ar
    30   38   37 1
    31   39   37 ar
    32   40   39 1
    33   41   39 ar
    34   42   41 1
    35   43   41 ar
    36   44   43 1
    37   45   13 1
    38   46   13 1
    39   47   46 1
    40   48   47 1
    41   49   26 1
    42   50   49 1
    43   51   49 1
    44   52   46 1
    45   53   52 1
    46   54   52 1
    47   55   52 1
    48   56   46 1
    49   57   56 1
    50   58   56 1
    51   59   56 1
    52   60    1 1
    53   61    3 1
    54   62   61 1
    55   63   61 1
    56   64   63 1
    57   65   63 1
    58   66   63 1
    59   67   66 1
    60   68   66 2
    61   69   68 1
    62   70   68 1
    63   71   70 1
    64   72   70 1
    65   73   70 1
    66   74    3 1
    67   75    5 1
    68   76   75 1
    69   77   75 1
    70   78   77 1
    71   79   77 1
    72   80   77 1
    73   81   80 1
    74   82   80 1
    75   83   82 1
    76   84   82 1
    77   85   82 1
    78   86   80 1
    79   87   86 1
    80   88   86 1
    81   89   86 1
    82   90    5 1
    83   91   90 1
    84   92   91 1
    85   93   91 1
    86   94   93 1
    87   95   93 1
    88   96   93 1
    89   97   96 1
    90   98   96 1
    91   99   98 1
    92  100   98 1
    93  101   98 1
    94  102   96 1
    95  103  102 1
    96  104  102 1
    97  105  102 1
    98  106    7 1
    99  107    8 1
   100  108  107 1
   101  109  107 1
   102  110  109 1
   103  111  109 1
   104  112  109 1
   105  113    8 1
   106  114   10 1
   107  115  114 1
   108  116  114 1
   109  117  116 1
   110  118  116 1
   111  119  116 1
   112  120  119 ar
   113  121  120 1
   114  122   14 1
   115  123   24 1
   116  124  123 ar
   117  125  124 1
   118  126  119 ar
   119  127  126 1
   120  128   10 1
   121  129   12 1
   122  130  129 1
   123  131  129 1
   124  132  131 1
   125  133  131 1
   126  134  131 1
   127  135  134 1
   128  136  134 1
   129  137  136 1
   130  138  136 1
   131  139  136 1
   132  140  134 1
   133  141  140 1
   134  142  140 1
   135  143  140 1
   136  144   12 1
   137  145  144 1
   138  146  144 1
   139  147  144 1
   140  148    7 1
   141  149  148 1
   142  150  148 1
   143  151  148 1
   144   33   35 2
   145   36   45 ar
   146   43   45 ar
   147   47   49 1
   148   60   61 1
   149   74   75 1
   150  106  107 1
   151  113  114 1
   152  120  122 ar
   153  122  123 ar
   154  124  126 ar
   155  128  129 1
@<TRIPOS>SUBSTRUCTURE
     1 RES1 1

@<TRIPOS>CRYSIN
  18.3538   28.2850   13.3201  90.0000  90.0000  90.0000  18 1

