# MOL2 file generated by ConQuest
# Please check atom types

@<TRIPOS>MOLECULE
VEHGEX
   300   306     2
SMALL
NO_CHARGES
****
Generated from CSD

@<TRIPOS>ATOM
      1 O1         4.1962    8.4436    7.8754 O.2       1 RES1    0.0000
      2 O2         7.3184    7.3331   10.3698 O.2       1 RES1    0.0000
      3 O3        11.3381    9.0141    8.4239 O.2       1 RES1    0.0000
      4 O4        13.3344    7.1620   11.5703 O.2       1 RES1    0.0000
      5 O5        10.6367    6.1263   15.5818 O.2       1 RES1    0.0000
      6 O6        10.7736    8.3584   15.4343 O.3       1 RES1    0.0000
      7 H1        10.1971    8.3436   16.0145 H         1 RES1    0.0000
      8 O7        10.9925    2.2188   11.7041 O.2       1 RES1    0.0000
      9 O8         9.2306    4.6950   10.2360 O.2       1 RES1    0.0000
     10 O9        10.9480    0.8205    6.6086 O.2       1 RES1    0.0000
     11 O10       10.1458   -1.1335    6.1724 O.2       1 RES1    0.0000
     12 O11        7.7064   -1.6984    6.8060 O.3       1 RES1    0.0000
     13 H2         8.4745   -1.9076    6.6106 H         1 RES1    0.0000
     14 O12        4.3091    3.5653    9.9743 O.2       1 RES1    0.0000
     15 N1         0.4584    9.4252    9.9371 N.3       1 RES1    0.0000
     16 N2         6.2917    9.1752    9.6209 N.am      1 RES1    0.0000
     17 H3         6.3995    9.9568    9.2823 H         1 RES1    0.0000
     18 N3         9.6326    7.8084    9.2438 N.am      1 RES1    0.0000
     19 H4         9.4016    7.0805    9.6393 H         1 RES1    0.0000
     20 N4        11.6597    6.1304   10.4451 N.am      1 RES1    0.0000
     21 H5        11.0216    5.5562   10.5063 H         1 RES1    0.0000
     22 N5        12.0018    4.0949   12.3828 N.am      1 RES1    0.0000
     23 N6         8.4745    3.4189   11.9254 N.am      1 RES1    0.0000
     24 H6         7.9014    2.8355   12.1855 H         1 RES1    0.0000
     25 N7        10.0654    0.0870    6.6039 N.pl3     1 RES1    0.0000
     26 N8         6.1531    4.8061   10.3722 N.am      1 RES1    0.0000
     27 H7         6.4799    5.5470   10.6593 H         1 RES1    0.0000
     28 N9         3.9601    6.6471    9.1913 N.am      1 RES1    0.0000
     29 C1         4.3433    7.9010    8.9943 C.2       1 RES1    0.0000
     30 C2         4.9643    8.7826   10.0858 C.3       1 RES1    0.0000
     31 H8         5.0327    8.2844   10.9261 H         1 RES1    0.0000
     32 C3         4.1021   10.0160   10.2756 C.3       1 RES1    0.0000
     33 H9         4.4237   10.4994   11.0517 H         1 RES1    0.0000
     34 H10        4.2167   10.5939    9.5059 H         1 RES1    0.0000
     35 C4         2.6327    9.7531   10.4549 C.2       1 RES1    0.0000
     36 C5         1.7089    9.7623    9.4663 C.2       1 RES1    0.0000
     37 H11        1.8954    9.9679    8.5800 H         1 RES1    0.0000
     38 C6         1.9262    9.3882   11.6547 C.ar      1 RES1    0.0000
     39 C7         2.3196    9.2623   12.9932 C.ar      1 RES1    0.0000
     40 H12        3.2057    9.3882   13.2408 H         1 RES1    0.0000
     41 C8         1.3600    8.9474   13.9329 C.ar      1 RES1    0.0000
     42 H13        1.5977    8.8937   14.8297 H         1 RES1    0.0000
     43 C9         0.0496    8.7122   13.5562 C.ar      1 RES1    0.0000
     44 H14       -0.5611    8.4622   14.2098 H         1 RES1    0.0000
     45 C10       -0.3900    8.8344   12.2557 C.ar      1 RES1    0.0000
     46 H15       -1.2778    8.6844   12.0246 H         1 RES1    0.0000
     47 C11        0.5748    9.1974   11.2969 C.ar      1 RES1    0.0000
     48 C12       -0.7989    9.3734    9.1391 C.3       1 RES1    0.0000
     49 C13       -1.7825   10.3142    9.6589 C.2       1 RES1    0.0000
     50 H16       -2.6737   10.1753    9.4353 H         1 RES1    0.0000
     51 C14       -1.4882   11.3940   10.4553 C.2       1 RES1    0.0000
     52 H17       -0.6073   11.5644   10.6986 H         1 RES1    0.0000
     53 H18       -2.1691   11.9533   10.7496 H         1 RES1    0.0000
     54 C15       -0.4892    9.7827    7.6828 C.3       1 RES1    0.0000
     55 H19        0.0411   10.5828    7.6816 H         1 RES1    0.0000
     56 H20       -1.3121    9.9420    7.2148 H         1 RES1    0.0000
     57 H21       -0.0051    9.0770    7.2501 H         1 RES1    0.0000
     58 C16       -1.3326    7.9417    9.1528 C.3       1 RES1    0.0000
     59 H22       -0.7014    7.3602    8.7213 H         1 RES1    0.0000
     60 H23       -2.1708    7.9065    8.6860 H         1 RES1    0.0000
     61 H24       -1.4592    7.6565   10.0630 H         1 RES1    0.0000
     62 C17        7.3403    8.3621    9.7052 C.2       1 RES1    0.0000
     63 C18        8.5942    8.7622    8.9374 C.3       1 RES1    0.0000
     64 H25        8.8799    9.6493    9.2391 H         1 RES1    0.0000
     65 C19        8.2931    8.8233    7.4031 C.3       1 RES1    0.0000
     66 H26        7.5832    9.4678    7.2540 H         1 RES1    0.0000
     67 H27        9.0835    9.1456    6.9441 H         1 RES1    0.0000
     68 C20        7.8946    7.5398    6.8060 C.2       1 RES1    0.0000
     69 H28        8.4693    6.8342    6.9951 H         1 RES1    0.0000
     70 C21        6.9178    7.2398    6.0904 C.2       1 RES1    0.0000
     71 H29        6.2301    7.8565    5.9868 H         1 RES1    0.0000
     72 C22        6.8117    5.8711    5.3689 C.3       1 RES1    0.0000
     73 H30        6.5671    6.0119    4.4528 H         1 RES1    0.0000
     74 H31        6.1412    5.3340    5.7985 H         1 RES1    0.0000
     75 H32        7.6585    5.4210    5.4101 H         1 RES1    0.0000
     76 C23       10.9190    7.9751    8.9551 C.2       1 RES1    0.0000
     77 C24       11.8513    6.8027    9.1697 C.3       1 RES1    0.0000
     78 H33       12.7716    7.1379    9.1371 H         1 RES1    0.0000
     79 C25       11.6614    5.8100    8.0069 C.3       1 RES1    0.0000
     80 H34       11.8461    6.2823    7.1795 H         1 RES1    0.0000
     81 H35       10.7257    5.5544    7.9876 H         1 RES1    0.0000
     82 C26       12.5030    4.5135    8.0084 C.3       1 RES1    0.0000
     83 H36       12.2190    3.9523    8.7605 H         1 RES1    0.0000
     84 C27       12.2293    3.7690    6.7047 C.3       1 RES1    0.0000
     85 H37       11.3090    3.4986    6.6773 H         1 RES1    0.0000
     86 H38       12.7921    2.9930    6.6577 H         1 RES1    0.0000
     87 H39       12.4158    4.3468    5.9633 H         1 RES1    0.0000
     88 C28       13.9793    4.8117    8.1524 C.3       1 RES1    0.0000
     89 H40       14.2325    5.4877    7.5208 H         1 RES1    0.0000
     90 H41       14.4839    4.0116    7.9837 H         1 RES1    0.0000
     91 H42       14.1589    5.1210    9.0430 H         1 RES1    0.0000
     92 C29       12.4141    6.3471   11.5244 C.2       1 RES1    0.0000
     93 C30       12.0343    5.5118   12.7445 C.3       1 RES1    0.0000
     94 H43       11.1208    5.7655   12.9976 H         1 RES1    0.0000
     95 C31       12.9290    5.7729   13.9646 C.3       1 RES1    0.0000
     96 H44       13.8595    5.7544   13.6880 H         1 RES1    0.0000
     97 H45       12.7989    5.0636   14.6139 H         1 RES1    0.0000
     98 C32       12.6210    7.1324   14.6277 C.3       1 RES1    0.0000
     99 H46       12.6792    7.8473   13.9587 H         1 RES1    0.0000
    100 C33       13.6201    7.4065   15.7720 C.3       1 RES1    0.0000
    101 H47       13.6047    6.6730   16.3911 H         1 RES1    0.0000
    102 H48       13.3720    8.2158   16.2264 H         1 RES1    0.0000
    103 H49       14.5044    7.5009   15.4103 H         1 RES1    0.0000
    104 C34       11.2423    7.1157   15.2393 C.2       1 RES1    0.0000
    105 C35       10.9224    3.3245   12.2329 C.2       1 RES1    0.0000
    106 C36        9.5847    3.7912   12.8053 C.3       1 RES1    0.0000
    107 H50        9.5984    4.7654   12.9113 H         1 RES1    0.0000
    108 C37        9.3965    3.1393   14.1624 C.3       1 RES1    0.0000
    109 H51        8.5514    3.4041   14.5315 H         1 RES1    0.0000
    110 H52       10.1030    3.4171   14.7512 H         1 RES1    0.0000
    111 H53        9.4205    2.1855   14.0647 H         1 RES1    0.0000
    112 C38        8.3496    3.9727   10.7343 C.2       1 RES1    0.0000
    113 C39        7.0290    3.7264   10.0065 C.3       1 RES1    0.0000
    114 H54        6.6441    2.8818   10.3219 H         1 RES1    0.0000
    115 C40        7.2274    3.6486    8.4745 C.3       1 RES1    0.0000
    116 H55        6.4542    4.0283    8.0308 H         1 RES1    0.0000
    117 H56        8.0058    4.1709    8.2230 H         1 RES1    0.0000
    118 C41        7.4122    2.2447    8.0280 C.ar      1 RES1    0.0000
    119 C42        8.5822    1.8002    7.5522 C.ar      1 RES1    0.0000
    120 H57        9.2990    2.3929    7.5129 H         1 RES1    0.0000
    121 C43        8.7858    0.4334    7.0928 C.ar      1 RES1    0.0000
    122 C44        7.6705   -0.4501    7.1457 C.ar      1 RES1    0.0000
    123 C45        6.4440    0.0407    7.6424 C.ar      1 RES1    0.0000
    124 H58        5.7050   -0.5241    7.6738 H         1 RES1    0.0000
    125 C46        6.3242    1.3391    8.0798 C.ar      1 RES1    0.0000
    126 H59        5.5082    1.6317    8.4192 H         1 RES1    0.0000
    127 C47        4.8189    4.6506   10.2607 C.2       1 RES1    0.0000
    128 C48        4.0063    5.9118   10.4742 C.3       1 RES1    0.0000
    129 H60        4.4613    6.4712   11.1380 H         1 RES1    0.0000
    130 C49        2.5677    5.6451   10.9559 C.3       1 RES1    0.0000
    131 H61        2.1178    6.4971   11.0634 H         1 RES1    0.0000
    132 H62        2.0989    5.1543   10.2631 H         1 RES1    0.0000
    133 C50        2.4428    4.8636   12.2667 C.3       1 RES1    0.0000
    134 H63        2.8277    3.9727   12.1305 H         1 RES1    0.0000
    135 C51        3.1937    5.5322   13.3942 C.3       1 RES1    0.0000
    136 H64        4.1312    5.3340   13.3153 H         1 RES1    0.0000
    137 H65        2.8670    5.2043   14.2334 H         1 RES1    0.0000
    138 H66        3.0637    6.4823   13.3467 H         1 RES1    0.0000
    139 C52        0.9460    4.7006   12.5739 C.3       1 RES1    0.0000
    140 H67        0.5696    5.5544   12.7936 H         1 RES1    0.0000
    141 H68        0.8348    4.0987   13.3153 H         1 RES1    0.0000
    142 H69        0.4995    4.3431   11.8010 H         1 RES1    0.0000
    143 C53        3.3717    5.9526    8.0508 C.3       1 RES1    0.0000
    144 H70        2.5198    6.3415    7.8425 H         1 RES1    0.0000
    145 H71        3.2553    5.0247    8.2662 H         1 RES1    0.0000
    146 H72        3.9533    6.0341    7.2932 H         1 RES1    0.0000
    147 C54       13.2831    3.5097   11.9140 C.3       1 RES1    0.0000
    148 H73       13.3771    3.6616   10.9693 H         1 RES1    0.0000
    149 H74       13.2865    2.5651   12.0874 H         1 RES1    0.0000
    150 H75       14.0135    3.9227   12.3816 H         1 RES1    0.0000
    151 O13        8.2459   -0.8201    2.3857 O.2       2 RES2    0.0000
    152 O14        9.3765    2.0775    0.2260 O.2       2 RES2    0.0000
    153 O15       12.2156    5.1240    2.5363 O.2       2 RES2    0.0000
    154 O16       11.9636    7.4348   -1.3759 O.2       2 RES2    0.0000
    155 O17       11.8068    4.0005   -4.8550 O.2       2 RES2    0.0000
    156 O18        9.8669    4.9988   -5.2073 O.3       2 RES2    0.0000
    157 H76        9.6942    4.3005   -5.6023 H         2 RES2    0.0000
    158 O19        6.4953    7.9158   -2.2884 O.2       2 RES2    0.0000
    159 O20        8.0602    4.8608   -0.7776 O.2       2 RES2    0.0000
    160 O21        1.4985    5.8563    2.4453 O.2       2 RES2    0.0000
    161 O22        1.6473    8.0158    2.6419 O.2       2 RES2    0.0000
    162 O23        3.7223    9.3011    1.6968 O.3       2 RES2    0.0000
    163 H77        3.1937    9.3345    2.3225 H         2 RES2    0.0000
    164 O24        5.2487    1.2929   -1.7862 O.2       2 RES2    0.0000
    165 N10        7.7817   -4.6117   -0.0996 N.3       2 RES2    0.0000
    166 N11       10.5464    0.3871    1.1436 N.am      2 RES2    0.0000
    167 H78       11.2166    0.1463    1.6242 H         2 RES2    0.0000
    168 N12       10.7724    4.0298    1.2029 N.am      2 RES2    0.0000
    169 H79       10.1868    4.0875    0.5767 H         2 RES2    0.0000
    170 N13       10.2696    6.4323   -0.2295 N.am      2 RES2    0.0000
    171 H80        9.5009    6.0544   -0.3021 H         2 RES2    0.0000
    172 N14        8.7140    7.6232   -2.3712 N.am      2 RES2    0.0000
    173 N15        6.3981    5.0025   -2.2864 N.am      2 RES2    0.0000
    174 H81        5.5801    4.8173   -2.4795 H         2 RES2    0.0000
    175 N16        2.1349    6.9064    2.3441 N.pl3     2 RES2    0.0000
    176 N17        6.7070    2.2890   -0.3660 N.am      2 RES2    0.0000
    177 H82        7.4139    2.1688    0.1098 H         2 RES2    0.0000
    178 N18        7.2081   -0.3652    0.4480 N.am      2 RES2    0.0000
    179 C55        8.3103   -0.5760    1.1719 C.2       2 RES2    0.0000
    180 C56        9.7095   -0.6223    0.5230 C.3       2 RES2    0.0000
    181 H83        9.6411   -0.4593   -0.4394 H         2 RES2    0.0000
    182 C57       10.2963   -2.0095    0.7799 C.3       2 RES2    0.0000
    183 H84       11.1841   -2.0577    0.3923 H         2 RES2    0.0000
    184 H85       10.3818   -2.1466    1.7380 H         2 RES2    0.0000
    185 C58        8.3616   -3.7097    0.7725 C.2       2 RES2    0.0000
    186 H86        8.0588   -3.5375    1.6360 H         2 RES2    0.0000
    187 C59        9.4410   -3.1078    0.1958 C.2       2 RES2    0.0000
    188 C60        9.5590   -3.6671   -1.1220 C.ar      2 RES2    0.0000
    189 C61       10.4485   -3.4245   -2.1805 C.ar      2 RES2    0.0000
    190 H87       11.1499   -2.8189   -2.0871 H         2 RES2    0.0000
    191 C62       10.2535   -4.1079   -3.3571 C.ar      2 RES2    0.0000
    192 H88       10.8215   -3.9542   -4.0762 H         2 RES2    0.0000
    193 C63        9.2169   -5.0284   -3.4803 C.ar      2 RES2    0.0000
    194 H89        9.1245   -5.4951   -4.2802 H         2 RES2    0.0000
    195 C64        8.3462   -5.2655   -2.4893 C.ar      2 RES2    0.0000
    196 H90        7.6499   -5.8711   -2.5972 H         2 RES2    0.0000
    197 C65        8.5189   -4.5672   -1.2841 C.ar      2 RES2    0.0000
    198 C66        6.5397   -5.3858    0.1397 C.3       2 RES2    0.0000
    199 C67        5.4792   -4.8524   -0.8866 C.2       2 RES2    0.0000
    200 H91        5.3286   -3.9338   -0.9023 H         2 RES2    0.0000
    201 C68        4.7710   -5.5988   -1.7419 C.2       2 RES2    0.0000
    202 H92        4.8890   -6.5212   -1.7576 H         2 RES2    0.0000
    203 H93        4.1603   -5.1969   -2.3147 H         2 RES2    0.0000
    204 C69        6.7998   -6.8842   -0.0271 C.3       2 RES2    0.0000
    205 H94        7.3232   -7.0323   -0.8160 H         2 RES2    0.0000
    206 H95        5.9616   -7.3472   -0.1059 H         2 RES2    0.0000
    207 H96        7.2753   -7.2139    0.7376 H         2 RES2    0.0000
    208 C70        6.0266   -5.1284    1.5340 C.3       2 RES2    0.0000
    209 H97        6.7245   -5.3062    2.1695 H         2 RES2    0.0000
    210 H98        5.2807   -5.7063    1.7105 H         2 RES2    0.0000
    211 H99        5.7494   -4.2135    1.6085 H         2 RES2    0.0000
    212 C71       10.2877    1.6965    0.9749 C.2       2 RES2    0.0000
    213 C72       11.0934    2.7096    1.7615 C.3       2 RES2    0.0000
    214 H100      12.0497    2.5281    1.6477 H         2 RES2    0.0000
    215 C73       10.7222    2.6022    3.2700 C.3       2 RES2    0.0000
    216 H101      10.9036    1.7002    3.5780 H         2 RES2    0.0000
    217 H102      11.2850    3.2060    3.7780 H         2 RES2    0.0000
    218 C74        9.2819    2.9300    3.5391 C.2       2 RES2    0.0000
    219 H103       9.0031    3.8060    3.4053 H         2 RES2    0.0000
    220 C75        8.3838    2.0558    3.9507 C.2       2 RES2    0.0000
    221 H104       8.6712    1.1798    4.0762 H         2 RES2    0.0000
    222 C76        8.8884    9.0289   -1.9891 C.3       2 RES2    0.0000
    223 H105       8.4642    9.1863   -1.1417 H         2 RES2    0.0000
    224 H106       8.4899    9.5938   -2.6560 H         2 RES2    0.0000
    225 H107       9.8259    9.2289   -1.9184 H         2 RES2    0.0000
    226 C77        6.9452    2.3484    4.2355 C.3       2 RES2    0.0000
    227 H108       6.3909    1.8150    3.6603 H         2 RES2    0.0000
    228 H109       6.7707    3.2782    4.0762 H         2 RES2    0.0000
    229 H110       6.7519    2.1392    5.1512 H         2 RES2    0.0000
    230 C78       11.3586    5.1247    1.6364 C.2       2 RES2    0.0000
    231 C79       10.8950    6.4934    1.0918 C.3       2 RES2    0.0000
    232 H111      11.6853    7.0694    1.0200 H         2 RES2    0.0000
    233 C80        9.9542    7.1194    2.1334 C.3       2 RES2    0.0000
    234 H112       9.1724    6.5508    2.2166 H         2 RES2    0.0000
    235 H113      10.4075    7.1212    2.9895 H         2 RES2    0.0000
    236 C81        9.4820    8.5418    1.8396 C.3       2 RES2    0.0000
    237 H114       8.9244    8.5048    1.0357 H         2 RES2    0.0000
    238 C82       10.6333    9.4660    1.5473 C.3       2 RES2    0.0000
    239 H115      11.1927    9.5382    2.3265 H         2 RES2    0.0000
    240 H116      10.2946   10.3346    1.3143 H         2 RES2    0.0000
    241 H117      11.1465    9.1178    0.8160 H         2 RES2    0.0000
    242 C83        8.5925    9.0382    2.9965 C.3       2 RES2    0.0000
    243 H118       7.8450    8.4436    3.1033 H         2 RES2    0.0000
    244 H119       8.2743    9.9216    2.7972 H         2 RES2    0.0000
    245 H120       9.1057    9.0567    3.8094 H         2 RES2    0.0000
    246 C84       10.8369    6.9397   -1.3394 C.2       2 RES2    0.0000
    247 C85        9.9456    6.8490   -2.5956 C.3       2 RES2    0.0000
    248 H121       9.6924    5.9100   -2.7188 H         2 RES2    0.0000
    249 C86       10.6384    7.3268   -3.8875 C.3       2 RES2    0.0000
    250 H122       9.9542    7.4898   -4.5548 H         2 RES2    0.0000
    251 H123      11.0729    8.1732   -3.7035 H         2 RES2    0.0000
    252 C87       11.6580    6.3878   -4.4732 C.3       2 RES2    0.0000
    253 H124      12.3679    6.2600   -3.8094 H         2 RES2    0.0000
    254 C88       12.2892    7.0027   -5.7400 C.3       2 RES2    0.0000
    255 H125      11.5964    7.2416   -6.3595 H         2 RES2    0.0000
    256 H126      12.8759    6.3619   -6.1477 H         2 RES2    0.0000
    257 H127      12.7887    7.7861   -5.5003 H         2 RES2    0.0000
    258 C89       11.1037    4.9988   -4.8565 C.2       2 RES2    0.0000
    259 C90        7.4584    7.1879   -2.5744 C.2       2 RES2    0.0000
    260 C91        7.1898    5.8118   -3.2092 C.3       2 RES2    0.0000
    261 H128       8.0417    5.3636   -3.3936 H         2 RES2    0.0000
    262 C92        6.4286    6.0063   -4.4999 C.3       2 RES2    0.0000
    263 H129       6.1685    5.1525   -4.8491 H         2 RES2    0.0000
    264 H130       6.9879    6.4582   -5.1355 H         2 RES2    0.0000
    265 H131       5.6451    6.5360   -4.3312 H         2 RES2    0.0000
    266 C93        6.9195    4.5469   -1.1550 C.2       2 RES2    0.0000
    267 C94        6.0727    3.6004   -0.3197 C.3       2 RES2    0.0000
    268 H132       5.1712    3.5449   -0.6983 H         2 RES2    0.0000
    269 C95        5.9923    4.0875    1.1244 C.3       2 RES2    0.0000
    270 H133       5.4723    3.4541    1.6399 H         2 RES2    0.0000
    271 H134       6.8870    4.1098    1.4987 H         2 RES2    0.0000
    272 C96        5.3680    5.4599    1.2578 C.ar      2 RES2    0.0000
    273 C97        4.0628    5.6007    1.6858 C.ar      2 RES2    0.0000
    274 H135       3.5581    4.8413    1.8714 H         2 RES2    0.0000
    275 C98        3.4846    6.8731    1.8478 C.ar      2 RES2    0.0000
    276 C99        4.2047    8.0177    1.5693 C.ar      2 RES2    0.0000
    277 C100       5.4928    7.8991    1.0895 C.ar      2 RES2    0.0000
    278 H136       5.9769    8.6585    0.8631 H         2 RES2    0.0000
    279 C101       6.0659    6.6434    0.9451 C.ar      2 RES2    0.0000
    280 H137       6.9383    6.5804    0.6316 H         2 RES2    0.0000
    281 C102       6.2678    1.2594   -1.0973 C.2       2 RES2    0.0000
    282 C103       7.1333   -0.0167   -0.9796 C.3       2 RES2    0.0000
    283 H138       8.0383    0.1908   -1.2986 H         2 RES2    0.0000
    284 C104       6.5911   -1.1835   -1.7937 C.3       2 RES2    0.0000
    285 H139       5.6553   -1.3039   -1.5614 H         2 RES2    0.0000
    286 H140       7.0598   -1.9873   -1.5183 H         2 RES2    0.0000
    287 C105       6.6920   -1.0724   -3.3179 C.3       2 RES2    0.0000
    288 H141       6.2575   -0.2426   -3.6054 H         2 RES2    0.0000
    289 C106       5.9735   -2.2429   -3.9444 C.3       2 RES2    0.0000
    290 H142       6.1412   -3.0356   -3.4289 H         2 RES2    0.0000
    291 H143       6.2934   -2.3725   -4.8412 H         2 RES2    0.0000
    292 H144       5.0293   -2.0669   -3.9624 H         2 RES2    0.0000
    293 C107       8.1118   -1.0705   -3.8012 C.3       2 RES2    0.0000
    294 H145       8.5651   -0.2982   -3.4563 H         2 RES2    0.0000
    295 H146       8.1221   -1.0483   -4.7628 H         2 RES2    0.0000
    296 H147       8.5549   -1.8650   -3.4956 H         2 RES2    0.0000
    297 C108       5.9119   -0.4889    1.1338 C.3       2 RES2    0.0000
    298 H148       5.8093   -1.3835    1.4634 H         2 RES2    0.0000
    299 H149       5.2037   -0.2908    0.5179 H         2 RES2    0.0000
    300 H150       5.8777    0.1296    1.8674 H         2 RES2    0.0000
@<TRIPOS>BOND
     1    1   29 2
     2    2   62 2
     3    3   76 2
     4    4   92 2
     5    5  104 2
     6    6    7 1
     7    8  105 2
     8    9  112 2
     9   10   25 2
    10   11   25 2
    11   12   13 1
    12   14  127 2
    13   15   36 1
    14   16   17 1
    15   18   19 1
    16   20   21 1
    17   22   93 1
    18   23   24 1
    19   25  121 1
    20   26   27 1
    21   28   29 1
    22   29   30 1
    23   30   16 1
    24   31   30 1
    25   32   30 1
    26   33   32 1
    27   34   32 1
    28   35   32 1
    29   36   35 2
    30   37   36 1
    31   38   35 1
    32   39   38 ar
    33   40   39 1
    34   41   39 ar
    35   42   41 1
    36   43   41 ar
    37   44   43 1
    38   45   43 ar
    39   46   45 1
    40   47   15 1
    41   48   15 1
    42   49   48 1
    43   50   49 1
    44   51   49 2
    45   52   51 1
    46   53   51 1
    47   54   48 1
    48   55   54 1
    49   56   54 1
    50   57   54 1
    51   58   48 1
    52   59   58 1
    53   60   58 1
    54   61   58 1
    55   62   16 1
    56   63   18 1
    57   64   63 1
    58   65   63 1
    59   66   65 1
    60   67   65 1
    61   68   65 1
    62   69   68 1
    63   70   68 2
    64   71   70 1
    65   72   70 1
    66   73   72 1
    67   74   72 1
    68   75   72 1
    69   76   18 1
    70   77   20 1
    71   78   77 1
    72   79   77 1
    73   80   79 1
    74   81   79 1
    75   82   79 1
    76   83   82 1
    77   84   82 1
    78   85   84 1
    79   86   84 1
    80   87   84 1
    81   88   82 1
    82   89   88 1
    83   90   88 1
    84   91   88 1
    85   92   20 1
    86   93   92 1
    87   94   93 1
    88   95   93 1
    89   96   95 1
    90   97   95 1
    91   98   95 1
    92   99   98 1
    93  100   98 1
    94  101  100 1
    95  102  100 1
    96  103  100 1
    97  104    6 1
    98  105   22 1
    99  106   23 1
   100  107  106 1
   101  108  106 1
   102  109  108 1
   103  110  108 1
   104  111  108 1
   105  112   23 1
   106  113   26 1
   107  114  113 1
   108  115  113 1
   109  116  115 1
   110  117  115 1
   111  118  115 1
   112  119  118 ar
   113  120  119 1
   114  121  119 ar
   115  122   12 1
   116  123  122 ar
   117  124  123 1
   118  125  118 ar
   119  126  125 1
   120  127   26 1
   121  128   28 1
   122  129  128 1
   123  130  128 1
   124  131  130 1
   125  132  130 1
   126  133  130 1
   127  134  133 1
   128  135  133 1
   129  136  135 1
   130  137  135 1
   131  138  135 1
   132  139  133 1
   133  140  139 1
   134  141  139 1
   135  142  139 1
   136  143   28 1
   137  144  143 1
   138  145  143 1
   139  146  143 1
   140  147   22 1
   141  148  147 1
   142  149  147 1
   143  150  147 1
   144  151  179 2
   145  152  212 2
   146  153  230 2
   147  154  246 2
   148  155  258 2
   149  156  157 1
   150  158  259 2
   151  159  266 2
   152  160  175 2
   153  161  175 2
   154  162  163 1
   155  164  281 2
   156  165  185 1
   157  166  167 1
   158  168  169 1
   159  170  171 1
   160  172  222 1
   161  173  174 1
   162  175  275 1
   163  176  177 1
   164  178  179 1
   165  179  180 1
   166  180  166 1
   167  181  180 1
   168  182  180 1
   169  183  182 1
   170  184  182 1
   171  185  186 1
   172  187  182 1
   173  188  187 1
   174  189  188 ar
   175  190  189 1
   176  191  189 ar
   177  192  191 1
   178  193  191 ar
   179  194  193 1
   180  195  193 ar
   181  196  195 1
   182  197  165 1
   183  198  165 1
   184  199  198 1
   185  200  199 1
   186  201  199 2
   187  202  201 1
   188  203  201 1
   189  204  198 1
   190  205  204 1
   191  206  204 1
   192  207  204 1
   193  208  198 1
   194  209  208 1
   195  210  208 1
   196  211  208 1
   197  212  166 1
   198  213  168 1
   199  214  213 1
   200  215  213 1
   201  216  215 1
   202  217  215 1
   203  218  215 1
   204  219  218 1
   205  220  218 2
   206  221  220 1
   207  222  223 1
   208  224  222 1
   209  225  222 1
   210  226  220 1
   211  227  226 1
   212  228  226 1
   213  229  226 1
   214  230  168 1
   215  231  170 1
   216  232  231 1
   217  233  231 1
   218  234  233 1
   219  235  233 1
   220  236  233 1
   221  237  236 1
   222  238  236 1
   223  239  238 1
   224  240  238 1
   225  241  238 1
   226  242  236 1
   227  243  242 1
   228  244  242 1
   229  245  242 1
   230  246  170 1
   231  247  172 1
   232  248  247 1
   233  249  247 1
   234  250  249 1
   235  251  249 1
   236  252  249 1
   237  253  252 1
   238  254  252 1
   239  255  254 1
   240  256  254 1
   241  257  254 1
   242  258  156 1
   243  259  172 1
   244  260  173 1
   245  261  260 1
   246  262  260 1
   247  263  262 1
   248  264  262 1
   249  265  262 1
   250  266  173 1
   251  267  176 1
   252  268  267 1
   253  269  267 1
   254  270  269 1
   255  271  269 1
   256  272  269 1
   257  273  272 ar
   258  274  273 1
   259  275  273 ar
   260  276  162 1
   261  277  276 ar
   262  278  277 1
   263  279  272 ar
   264  280  279 1
   265  281  176 1
   266  282  178 1
   267  283  282 1
   268  284  282 1
   269  285  284 1
   270  286  284 1
   271  287  284 1
   272  288  287 1
   273  289  287 1
   274  290  289 1
   275  291  289 1
   276  292  289 1
   277  293  287 1
   278  294  293 1
   279  295  293 1
   280  296  293 1
   281  297  178 1
   282  298  297 1
   283  299  297 1
   284  300  297 1
   285   38   47 ar
   286   45   47 ar
   287   62   63 1
   288   76   77 1
   289   98  104 1
   290  105  106 1
   291  112  113 1
   292  121  122 ar
   293  123  125 ar
   294  127  128 1
   295  185  187 2
   296  188  197 ar
   297  195  197 ar
   298  212  213 1
   299  230  231 1
   300  246  247 1
   301  252  258 1
   302  259  260 1
   303  266  267 1
   304  275  276 ar
   305  277  279 ar
   306  281  282 1
@<TRIPOS>SUBSTRUCTURE
     1 RES1 1
     2 RES2 151

@<TRIPOS>CRYSIN
  17.1063   18.5208   39.2320  90.0000  90.0000  90.0000  19 1

