# MOL2 file generated by ConQuest
# Please check atom types

@<TRIPOS>MOLECULE
VEHGAT
   156   155     2
SMALL
NO_CHARGES
****
Generated from CSD

@<TRIPOS>ATOM
      1 O1        -6.3944   -2.7810   -5.8623 O.2       1 RES1    0.0000
      2 O2        -8.3497   -0.2463   -5.1165 O.2       1 RES1    0.0000
      3 O3        -9.1226    2.3109   -2.9838 O.2       1 RES1    0.0000
      4 N1        -5.8119   -4.6199   -7.0494 N.am      1 RES1    0.0000
      5 H1        -6.0611   -5.4134   -7.3377 H         1 RES1    0.0000
      6 N2        -8.9067   -3.4259   -5.6111 N.am      1 RES1    0.0000
      7 H2        -8.5370   -2.6663   -5.3597 H         1 RES1    0.0000
      8 O4       -10.6700   -4.8060   -5.3954 O.2       1 RES1    0.0000
      9 N3        -6.9054    1.0360   -3.9806 N.am      1 RES1    0.0000
     10 H3        -6.2642    1.6396   -4.0186 H         1 RES1    0.0000
     11 N4        -5.6246   -0.1937   -6.5599 N.am      1 RES1    0.0000
     12 H4        -5.7199   -0.9552   -6.1308 H         1 RES1    0.0000
     13 N5        -0.0460   -4.4770   -8.5178 N.3       1 RES1    0.0000
     14 O5       -11.4096   -2.5365   -1.8484 O.2       1 RES1    0.0000
     15 N6       -10.2383   -1.7449   -3.6543 N.am      1 RES1    0.0000
     16 H5        -9.5955   -1.2072   -3.9248 H         1 RES1    0.0000
     17 C1        -8.1497   -4.3247   -6.4481 C.3       1 RES1    0.0000
     18 H6        -8.1910   -5.2442   -6.0570 H         1 RES1    0.0000
     19 N7        -8.6084    5.5394   -8.5804 N.pl3     1 RES1    0.0000
     20 C2        -6.6293    0.8593   -6.3856 C.3       1 RES1    0.0000
     21 H7        -6.1706    1.7412   -6.2716 H         1 RES1    0.0000
     22 N8        -9.7876    0.4776   -1.8730 N.am      1 RES1    0.0000
     23 C3        -7.4323    0.6243   -2.6977 C.3       1 RES1    0.0000
     24 H8        -7.4450   -0.3742   -2.6396 H         1 RES1    0.0000
     25 C4        -4.4089   -4.1686   -7.2684 C.3       1 RES1    0.0000
     26 H9        -4.0963   -3.5876   -6.5174 H         1 RES1    0.0000
     27 C5        -1.1110   -4.8248   -6.5308 C.ar      1 RES1    0.0000
     28 C6        -7.5593    0.9251   -7.5925 C.3       1 RES1    0.0000
     29 H10       -7.0086    0.9740   -8.4150 H         1 RES1    0.0000
     30 H11       -8.0862    0.0884   -7.6327 H         1 RES1    0.0000
     31 C7        -7.3831    0.5096   -5.1071 C.2       1 RES1    0.0000
     32 O6       -11.2921    5.1971   -7.5187 O.3       1 RES1    0.0000
     33 H12      -11.0525    5.8233   -8.0239 H         1 RES1    0.0000
     34 N9        -4.1677   -2.0570   -8.6363 N.am      1 RES1    0.0000
     35 C8        -8.6925   -4.3661   -7.8808 C.3       1 RES1    0.0000
     36 H13       -8.1783   -5.0392   -8.3949 H         1 RES1    0.0000
     37 H14       -9.6352   -4.6688   -7.8540 H         1 RES1    0.0000
     38 C9        -9.1639    4.3247   -8.0216 C.ar      1 RES1    0.0000
     39 O7        -9.2940    6.5566   -8.6273 O.2       1 RES1    0.0000
     40 C10      -10.1606   -3.7023   -5.1987 C.2       1 RES1    0.0000
     41 O8        -4.7438   -4.0088   -9.6018 O.2       1 RES1    0.0000
     42 C11       -8.6306   -3.0386   -8.6162 C.2       1 RES1    0.0000
     43 H15       -7.7783   -2.6531   -8.7816 H         1 RES1    0.0000
     44 C12       -8.8655    1.1771   -2.5457 C.2       1 RES1    0.0000
     45 C13      -10.5335   -1.8126   -2.3289 C.2       1 RES1    0.0000
     46 O9        -7.4625    5.6935   -8.9849 O.2       1 RES1    0.0000
     47 C14       -6.7007   -3.8396   -6.4191 C.2       1 RES1    0.0000
     48 C15       -1.3697   -4.7760   -8.7614 C.2       1 RES1    0.0000
     49 H16       -1.7585   -4.8211   -9.6264 H         1 RES1    0.0000
     50 O10       -4.3486    1.0229   -7.9322 O.2       1 RES1    0.0000
     51 C16      -10.9652   -2.5459   -4.6489 C.3       1 RES1    0.0000
     52 H17      -11.7651   -2.9333   -4.1885 H         1 RES1    0.0000
     53 C17        0.1317   -4.5071   -7.1343 C.ar      1 RES1    0.0000
     54 C18        0.9792   -4.1085   -9.5191 C.3       1 RES1    0.0000
     55 C19       -9.5257   -2.3805    0.5901 C.3       1 RES1    0.0000
     56 H18       -9.9558   -3.0423   -0.0246 H         1 RES1    0.0000
     57 C20       -9.6717   -0.8969   -1.4416 C.3       1 RES1    0.0000
     58 H19       -8.7195   -1.1677   -1.5735 H         1 RES1    0.0000
     59 C21       -1.1983   -4.9320   -5.1630 C.ar      1 RES1    0.0000
     60 H20       -2.0283   -5.1351   -4.7495 H         1 RES1    0.0000
     61 C22      -11.1255    1.0774   -1.7523 C.3       1 RES1    0.0000
     62 H21      -11.1287    1.9593   -2.1814 H         1 RES1    0.0000
     63 H22      -11.3540    1.1771   -0.8046 H         1 RES1    0.0000
     64 H23      -11.7841    0.4983   -2.1904 H         1 RES1    0.0000
     65 C23       -4.5645   -0.0188   -7.3623 C.2       1 RES1    0.0000
     66 C24       -2.0505   -4.9997   -7.5970 C.2       1 RES1    0.0000
     67 C25       -3.5471   -5.3589   -7.4137 C.3       1 RES1    0.0000
     68 H24       -3.8503   -5.8835   -8.1960 H         1 RES1    0.0000
     69 H25       -3.6455   -5.9286   -6.6113 H         1 RES1    0.0000
     70 C26       -4.4407   -3.3902   -8.5871 C.2       1 RES1    0.0000
     71 C27        1.1538   -4.4375   -5.0155 C.ar      1 RES1    0.0000
     72 H26        1.9236   -4.3341   -4.4701 H         1 RES1    0.0000
     73 C28       -9.6812   -2.4087   -9.0296 C.2       1 RES1    0.0000
     74 H27      -10.5319   -2.7866   -8.8374 H         1 RES1    0.0000
     75 C29       -3.6630   -1.2466   -7.5210 C.3       1 RES1    0.0000
     76 H28       -3.7312   -1.7919   -6.6851 H         1 RES1    0.0000
     77 C30        1.2665   -4.2871   -6.3610 C.ar      1 RES1    0.0000
     78 H29        2.0934   -4.0426   -6.7588 H         1 RES1    0.0000
     79 C31       -9.9955   -1.0925    0.0402 C.3       1 RES1    0.0000
     80 H30       -9.5813   -0.3554    0.5565 H         1 RES1    0.0000
     81 H31      -10.9747   -1.0304    0.1632 H         1 RES1    0.0000
     82 C32       -0.0857   -4.7440   -4.4098 C.ar      1 RES1    0.0000
     83 H32       -0.1413   -4.8173   -3.4643 H         1 RES1    0.0000
     84 C33      -11.4762   -1.6735   -5.7709 C.3       1 RES1    0.0000
     85 H33      -10.7002   -1.3501   -6.2917 H         1 RES1    0.0000
     86 H34      -12.0254   -2.2338   -6.3744 H         1 RES1    0.0000
     87 C34       -6.5928    1.1978   -1.5668 C.3       1 RES1    0.0000
     88 H35       -5.6754    0.8593   -1.6361 H         1 RES1    0.0000
     89 H36       -6.9768    0.9307   -0.7063 H         1 RES1    0.0000
     90 H37       -6.5832    2.1755   -1.6294 H         1 RES1    0.0000
     91 C35      -10.4034    4.2702   -7.5322 C.ar      1 RES1    0.0000
     92 C36        0.4872   -4.4337  -10.9227 C.3       1 RES1    0.0000
     93 H38        1.2157   -4.2965  -11.5642 H         1 RES1    0.0000
     94 H39       -0.2619   -3.8452  -11.1507 H         1 RES1    0.0000
     95 H40        0.1920   -5.3664  -10.9585 H         1 RES1    0.0000
     96 C37        2.2172   -4.9019   -9.2889 C.3       1 RES1    0.0000
     97 H41        2.0331   -5.8553   -9.0453 H         1 RES1    0.0000
     98 C38       -9.8130    1.9029   -7.0047 C.ar      1 RES1    0.0000
     99 H42      -10.0622    1.0661   -6.6292 H         1 RES1    0.0000
    100 C39       -8.1275    3.2623   -8.0328 C.ar      1 RES1    0.0000
    101 H43       -7.2467    3.4184   -8.3524 H         1 RES1    0.0000
    102 C40       -8.5084    2.0947   -7.5746 C.ar      1 RES1    0.0000
    103 C41      -12.2984   -0.4832   -5.3530 C.3       1 RES1    0.0000
    104 H44      -11.6810    0.1730   -4.9171 H         1 RES1    0.0000
    105 C42      -10.2018   -2.7189    1.9624 C.3       1 RES1    0.0000
    106 H45       -9.8685   -3.5820    2.2865 H         1 RES1    0.0000
    107 H46      -11.1747   -2.7678    1.8439 H         1 RES1    0.0000
    108 H47       -9.9876   -2.0194    2.6128 H         1 RES1    0.0000
    109 C43       -2.2267   -0.8537   -7.7087 C.3       1 RES1    0.0000
    110 H48       -1.6807   -1.6659   -7.8629 H         1 RES1    0.0000
    111 H49       -2.1457   -0.2745   -8.5089 H         1 RES1    0.0000
    112 C44        3.4964   -4.7196   -9.9706 C.3       1 RES1    0.0000
    113 H50        4.0328   -5.5281  -10.1718 H         1 RES1    0.0000
    114 H51        3.5646   -3.9938  -10.6389 H         1 RES1    0.0000
    115 C45       -4.2740   -1.3877   -9.9572 C.3       1 RES1    0.0000
    116 H52       -3.5297   -1.6716  -10.5271 H         1 RES1    0.0000
    117 H53       -4.2375   -0.4155   -9.8343 H         1 RES1    0.0000
    118 H54       -5.1231   -1.6321  -10.3796 H         1 RES1    0.0000
    119 C46       -9.6432   -1.0812   -9.8186 C.3       1 RES1    0.0000
    120 H55      -10.2558   -1.1376  -10.5808 H         1 RES1    0.0000
    121 H56       -8.7322   -0.9195  -10.1405 H         1 RES1    0.0000
    122 H57       -9.9177   -0.3460   -9.2330 H         1 RES1    0.0000
    123 C47      -10.7208    2.9934   -7.0159 C.ar      1 RES1    0.0000
    124 H58      -11.5889    2.8562   -6.6560 H         1 RES1    0.0000
    125 C48        1.2887   -2.5798   -9.3962 C.3       1 RES1    0.0000
    126 H59        0.4730   -2.0664   -9.5750 H         1 RES1    0.0000
    127 H60        1.9791   -2.3335  -10.0444 H         1 RES1    0.0000
    128 H61        1.6061   -2.3842   -8.4888 H         1 RES1    0.0000
    129 C49       -1.7172   -0.1448   -6.5487 C.3       1 RES1    0.0000
    130 H62       -2.4505    0.4494   -6.2202 H         1 RES1    0.0000
    131 C50      -13.4077   -0.7653   -4.3964 C.3       1 RES1    0.0000
    132 H63      -13.9521    0.0414   -4.2801 H         1 RES1    0.0000
    133 H64      -13.0332   -1.0342   -3.5314 H         1 RES1    0.0000
    134 H65      -13.9680   -1.4873   -4.7495 H         1 RES1    0.0000
    135 C51      -12.8919    0.1786   -6.5599 C.3       1 RES1    0.0000
    136 H66      -12.1762    0.5810   -7.0963 H         1 RES1    0.0000
    137 H67      -13.5172    0.8781   -6.2738 H         1 RES1    0.0000
    138 H68      -13.3681   -0.4870   -7.0963 H         1 RES1    0.0000
    139 C52       -0.5110    0.7465   -6.8549 C.3       1 RES1    0.0000
    140 H69       -0.7602    1.4140   -7.5277 H         1 RES1    0.0000
    141 H70        0.2238    0.1974   -7.1991 H         1 RES1    0.0000
    142 H71       -0.2238    1.2015   -6.0347 H         1 RES1    0.0000
    143 C53       -1.3681   -1.1319   -5.3954 C.3       1 RES1    0.0000
    144 H72       -0.6332   -1.7167   -5.6748 H         1 RES1    0.0000
    145 H73       -2.1553   -1.6772   -5.1831 H         1 RES1    0.0000
    146 H74       -1.0983   -0.6243   -4.6020 H         1 RES1    0.0000
    147 O11        3.3281   -4.3491   -8.5849 O.3       1 RES1    0.0000
    148 O12       -7.4260   -1.8013    0.6236 O.3       1 RES1    0.0000
    149 H75       -6.6578   -2.0119    0.3576 H         1 RES1    0.0000
    150 O13       -7.7910   -4.0013    0.8203 O.2       1 RES1    0.0000
    151 C54       -8.1735   -2.8581    0.6504 C.2       1 RES1    0.0000
    152 H76       -9.6860   -3.1175   -0.0671 Du        2 SUP2    0.0000
    153 O14       -7.2562   -3.1721    1.1444 Du        2 SUP2    0.0000
    154 O15       -7.2546   -1.0210    0.6303 Du        2 SUP2    0.0000
    155 H77       -6.5436   -1.1695    0.2079 Du        2 SUP2    0.0000
    156 C55       -7.8878   -2.1811    0.8516 Du        2 SUP2    0.0000
@<TRIPOS>BOND
     1    1   47 2
     2    2   31 2
     3    3   44 2
     4    4    5 1
     5    6    7 1
     6    8   40 2
     7    9   10 1
     8   11   12 1
     9   13   48 1
    10   14   45 2
    11   15   16 1
    12   17    6 1
    13   18   17 1
    14   19   38 1
    15   20   11 1
    16   21   20 1
    17   22   44 1
    18   23    9 1
    19   24   23 1
    20   25    4 1
    21   26   25 1
    22   27   53 ar
    23   28   20 1
    24   29   28 1
    25   30   28 1
    26   31    9 1
    27   32   33 1
    28   34   70 1
    29   35   17 1
    30   36   35 1
    31   37   35 1
    32   38   91 ar
    33   39   19 2
    34   40    6 1
    35   41   70 2
    36   42   35 1
    37   43   42 1
    38   44   23 1
    39   45   15 1
    40   46   19 2
    41   47    4 1
    42   48   49 1
    43   50   65 2
    44   51   15 1
    45   52   51 1
    46   53   13 1
    47   54   13 1
    48   55   56 1
    49   57   22 1
    50   58   57 1
    51   59   27 ar
    52   60   59 1
    53   61   22 1
    54   62   61 1
    55   63   61 1
    56   64   61 1
    57   65   11 1
    58   66   27 1
    59   67   25 1
    60   68   67 1
    61   69   67 1
    62   70   25 1
    63   71   72 1
    64   73   42 2
    65   74   73 1
    66   75   34 1
    67   76   75 1
    68   77   53 ar
    69   78   77 1
    70   79   55 1
    71   80   79 1
    72   81   79 1
    73   82   59 ar
    74   83   82 1
    75   84   51 1
    76   85   84 1
    77   86   84 1
    78   87   23 1
    79   88   87 1
    80   89   87 1
    81   90   87 1
    82   91   32 1
    83   92   54 1
    84   93   92 1
    85   94   92 1
    86   95   92 1
    87   96   54 1
    88   97   96 1
    89   98   99 1
    90  100   38 ar
    91  101  100 1
    92  102   28 1
    93  103   84 1
    94  104  103 1
    95  105   55 1
    96  106  105 1
    97  107  105 1
    98  108  105 1
    99  109   75 1
   100  110  109 1
   101  111  109 1
   102  112   96 1
   103  113  112 1
   104  114  112 1
   105  115   34 1
   106  116  115 1
   107  117  115 1
   108  118  115 1
   109  119   73 1
   110  120  119 1
   111  121  119 1
   112  122  119 1
   113  123   91 ar
   114  124  123 1
   115  125   54 1
   116  126  125 1
   117  127  125 1
   118  128  125 1
   119  129  109 1
   120  130  129 1
   121  131  103 1
   122  132  131 1
   123  133  131 1
   124  134  131 1
   125  135  103 1
   126  136  135 1
   127  137  135 1
   128  138  135 1
   129  139  129 1
   130  140  139 1
   131  141  139 1
   132  142  139 1
   133  143  129 1
   134  144  143 1
   135  145  143 1
   136  146  143 1
   137  147   96 1
   138  148  149 1
   139  150  151 2
   140  151   55 1
   141   17   47 1
   142   20   31 1
   143   40   51 1
   144   45   57 1
   145   48   66 2
   146   57   79 1
   147   65   75 1
   148   66   67 1
   149   71   77 ar
   150   71   82 ar
   151   98  102 ar
   152   98  123 ar
   153  100  102 ar
   154  112  147 1
   155  148  151 1
@<TRIPOS>SUBSTRUCTURE
     1 RES1 1
     2 SUP2 152

@<TRIPOS>CRYSIN
  15.8709   18.8030   22.3506  90.0000  90.0000  90.0000  19 1

