# MOL2 file generated by ConQuest
# Please check atom types

@<TRIPOS>MOLECULE
VEHTOU
    82    86     2
SMALL
NO_CHARGES
****
Generated from CSD

@<TRIPOS>ATOM
      1 C1         2.5301    8.2052    1.8476 C.ar      1 RES1    0.0000
      2 C2         3.7212    7.9287    2.4868 C.ar      1 RES1    0.0000
      3 H1         4.0069    7.0324    2.6187 H         1 RES1    0.0000
      4 C3         4.4888    8.9915    2.9312 C.ar      1 RES1    0.0000
      5 H2         5.3076    8.8214    3.3827 H         1 RES1    0.0000
      6 C4         4.0758   10.3113    2.7232 C.ar      1 RES1    0.0000
      7 C5         2.8808   10.5340    2.0555 C.ar      1 RES1    0.0000
      8 H3         2.5923   11.4251    1.8987 H         1 RES1    0.0000
      9 C6         2.1013    9.4770    1.6111 C.ar      1 RES1    0.0000
     10 H4         1.2851    9.6359    1.1525 H         1 RES1    0.0000
     11 C7         4.9213   11.4401    3.1842 C.2       1 RES1    0.0000
     12 C8         5.4564   11.5027    4.4152 C.2       1 RES1    0.0000
     13 C9         5.1337   10.5538    5.5154 C.ar      1 RES1    0.0000
     14 C10        3.8930   10.6242    6.1380 C.ar      1 RES1    0.0000
     15 H5         3.2687   11.2907    5.8766 H         1 RES1    0.0000
     16 C11        3.5647    9.7218    7.1384 C.ar      1 RES1    0.0000
     17 H6         2.7145    9.7720    7.5602 H         1 RES1    0.0000
     18 C12        4.4608    8.7556    7.5233 C.ar      1 RES1    0.0000
     19 H7         4.2262    8.1334    8.2018 H         1 RES1    0.0000
     20 C13        5.6899    8.6889    6.9328 C.ar      1 RES1    0.0000
     21 H8         6.3107    8.0245    7.2073 H         1 RES1    0.0000
     22 C14        6.0353    9.5849    5.9348 C.ar      1 RES1    0.0000
     23 H9         6.8949    9.5352    5.5332 H         1 RES1    0.0000
     24 C15        6.4315   12.5633    4.7514 C.2       1 RES1    0.0000
     25 C16        5.6454   13.8303    2.8254 C.3       1 RES1    0.0000
     26 C17        6.4169   14.6943    1.8476 C.3       1 RES1    0.0000
     27 H10        7.2126   14.2109    1.5410 H         1 RES1    0.0000
     28 H11        6.6898   15.5251    2.2896 H         1 RES1    0.0000
     29 H12        5.8471   14.9050    1.0788 H         1 RES1    0.0000
     30 C18        4.4851   14.5513    3.4326 C.3       1 RES1    0.0000
     31 H13        3.8848   14.8607    2.7220 H         1 RES1    0.0000
     32 H14        4.8102   15.3211    3.9446 H         1 RES1    0.0000
     33 H15        3.9993   13.9443    4.0302 H         1 RES1    0.0000
     34 C19        5.2473   12.5139    2.1862 C.3       1 RES1    0.0000
     35 H16        4.4578   12.6642    1.6076 H         1 RES1    0.0000
     36 H17        5.9882   12.2006    1.6088 H         1 RES1    0.0000
     37 N1         1.7068    7.0759    1.3889 N.pl3     1 RES1    0.0000
     38 O1         0.7026    7.3246    0.7319 O.2       1 RES1    0.0000
     39 O2         2.0600    5.9398    1.6919 O.2       1 RES1    0.0000
     40 O3         7.1064   12.5506    5.7601 O.2       1 RES1    0.0000
     41 O4         6.6372   13.5643    3.8841 O.3       1 RES1    0.0000
     42 C20        1.8574    5.3214    5.8766 C.ar      2 RES2    0.0000
     43 C21        3.0383    5.9139    6.2461 C.ar      2 RES2    0.0000
     44 H18        3.3078    6.7412    5.8635 H         2 RES2    0.0000
     45 C22        3.8276    5.2827    7.1883 C.ar      2 RES2    0.0000
     46 H19        4.6401    5.6915    7.4627 H         2 RES2    0.0000
     47 C23        3.4575    4.0549    7.7455 C.ar      2 RES2    0.0000
     48 C24        2.2580    3.4867    7.3214 C.ar      2 RES2    0.0000
     49 H20        1.9899    2.6487    7.6802 H         2 RES2    0.0000
     50 C25        1.4478    4.1149    6.3899 C.ar      2 RES2    0.0000
     51 H21        0.6292    3.7206    6.1130 H         2 RES2    0.0000
     52 C26        4.3614    3.3454    8.6865 C.2       2 RES2    0.0000
     53 C27        5.0913    3.9467    9.6561 C.2       2 RES2    0.0000
     54 C28        4.9468    5.3723   10.0779 C.ar      2 RES2    0.0000
     55 C29        3.7706    5.7929   10.6791 C.ar      2 RES2    0.0000
     56 H22        3.0478    5.1852   10.7801 H         2 RES2    0.0000
     57 C30        3.6419    7.1022   11.1365 C.ar      2 RES2    0.0000
     58 H23        2.8330    7.3905   11.5440 H         2 RES2    0.0000
     59 C31        4.7009    7.9806   10.9939 C.ar      2 RES2    0.0000
     60 H24        4.6201    8.8722   11.3100 H         2 RES2    0.0000
     61 C32        5.8620    7.5746   10.3998 C.ar      2 RES2    0.0000
     62 H25        6.5817    8.1871   10.3036 H         2 RES2    0.0000
     63 C33        5.9950    6.2793    9.9377 C.ar      2 RES2    0.0000
     64 H26        6.8052    6.0054    9.5230 H         2 RES2    0.0000
     65 C34        6.1117    3.1798   10.3915 C.2       2 RES2    0.0000
     66 C35        5.0455    1.1189    9.6513 C.3       2 RES2    0.0000
     67 C36        5.6400   -0.2192    9.2533 C.3       2 RES2    0.0000
     68 H27        4.9474   -0.7734    8.8386 H         2 RES2    0.0000
     69 H28        5.9869   -0.6715   10.0505 H         2 RES2    0.0000
     70 H29        6.3700   -0.0750    8.6153 H         2 RES2    0.0000
     71 C37        3.9679    0.9853   10.7159 C.3       2 RES2    0.0000
     72 H30        3.6178    1.8740   10.9393 H         2 RES2    0.0000
     73 H31        4.3509    0.5741   11.5191 H         2 RES2    0.0000
     74 H32        3.2403    0.4237   10.3761 H         2 RES2    0.0000
     75 C38        4.5577    1.8793    8.4287 C.3       2 RES2    0.0000
     76 H33        5.2137    1.7658    7.6968 H         2 RES2    0.0000
     77 H34        3.6990    1.4882    8.1281 H         2 RES2    0.0000
     78 N2         1.0116    6.0043    4.8773 N.pl3     2 RES2    0.0000
     79 O5         1.3956    7.0750    4.4375 O.2       2 RES2    0.0000
     80 O6        -0.0332    5.4771    4.5447 O.2       2 RES2    0.0000
     81 O7         6.9448    3.6974   11.1080 O.2       2 RES2    0.0000
     82 O8         6.1791    1.8370   10.2413 O.3       2 RES2    0.0000
@<TRIPOS>BOND
     1    1    2 ar
     2    2    3 1
     3    4    2 ar
     4    5    4 1
     5    6    4 ar
     6    7    6 ar
     7    8    7 1
     8    9    1 ar
     9   10    9 1
    10   11    6 1
    11   12   11 2
    12   13   12 1
    13   14   13 ar
    14   15   14 1
    15   16   14 ar
    16   17   16 1
    17   18   16 ar
    18   19   18 1
    19   20   18 ar
    20   21   20 1
    21   22   13 ar
    22   23   22 1
    23   24   12 1
    24   25   26 1
    25   26   27 1
    26   28   26 1
    27   29   26 1
    28   30   25 1
    29   31   30 1
    30   32   30 1
    31   33   30 1
    32   34   11 1
    33   35   34 1
    34   36   34 1
    35   37    1 1
    36   38   37 2
    37   39   37 2
    38   40   24 2
    39   41   24 1
    40   42   43 ar
    41   43   44 1
    42   45   43 ar
    43   46   45 1
    44   47   45 ar
    45   48   47 ar
    46   49   48 1
    47   50   42 ar
    48   51   50 1
    49   52   47 1
    50   53   52 2
    51   54   53 1
    52   55   54 ar
    53   56   55 1
    54   57   55 ar
    55   58   57 1
    56   59   57 ar
    57   60   59 1
    58   61   59 ar
    59   62   61 1
    60   63   54 ar
    61   64   63 1
    62   65   53 1
    63   66   67 1
    64   67   68 1
    65   69   67 1
    66   70   67 1
    67   71   66 1
    68   72   71 1
    69   73   71 1
    70   74   71 1
    71   75   52 1
    72   76   75 1
    73   77   75 1
    74   78   42 1
    75   79   78 2
    76   80   78 2
    77   81   65 2
    78   82   65 1
    79    7    9 ar
    80   20   22 ar
    81   25   34 1
    82   25   41 1
    83   48   50 ar
    84   61   63 ar
    85   66   75 1
    86   66   82 1
@<TRIPOS>SUBSTRUCTURE
     1 RES1 1
     2 RES2 42

@<TRIPOS>CRYSIN
   5.8255   11.6538   12.2798  75.4650  87.3710  86.1170   1 1

