# MOL2 file generated by ConQuest
# Please check atom types

@<TRIPOS>MOLECULE
VEJDAP
    35    35     1
SMALL
NO_CHARGES
****
Generated from CSD

@<TRIPOS>ATOM
      1 O1        -1.4502   17.9733    9.5939 O.3       1 RES1    0.0000
      2 O2         6.3519   19.4296    1.6344 O.2       1 RES1    0.0000
      3 N1         5.3411   19.4141    2.4184 N.3       1 RES1    0.0000
      4 C1        -1.7231   19.0081    8.6680 C.3       1 RES1    0.0000
      5 C2        -0.5756   19.2376    7.7839 C.1       1 RES1    0.0000
      6 C3         0.3317   19.3678    7.0315 C.1       1 RES1    0.0000
      7 C4         1.3616   19.4538    6.1036 C.1       1 RES1    0.0000
      8 C5         2.2320   19.4980    5.2982 C.1       1 RES1    0.0000
      9 C6         3.2855   19.4980    4.3171 C.2       1 RES1    0.0000
     10 C7         4.0773   18.2447    4.1609 C.3       1 RES1    0.0000
     11 C8         4.7384   18.1013    2.7849 C.3       1 RES1    0.0000
     12 C9         4.6434   20.7093    2.5950 C.3       1 RES1    0.0000
     13 C10        3.5574   20.5967    3.6046 C.2       1 RES1    0.0000
     14 C11        3.7254   17.7108    1.7150 C.3       1 RES1    0.0000
     15 C12        5.8394   17.0709    2.8992 C.3       1 RES1    0.0000
     16 C13        5.6827   21.7352    3.0523 C.3       1 RES1    0.0000
     17 C14        4.0254   21.1351    1.2434 C.3       1 RES1    0.0000
     18 H1        -1.6292   18.3352   10.3615 H         1 RES1    0.0000
     19 H2        -2.6690   18.8427    8.0136 H         1 RES1    0.0000
     20 H3        -1.9393   19.7693    9.0855 H         1 RES1    0.0000
     21 H4         4.9696   18.3572    4.9102 H         1 RES1    0.0000
     22 H5         3.4118   17.5188    4.2263 H         1 RES1    0.0000
     23 H6         3.0319   21.4903    3.6240 H         1 RES1    0.0000
     24 H7         3.3972   16.8569    1.7865 H         1 RES1    0.0000
     25 H8         2.7769   18.3793    1.7558 H         1 RES1    0.0000
     26 H9         4.1346   17.7174    0.8371 H         1 RES1    0.0000
     27 H10        6.6419   17.4306    3.4913 H         1 RES1    0.0000
     28 H11        6.3885   16.9231    2.1029 H         1 RES1    0.0000
     29 H12        5.4748   16.2612    3.2973 H         1 RES1    0.0000
     30 H13        6.2773   21.7772    2.2254 H         1 RES1    0.0000
     31 H14        5.2242   22.5273    3.1238 H         1 RES1    0.0000
     32 H15        6.2005   21.3359    3.9915 H         1 RES1    0.0000
     33 H16        4.8409   21.1373    0.6840 H         1 RES1    0.0000
     34 H17        3.1138   20.4092    1.1433 H         1 RES1    0.0000
     35 H18        3.5590   21.8875    1.3679 H         1 RES1    0.0000
@<TRIPOS>BOND
     1    1    4 1
     2    2    3 1
     3    3   11 1
     4    4    5 1
     5    5    6 3
     6    6    7 1
     7    7    8 3
     8    8    9 1
     9    9   10 1
    10   10   11 1
    11   11   14 1
    12   12    3 1
    13   13    9 2
    14   14   24 1
    15   15   11 1
    16   16   12 1
    17   17   12 1
    18   18    1 1
    19   19    4 1
    20   20    4 1
    21   21   10 1
    22   22   10 1
    23   23   13 1
    24   25   14 1
    25   26   14 1
    26   27   15 1
    27   28   15 1
    28   29   15 1
    29   30   16 1
    30   31   16 1
    31   32   16 1
    32   33   17 1
    33   34   17 1
    34   35   17 1
    35   12   13 1
@<TRIPOS>SUBSTRUCTURE
     1 RES1 1

@<TRIPOS>CRYSIN
   5.7600   22.0640   10.5200  90.0000 103.9800  90.0000 231 1

