# MOL2 file generated by ConQuest
# Please check atom types

@<TRIPOS>MOLECULE
VEJDAP01
    35    35     1
SMALL
NO_CHARGES
****
Generated from CSD

@<TRIPOS>ATOM
      1 O1        -1.4544    4.0948    9.6121 O.3       1 RES1    0.0000
      2 O2         6.3317    2.6612    1.6422 O.2       1 RES1    0.0000
      3 N1         5.3231    2.6723    2.4368 N.3       1 RES1    0.0000
      4 C1         4.7286    3.9818    2.8039 C.3       1 RES1    0.0000
      5 C2         4.0662    3.8245    4.1792 C.3       1 RES1    0.0000
      6 C3         3.2801    2.5814    4.3357 C.2       1 RES1    0.0000
      7 C4         3.5542    1.4890    3.6342 C.2       1 RES1    0.0000
      8 C5         4.6325    1.3738    2.6004 C.3       1 RES1    0.0000
      9 C6         5.6549    0.3434    3.0503 C.3       1 RES1    0.0000
     10 C7         3.7202    4.3939    1.7455 C.3       1 RES1    0.0000
     11 C8         5.8309    5.0121    2.9317 C.3       1 RES1    0.0000
     12 C9         4.0207    0.9484    1.2588 C.3       1 RES1    0.0000
     13 C10        2.2267    2.5770    5.3133 C.1       1 RES1    0.0000
     14 C11        1.3602    2.6191    6.1293 C.1       1 RES1    0.0000
     15 C12        0.3319    2.7077    7.0506 C.1       1 RES1    0.0000
     16 C13       -0.5667    2.8318    7.8155 C.1       1 RES1    0.0000
     17 C14       -1.7041    3.0489    8.7143 C.3       1 RES1    0.0000
     18 H1        -1.5869    3.7447   10.4087 H         1 RES1    0.0000
     19 H2         3.4889    4.6355    4.2774 H         1 RES1    0.0000
     20 H3         4.8671    3.8112    4.9543 H         1 RES1    0.0000
     21 H4         3.0484    0.6448    3.7549 H         1 RES1    0.0000
     22 H5         5.2531   -0.5296    3.2139 H         1 RES1    0.0000
     23 H6         6.1074    0.6537    3.8725 H         1 RES1    0.0000
     24 H7         6.2877    0.2171    2.3294 H         1 RES1    0.0000
     25 H8         3.4222    5.3534    1.9572 H         1 RES1    0.0000
     26 H9         2.9277    3.7602    1.7015 H         1 RES1    0.0000
     27 H10        4.1599    4.4781    0.9305 H         1 RES1    0.0000
     28 H11        5.4268    5.8630    3.3029 H         1 RES1    0.0000
     29 H12        6.1691    5.2470    2.0226 H         1 RES1    0.0000
     30 H13        6.5100    4.7041    3.5371 H         1 RES1    0.0000
     31 H14        3.5686    0.0886    1.4255 H         1 RES1    0.0000
     32 H15        4.7821    0.9018    0.5379 H         1 RES1    0.0000
     33 H16        3.3887    1.5577    0.9581 H         1 RES1    0.0000
     34 H17       -2.5507    3.1841    8.1519 H         1 RES1    0.0000
     35 H18       -1.8679    2.2047    9.2327 H         1 RES1    0.0000
@<TRIPOS>BOND
     1    1   17 1
     2    2    3 1
     3    3    4 1
     4    4    5 1
     5    5    6 1
     6    6    7 2
     7    7    8 1
     8    8    3 1
     9    9    8 1
    10   10    4 1
    11   11    4 1
    12   12    8 1
    13   13    6 1
    14   14   13 3
    15   15   14 1
    16   16   15 3
    17   17   16 1
    18   18    1 1
    19   19    5 1
    20   20    5 1
    21   21    7 1
    22   22    9 1
    23   23    9 1
    24   24    9 1
    25   25   10 1
    26   26   10 1
    27   27   10 1
    28   28   11 1
    29   29   11 1
    30   30   11 1
    31   31   12 1
    32   32   12 1
    33   33   12 1
    34   34   17 1
    35   35   17 1
@<TRIPOS>SUBSTRUCTURE
     1 RES1 1

@<TRIPOS>CRYSIN
   5.7640   22.1580   10.5410  90.0000 104.0500  90.0000 231 1

