# MOL2 file generated by ConQuest
# Please check atom types

@<TRIPOS>MOLECULE
VEJLAZ
    59    61     1
SMALL
NO_CHARGES
****
Generated from CSD

@<TRIPOS>ATOM
      1 N1        -0.5461    1.8241    3.9762 N.1       1 RES1    0.0000
      2 N2         3.4423    3.2484    4.4754 N.1       1 RES1    0.0000
      3 N3        -5.0535    6.2948    3.4807 N.pl3     1 RES1    0.0000
      4 O1         0.2951    3.7239    6.3490 O.2       1 RES1    0.0000
      5 O2         1.2527    5.2425    7.6333 O.3       1 RES1    0.0000
      6 O3         2.2121    6.8390    0.1868 O.2       1 RES1    0.0000
      7 O4         1.1222    5.1120   -0.6845 O.3       1 RES1    0.0000
      8 O5        -5.6868    5.6600    2.6760 O.2       1 RES1    0.0000
      9 O6        -5.5430    7.1464    4.1657 O.2       1 RES1    0.0000
     10 C1         0.6218    5.2900    3.9650 C.3       1 RES1    0.0000
     11 C2         1.0778    3.8219    3.5193 C.3       1 RES1    0.0000
     12 C3         1.2838    3.9391    1.9835 C.2       1 RES1    0.0000
     13 C4         1.3515    5.2265    1.6569 C.2       1 RES1    0.0000
     14 C5         1.2424    6.1582    2.8277 C.3       1 RES1    0.0000
     15 H1         0.6685    6.9111    2.6162 H         1 RES1    0.0000
     16 H2         2.1164    6.4916    3.0863 H         1 RES1    0.0000
     17 C6         1.1623    5.6834    5.3405 C.2       1 RES1    0.0000
     18 C7         1.8184    6.8057    5.5639 C.2       1 RES1    0.0000
     19 H3         2.0845    7.0241    6.4274 H         1 RES1    0.0000
     20 H4         2.0146    7.3787    4.8573 H         1 RES1    0.0000
     21 C8         0.8470    4.7644    6.4730 C.2       1 RES1    0.0000
     22 C9         1.0634    4.4015    8.8090 C.3       1 RES1    0.0000
     23 H5         1.4768    3.5345    8.6733 H         1 RES1    0.0000
     24 H6         0.1183    4.2699    8.9819 H         1 RES1    0.0000
     25 C10        1.6968    5.0997    9.9356 C.3       1 RES1    0.0000
     26 H7         2.6327    5.2128    9.7558 H         1 RES1    0.0000
     27 H8         1.5847    4.5826   10.7371 H         1 RES1    0.0000
     28 H9         1.2855    5.9605   10.0502 H         1 RES1    0.0000
     29 C11       -0.9047    5.4623    3.8987 C.ar      1 RES1    0.0000
     30 C12       -1.6688    4.9135    2.8712 C.ar      1 RES1    0.0000
     31 H10       -1.2598    4.3473    2.2569 H         1 RES1    0.0000
     32 C13       -3.0133    5.1852    2.7401 C.ar      1 RES1    0.0000
     33 H11       -3.5017    4.8133    2.0417 H         1 RES1    0.0000
     34 C14       -3.6200    6.0053    3.6443 C.ar      1 RES1    0.0000
     35 C15       -2.8990    6.5730    4.6752 C.ar      1 RES1    0.0000
     36 H12       -3.3186    7.1325    5.2878 H         1 RES1    0.0000
     37 C16       -1.5567    6.3062    4.7894 C.ar      1 RES1    0.0000
     38 H13       -1.0726    6.6990    5.4793 H         1 RES1    0.0000
     39 C17        0.1422    2.7225    3.8313 C.1       1 RES1    0.0000
     40 C18        2.4007    3.4862    4.0995 C.1       1 RES1    0.0000
     41 C19        1.5347    2.7188    1.1804 C.ar      1 RES1    0.0000
     42 C20        2.8374    2.3389    0.9052 C.ar      1 RES1    0.0000
     43 H14        3.5438    2.8796    1.1775 H         1 RES1    0.0000
     44 C21        3.0955    1.1536    0.2244 C.ar      1 RES1    0.0000
     45 H15        3.9758    0.9010    0.0601 H         1 RES1    0.0000
     46 C22        2.0671    0.3476   -0.2111 C.ar      1 RES1    0.0000
     47 C23        0.7692    0.7343    0.0543 C.ar      1 RES1    0.0000
     48 H16        0.0658    0.1982   -0.2342 H         1 RES1    0.0000
     49 C24        0.4946    1.9071    0.7429 C.ar      1 RES1    0.0000
     50 H17       -0.3867    2.1504    0.9116 H         1 RES1    0.0000
     51 C25        2.3530   -0.9283   -0.9783 C.3       1 RES1    0.0000
     52 H18        2.0208   -0.8438   -1.8755 H         1 RES1    0.0000
     53 H19        1.9179   -1.6659   -0.5445 H         1 RES1    0.0000
     54 H20        3.3001   -1.0837   -1.0003 H         1 RES1    0.0000
     55 C26        1.6250    5.8152    0.3175 C.2       1 RES1    0.0000
     56 C27        1.2217    5.7356   -1.9934 C.3       1 RES1    0.0000
     57 H21        0.8155    6.6046   -1.9657 H         1 RES1    0.0000
     58 H22        0.7703    5.1911   -2.6431 H         1 RES1    0.0000
     59 H23        2.1462    5.8227   -2.2364 H         1 RES1    0.0000
@<TRIPOS>BOND
     1    1   39 3
     2    2   40 3
     3    3    8 2
     4    4   21 2
     5    5   21 1
     6    6   55 2
     7    7   55 1
     8    9    3 2
     9   10   11 1
    10   11   12 1
    11   12   13 2
    12   13   14 1
    13   14   10 1
    14   15   14 1
    15   16   14 1
    16   17   10 1
    17   18   17 2
    18   19   18 1
    19   20   18 1
    20   21   17 1
    21   22    5 1
    22   23   22 1
    23   24   22 1
    24   25   22 1
    25   26   25 1
    26   27   25 1
    27   28   25 1
    28   29   10 1
    29   30   29 ar
    30   31   30 1
    31   32   30 ar
    32   33   32 1
    33   34    3 1
    34   35   34 ar
    35   36   35 1
    36   37   29 ar
    37   38   37 1
    38   39   11 1
    39   40   11 1
    40   41   12 1
    41   42   41 ar
    42   43   42 1
    43   44   42 ar
    44   45   44 1
    45   46   44 ar
    46   47   46 ar
    47   48   47 1
    48   49   41 ar
    49   50   49 1
    50   51   46 1
    51   52   51 1
    52   53   51 1
    53   54   51 1
    54   55   13 1
    55   56    7 1
    56   57   56 1
    57   58   56 1
    58   59   56 1
    59   32   34 ar
    60   35   37 ar
    61   47   49 ar
@<TRIPOS>SUBSTRUCTURE
     1 RES1 1

@<TRIPOS>CRYSIN
  10.2839   15.4819   15.8271  90.0000  90.0000  90.0000  19 1

