# MOL2 file generated by ConQuest
# Please check atom types

@<TRIPOS>MOLECULE
VEJROR
    39    27     2
SMALL
NO_CHARGES
****
Generated from CSD

@<TRIPOS>ATOM
      1 O1         0.3917    1.4248    0.7318 O.3       1 RES1    0.0000
      2 N1         1.1719    0.2650    0.9135 N.2       1 RES1    0.0000
      3 C1         3.1922   -0.5466    1.8464 C.2       1 RES1    0.0000
      4 C2         4.3404   -0.2631    2.4395 C.2       1 RES1    0.0000
      5 C3         5.3894   -1.2649    2.7986 C.3       1 RES1    0.0000
      6 C4         5.1506   -2.5981    2.1072 C.3       1 RES1    0.0000
      7 C5         3.7044   -2.9705    2.1930 C.3       1 RES1    0.0000
      8 C6         2.8229   -1.9546    1.4889 C.3       1 RES1    0.0000
      9 C7         2.2581    0.5165    1.5259 C.2       1 RES1    0.0000
     10 C8         6.1421   -3.6511    2.5488 C.2       1 RES1    0.0000
     11 C9         7.0891   -4.0530    1.7522 C.2       1 RES1    0.0000
     12 C10        6.0751   -4.2550    3.9612 C.3       1 RES1    0.0000
     13 H1         4.5162    0.6761    2.6598 H         1 RES1    0.0000
     14 H2         5.3391   -2.5076    1.1499 H         1 RES1    0.0000
     15 H3         2.4669    1.4397    1.7833 H         1 RES1    0.0000
     16 H4         4.1359   -2.9470    3.5330 Du        2 SUP2    0.0000
     17 H5         5.3747   -1.4053    3.7685 H         1 RES1    0.0000
     18 H6         6.2661   -0.9196    2.5320 H         1 RES1    0.0000
     19 H7         5.7466   -1.0515    3.6861 Du        2 SUP2    0.0000
     20 H8         6.1115   -1.2266    2.1375 Du        2 SUP2    0.0000
     21 H9         3.4411   -3.0295    3.1351 H         1 RES1    0.0000
     22 H10        3.5820   -3.8425    1.7640 H         1 RES1    0.0000
     23 H11        1.8926   -2.1124    1.7539 H         1 RES1    0.0000
     24 H12        2.9100   -2.0671    0.5190 H         1 RES1    0.0000
     25 H13        2.2402   -2.3217    2.1863 Du        2 SUP2    0.0000
     26 H14        2.3452   -1.9511    0.6334 Du        2 SUP2    0.0000
     27 H15        7.1508   -3.7149    0.8336 H         1 RES1    0.0000
     28 H16        7.7271   -4.7383    2.0424 H         1 RES1    0.0000
     29 H17        6.7699   -4.9299    4.1092 H         1 RES1    0.0000
     30 H18        6.2005   -3.5151    4.5912 H         1 RES1    0.0000
     31 H19        5.1930   -4.6584    4.1025 H         1 RES1    0.0000
     32 H20        3.9158   -3.8067    1.1608 Du        2 SUP2    0.0000
     33 H21        4.7550   -2.5255    0.6982 Du        2 SUP2    0.0000
     34 H22        5.2979   -3.7401    4.8453 Du        2 SUP2    0.0000
     35 H23        6.5757   -4.7011    4.2228 Du        2 SUP2    0.0000
     36 H24        7.3810   -4.8672    2.2039 Du        2 SUP2    0.0000
     37 H25        6.1599   -4.6333    1.1945 Du        2 SUP2    0.0000
     38 H26        7.1948   -3.4542    1.4889 Du        2 SUP2    0.0000
     39 H27       -0.2056    1.0939    0.2355 H         1 RES1    0.0000
@<TRIPOS>BOND
     1    1    2 1
     2    2    9 2
     3    3    4 2
     4    4    5 1
     5    5    6 1
     6    6    7 1
     7    7    8 1
     8    8    3 1
     9    9    3 1
    10   10    6 1
    11   11   10 2
    12   12   10 1
    13   13    4 1
    14   14    6 1
    15   15    9 1
    16   17    5 1
    17   18    5 1
    18   21    7 1
    19   22    7 1
    20   23    8 1
    21   24    8 1
    22   27   11 1
    23   28   11 1
    24   29   12 1
    25   30   12 1
    26   31   12 1
    27   39    1 1
@<TRIPOS>SUBSTRUCTURE
     1 RES1 1
     2 SUP2 16

@<TRIPOS>CRYSIN
   7.3217    8.1899    8.8402 104.5510  96.2150 104.5910   2 1

