# MOL2 file generated by ConQuest
# Please check atom types

@<TRIPOS>MOLECULE
VEJVAI
    44    44     1
SMALL
NO_CHARGES
****
Generated from CSD

@<TRIPOS>ATOM
      1 O1         6.3457   -1.8109    1.8395 O.3       1 RES1    0.0000
      2 H1         6.6684   -1.7130    0.6935 H         1 RES1    0.0000
      3 N1         5.7979   -0.5256    1.9928 N.3       1 RES1    0.0000
      4 C1         4.3136   -0.3974    1.8456 C.3       1 RES1    0.0000
      5 C2         3.9061   -0.6689    0.4295 C.3       1 RES1    0.0000
      6 H2         4.4408   -0.1748   -0.2312 H         1 RES1    0.0000
      7 H3         2.9407   -0.5127    0.3285 H         1 RES1    0.0000
      8 H4         3.9559   -1.6431    0.2433 H         1 RES1    0.0000
      9 C3         3.6409   -1.4007    2.7994 C.3       1 RES1    0.0000
     10 H5         3.8904   -1.2003    3.6985 H         1 RES1    0.0000
     11 H6         3.8526   -2.3656    2.5305 H         1 RES1    0.0000
     12 H7         2.4803   -1.3517    2.4940 H         1 RES1    0.0000
     13 C4         4.1958    1.0697    2.3140 C.3       1 RES1    0.0000
     14 C5         2.8396    1.4228    2.8858 C.3       1 RES1    0.0000
     15 H8         2.8923    2.5170    3.1145 H         1 RES1    0.0000
     16 H9         2.5822    0.7924    3.7958 H         1 RES1    0.0000
     17 H10        2.1279    1.3634    2.1899 H         1 RES1    0.0000
     18 C6         4.5435    2.0637    1.2154 C.3       1 RES1    0.0000
     19 H11        4.6663    2.9948    1.5208 H         1 RES1    0.0000
     20 H12        3.7934    1.8994    0.4380 H         1 RES1    0.0000
     21 H13        5.2911    1.8528    0.8516 H         1 RES1    0.0000
     22 N2         5.2346    1.0837    3.3359 N.pl3     1 RES1    0.0000
     23 H14        5.3904    1.8878    4.0270 H         1 RES1    0.0000
     24 C7         6.1700    0.1969    3.1133 C.2       1 RES1    0.0000
     25 C8         7.3263   -0.0350    3.8530 C.2       1 RES1    0.0000
     26 H15        7.7193   -0.6875    3.6255 H         1 RES1    0.0000
     27 O2         6.8825    1.6209    5.4200 O.2       1 RES1    0.0000
     28 C9         7.5894    0.6397    5.0136 C.2       1 RES1    0.0000
     29 C10        8.7353    0.1783    5.8957 C.3       1 RES1    0.0000
     30 H16        8.3178   -0.3146    6.6427 H         1 RES1    0.0000
     31 H17        9.4550   -0.3496    5.3044 H         1 RES1    0.0000
     32 C11        9.5353    1.3354    6.4845 C.3       1 RES1    0.0000
     33 H18        9.0055    2.2607    7.0441 H         1 RES1    0.0000
     34 H19       10.3994    0.9439    7.1171 H         1 RES1    0.0000
     35 C12       10.2815    2.0603    5.4686 C.3       1 RES1    0.0000
     36 H20        9.7875    2.5870    4.6231 H         1 RES1    0.0000
     37 H21       10.8240    1.6780    4.5866 H         1 RES1    0.0000
     38 C13       11.0711    3.2337    6.1086 C.3       1 RES1    0.0000
     39 H22       10.6462    4.1834    6.2655 H         1 RES1    0.0000
     40 H23       11.8957    2.8783    6.7035 H         1 RES1    0.0000
     41 C14       11.7822    4.0191    5.0599 C.3       1 RES1    0.0000
     42 H24       12.2648    4.7393    5.4711 H         1 RES1    0.0000
     43 H25       11.1407    4.3769    4.4394 H         1 RES1    0.0000
     44 H26       12.3952    3.4481    4.5915 H         1 RES1    0.0000
@<TRIPOS>BOND
     1    1    2 1
     2    3    1 1
     3    4    3 1
     4    5    4 1
     5    6    5 1
     6    7    5 1
     7    8    5 1
     8    9    4 1
     9   10    9 1
    10   11    9 1
    11   12    9 1
    12   13    4 1
    13   14   13 1
    14   15   14 1
    15   16   14 1
    16   17   14 1
    17   18   13 1
    18   19   18 1
    19   20   18 1
    20   21   18 1
    21   22   13 1
    22   23   22 1
    23   24    3 1
    24   25   24 2
    25   26   25 1
    26   27   28 2
    27   28   25 1
    28   29   28 1
    29   30   29 1
    30   31   29 1
    31   32   29 1
    32   33   32 1
    33   34   32 1
    34   35   32 1
    35   36   35 1
    36   37   35 1
    37   38   35 1
    38   39   38 1
    39   40   38 1
    40   41   38 1
    41   42   41 1
    42   43   41 1
    43   44   41 1
    44   22   24 1
@<TRIPOS>SUBSTRUCTURE
     1 RES1 1

@<TRIPOS>CRYSIN
  22.5120   11.6530   12.1700  90.0000  91.4590  90.0000  15 1

