# MOL2 file generated by ConQuest
# Please check atom types

@<TRIPOS>MOLECULE
VEJVOW
    32    33     1
SMALL
NO_CHARGES
****
Generated from CSD

@<TRIPOS>ATOM
      1 O1         2.9281    2.1966    5.3498 O.3       1 RES1    0.0000
      2 H1         3.5220    2.7699    5.6421 H         1 RES1    0.0000
      3 N1         1.6824    2.7906    5.7837 N.3       1 RES1    0.0000
      4 C1         0.9014    1.8211    6.6109 C.3       1 RES1    0.0000
      5 C2         1.4714    1.7754    8.0208 C.3       1 RES1    0.0000
      6 H2         0.8189    1.3136    8.5922 H         1 RES1    0.0000
      7 H3         1.6831    2.7199    8.4361 H         1 RES1    0.0000
      8 H4         2.2919    1.2422    8.0637 H         1 RES1    0.0000
      9 C3         0.9142    0.4133    6.0170 C.3       1 RES1    0.0000
     10 H5         1.8414    0.0500    5.9543 H         1 RES1    0.0000
     11 H6         0.5272    0.3855    5.1504 H         1 RES1    0.0000
     12 H7         0.3721   -0.2070    6.6501 H         1 RES1    0.0000
     13 C4        -0.4954    2.4936    6.5050 C.3       1 RES1    0.0000
     14 C5        -0.5953    3.7636    7.3519 C.3       1 RES1    0.0000
     15 H8        -1.4122    4.2334    7.1540 H         1 RES1    0.0000
     16 H9         0.1132    4.3904    7.1663 H         1 RES1    0.0000
     17 H10       -0.5897    3.5552    8.2358 H         1 RES1    0.0000
     18 C6        -1.6604    1.5706    6.8627 C.3       1 RES1    0.0000
     19 H11       -2.4445    2.0060    6.7361 H         1 RES1    0.0000
     20 H12       -1.5442    1.2279    7.8301 H         1 RES1    0.0000
     21 H13       -1.6640    0.7639    6.3551 H         1 RES1    0.0000
     22 N2        -0.5284    2.7549    5.0215 N.3       1 RES1    0.0000
     23 O2        -1.2807    3.9792    4.7571 O.3       1 RES1    0.0000
     24 C7         0.8575    3.0126    4.5846 C.3       1 RES1    0.0000
     25 H14        1.1037    2.3630    3.9175 H         1 RES1    0.0000
     26 C8         0.8781    4.4311    4.0466 C.3       1 RES1    0.0000
     27 H15        1.3785    4.5332    3.2205 H         1 RES1    0.0000
     28 H16        1.1873    4.9972    4.6956 H         1 RES1    0.0000
     29 C9        -0.5728    4.7302    3.7796 C.3       1 RES1    0.0000
     30 H17       -0.8439    5.6754    3.9101 H         1 RES1    0.0000
     31 O3        -0.9288    4.3333    2.4967 O.3       1 RES1    0.0000
     32 H18       -1.4241    4.9901    2.1020 H         1 RES1    0.0000
@<TRIPOS>BOND
     1    1    2 1
     2    3    1 1
     3    4    3 1
     4    5    4 1
     5    6    5 1
     6    7    5 1
     7    8    5 1
     8    9    4 1
     9   10    9 1
    10   11    9 1
    11   12    9 1
    12   13    4 1
    13   14   13 1
    14   15   14 1
    15   16   14 1
    16   17   14 1
    17   18   13 1
    18   19   18 1
    19   20   18 1
    20   21   18 1
    21   22   13 1
    22   23   22 1
    23   24    3 1
    24   25   24 1
    25   26   24 1
    26   27   26 1
    27   28   26 1
    28   29   23 1
    29   30   29 1
    30   31   29 1
    31   32   31 1
    32   22   24 1
    33   26   29 1
@<TRIPOS>SUBSTRUCTURE
     1 RES1 1

@<TRIPOS>CRYSIN
  11.9630    7.1389   13.6260  90.0000 115.5630  90.0000  14 1

