# MOL2 file generated by ConQuest
# Please check atom types

@<TRIPOS>MOLECULE
VEJXAM
    53    54     1
SMALL
USER_CHARGES
****
Generated from CSD

@<TRIPOS>ATOM
      1 O1         2.4739    3.0873   18.5596 O.2       1 RES1    0.0000
      2 O2         2.0921    0.4517   20.7670 O.2       1 RES1    0.0000
      3 O3         2.0379    3.8708   24.0543 O.2       1 RES1   -1.0000
      4 O4         1.5885    2.3919   13.8862 O.2       1 RES1    0.0000
      5 O5         3.6392    3.3885   13.9734 O.3       1 RES1    0.0000
      6 N1         2.6786    2.7317   15.8634 N.am      1 RES1    0.0000
      7 N2         0.6897    1.7280   18.7584 N.am      1 RES1    0.0000
      8 N3         1.6121    2.1091   22.2650 N.am      1 RES1    0.0000
      9 N4         2.6001    2.7002   24.2494 N.pl3     1 RES1    1.0000
     10 C1         3.7399    3.5546   12.5071 C.3       1 RES1    0.0000
     11 C2         5.1263    4.1291   12.3382 C.3       1 RES1    0.0000
     12 H1         5.3029    4.2819   11.3870 H         1 RES1    0.0000
     13 H2         5.1888    4.9799   12.8224 H         1 RES1    0.0000
     14 H3         5.7867    3.5002   12.6955 H         1 RES1    0.0000
     15 C3         2.6875    4.5508   12.0306 C.3       1 RES1    0.0000
     16 H4         2.7570    4.6596   11.0594 H         1 RES1    0.0000
     17 H5         1.7951    4.2173   12.2593 H         1 RES1    0.0000
     18 H6         2.8347    5.4163   12.4662 H         1 RES1    0.0000
     19 C4         3.6373    2.2174   11.7998 C.3       1 RES1    0.0000
     20 H7         3.7068    2.3540   10.8321 H         1 RES1    0.0000
     21 H8         4.3640    1.6325   12.0996 H         1 RES1    0.0000
     22 H9         2.7748    1.8030   12.0095 H         1 RES1    0.0000
     23 C5         2.5536    2.7949   14.5109 C.2       1 RES1    0.0000
     24 C6         1.8384    1.8118   16.5975 C.3       1 RES1    0.0000
     25 H10        0.9339    1.7912   16.1724 H         1 RES1    0.0000
     26 C7         2.4363    0.4012   16.5557 C.3       1 RES1    0.0000
     27 H11        1.8594   -0.2131   17.0550 H         1 RES1    0.0000
     28 H12        2.5033    0.1014   15.6257 H         1 RES1    0.0000
     29 H13        3.3294    0.4129   16.9608 H         1 RES1    0.0000
     30 C8         1.6911    2.2820   18.0473 C.2       1 RES1    0.0000
     31 C9         0.4628    2.1101   20.1426 C.3       1 RES1    0.0000
     32 H14        0.4806    3.1049   20.2370 H         1 RES1    0.0000
     33 C10       -0.9453    1.5664   20.4541 C.3       1 RES1    0.0000
     34 H15       -0.9906    1.2108   21.3776 H         1 RES1    0.0000
     35 H16       -1.6287    2.2747   20.3476 H         1 RES1    0.0000
     36 C11       -1.1500    0.4879   19.4651 C.3       1 RES1    0.0000
     37 H17       -0.8472   -0.3776   19.8377 H         1 RES1    0.0000
     38 H18       -2.1099    0.4129   19.2378 H         1 RES1    0.0000
     39 C12       -0.3678    0.8229   18.2662 C.3       1 RES1    0.0000
     40 H19       -0.9339    1.2755   17.5914 H         1 RES1    0.0000
     41 H20        0.0242    0.0088   17.8617 H         1 RES1    0.0000
     42 C13        1.4916    1.4738   21.0555 C.2       1 RES1    0.0000
     43 C14        2.4255    1.7163   23.3151 C.ar      1 RES1    0.0000
     44 C15        3.0138    0.4732   23.5018 C.ar      1 RES1    0.0000
     45 H21        2.8736   -0.2248   22.8724 H         1 RES1    0.0000
     46 C16        3.8068    0.2586   24.6182 C.ar      1 RES1    0.0000
     47 H22        4.2218   -0.5848   24.7542 H         1 RES1    0.0000
     48 C17        3.9911    1.2813   25.5327 C.ar      1 RES1    0.0000
     49 H23        4.5501    1.1476   26.2899 H         1 RES1    0.0000
     50 C18        3.3670    2.4848   25.3449 C.ar      1 RES1    0.0000
     51 H24        3.4722    3.1754   25.9889 H         1 RES1    0.0000
     52 H25        3.4613    3.0564   16.2687 H         1 RES1    0.0000
     53 H26        1.1984    2.9124   22.3604 H         1 RES1    0.0000
@<TRIPOS>BOND
     1    1   30 2
     2    2   42 2
     3    3    9 1
     4    4   23 2
     5    5   10 1
     6    6   23 1
     7    7   30 1
     8    8   42 1
     9    9   43 ar
    10   10   11 1
    11   11   12 1
    12   13   11 1
    13   14   11 1
    14   15   10 1
    15   16   15 1
    16   17   15 1
    17   18   15 1
    18   19   10 1
    19   20   19 1
    20   21   19 1
    21   22   19 1
    22   23    5 1
    23   24    6 1
    24   25   24 1
    25   26   24 1
    26   27   26 1
    27   28   26 1
    28   29   26 1
    29   30   24 1
    30   31    7 1
    31   32   31 1
    32   33   31 1
    33   34   33 1
    34   35   33 1
    35   36   33 1
    36   37   36 1
    37   38   36 1
    38   39    7 1
    39   40   39 1
    40   41   39 1
    41   42   31 1
    42   43    8 1
    43   44   43 ar
    44   45   44 1
    45   46   44 ar
    46   47   46 1
    47   48   46 ar
    48   49   48 1
    49   50    9 ar
    50   51   50 1
    51   52    6 1
    52   53    8 1
    53   36   39 1
    54   48   50 ar
@<TRIPOS>SUBSTRUCTURE
     1 RES1 1

@<TRIPOS>CRYSIN
   6.3745   14.6943   20.4766  90.0000  90.0000  90.0000  19 1

