# MOL2 file generated by ConQuest
# Please check atom types

@<TRIPOS>MOLECULE
VEKGUN
    63    66     1
SMALL
NO_CHARGES
****
Generated from CSD

@<TRIPOS>ATOM
      1 O1         3.9193    4.2171    3.8748 O.3       1 RES1    0.0000
      2 O2         2.5915    3.4689    6.2271 O.3       1 RES1    0.0000
      3 O3        -0.2157    3.8282    5.4127 O.3       1 RES1    0.0000
      4 O4        -1.1482    6.0260    4.1263 O.3       1 RES1    0.0000
      5 O5         2.7043    6.0219    2.6662 O.3       1 RES1    0.0000
      6 O6         0.9523    2.7602    2.6506 O.2       1 RES1    0.0000
      7 O7        -0.6446    1.3517    3.0448 O.2       1 RES1    0.0000
      8 O8        -0.7700    6.9271   -0.2127 O.2       1 RES1    0.0000
      9 O9        -2.6849    7.4796    0.6069 O.2       1 RES1    0.0000
     10 N1         0.2932    5.2169    1.8777 N.3       1 RES1    0.0000
     11 N2        -0.2313    2.4189    2.5728 N.pl3     1 RES1    0.0000
     12 N3        -1.7903    6.6632    0.4098 N.pl3     1 RES1    0.0000
     13 N4        -5.8329    2.4313    0.9103 N.1       1 RES1    0.0000
     14 C1         4.4641    3.2642    4.7903 C.3       1 RES1    0.0000
     15 C2         3.2967    2.5382    5.4050 C.3       1 RES1    0.0000
     16 C3         1.5007    2.8744    6.9170 C.3       1 RES1    0.0000
     17 C4         0.2946    2.6278    6.0430 C.3       1 RES1    0.0000
     18 C5        -1.0405    4.6578    6.1338 C.ar      1 RES1    0.0000
     19 C6        -1.5064    5.7941    5.4387 C.ar      1 RES1    0.0000
     20 C7         0.2039    6.4774    3.9552 C.3       1 RES1    0.0000
     21 C8         0.4574    6.5686    2.4561 C.3       1 RES1    0.0000
     22 C9         1.8542    7.0463    2.1423 C.3       1 RES1    0.0000
     23 C10        4.0572    6.2060    2.6636 C.ar      1 RES1    0.0000
     24 C11        4.7416    5.1709    3.3561 C.ar      1 RES1    0.0000
     25 C12        6.1227    5.2325    3.4831 C.ar      1 RES1    0.0000
     26 C13        6.8073    6.3031    2.9048 C.ar      1 RES1    0.0000
     27 C14        6.1458    7.2815    2.2045 C.ar      1 RES1    0.0000
     28 C15        4.7544    7.2379    2.0904 C.ar      1 RES1    0.0000
     29 C16       -2.3982    6.6533    6.0456 C.ar      1 RES1    0.0000
     30 C17       -2.8392    6.4198    7.3423 C.ar      1 RES1    0.0000
     31 C18       -2.3404    5.3246    8.0400 C.ar      1 RES1    0.0000
     32 C19       -1.4429    4.4654    7.4357 C.ar      1 RES1    0.0000
     33 C20       -0.8945    4.6373    1.5898 C.ar      1 RES1    0.0000
     34 C21       -1.2004    3.2765    1.8829 C.ar      1 RES1    0.0000
     35 C22       -2.4345    2.6977    1.6547 C.ar      1 RES1    0.0000
     36 C23       -3.4605    3.4360    1.0789 C.ar      1 RES1    0.0000
     37 C24       -3.2124    4.7573    0.7132 C.ar      1 RES1    0.0000
     38 C25       -1.9681    5.3000    0.9466 C.ar      1 RES1    0.0000
     39 C26       -4.7862    2.8638    0.9518 C.1       1 RES1    0.0000
     40 H1         1.0591    4.6241    2.1890 H         1 RES1    0.0000
     41 H2         4.9935    3.7213    5.4880 H         1 RES1    0.0000
     42 H3         5.0523    2.6270    4.3131 H         1 RES1    0.0000
     43 H4         2.7006    2.1871    4.6969 H         1 RES1    0.0000
     44 H5         3.6175    1.7768    5.9522 H         1 RES1    0.0000
     45 H6         1.2370    3.4640    7.6665 H         1 RES1    0.0000
     46 H7         1.7980    2.0119    7.3009 H         1 RES1    0.0000
     47 H8         0.5351    1.9741    5.3401 H         1 RES1    0.0000
     48 H9        -0.4237    2.2265    6.5954 H         1 RES1    0.0000
     49 H10        0.8342    5.8385    4.3727 H         1 RES1    0.0000
     50 H11        0.3263    7.3637    4.3779 H         1 RES1    0.0000
     51 H12       -0.2075    7.1910    2.0437 H         1 RES1    0.0000
     52 H13        1.9805    7.1458    1.1645 H         1 RES1    0.0000
     53 H14        2.0370    7.9154    2.5806 H         1 RES1    0.0000
     54 H15        6.5947    4.5575    3.9578 H         1 RES1    0.0000
     55 H16        7.7517    6.3549    2.9956 H         1 RES1    0.0000
     56 H17        6.6329    7.9869    1.7947 H         1 RES1    0.0000
     57 H18        4.2929    7.9203    1.6184 H         1 RES1    0.0000
     58 H19       -2.7144    7.4130    5.5710 H         1 RES1    0.0000
     59 H20       -3.4725    7.0003    7.7495 H         1 RES1    0.0000
     60 H21       -2.6183    5.1659    8.9348 H         1 RES1    0.0000
     61 H22       -1.0983    3.7295    7.9259 H         1 RES1    0.0000
     62 H23       -2.5822    1.7900    1.8933 H         1 RES1    0.0000
     63 H24       -3.8955    5.2794    0.3086 H         1 RES1    0.0000
@<TRIPOS>BOND
     1    1   14 1
     2    2   15 1
     3    3   17 1
     4    4   19 1
     5    5   22 1
     6    6   11 2
     7    7   11 2
     8    8   12 2
     9    9   12 2
    10   10   21 1
    11   11   34 1
    12   12   38 1
    13   13   39 3
    14   14   15 1
    15   15   43 1
    16   16    2 1
    17   17   16 1
    18   18    3 1
    19   19   18 ar
    20   20    4 1
    21   21   20 1
    22   22   21 1
    23   23    5 1
    24   24    1 1
    25   25   24 ar
    26   26   25 ar
    27   27   26 ar
    28   28   23 ar
    29   29   19 ar
    30   30   29 ar
    31   31   30 ar
    32   32   18 ar
    33   33   10 1
    34   34   33 ar
    35   35   34 ar
    36   36   35 ar
    37   37   36 ar
    38   38   33 ar
    39   39   36 1
    40   40   10 1
    41   41   14 1
    42   42   14 1
    43   44   15 1
    44   45   16 1
    45   46   16 1
    46   47   17 1
    47   48   17 1
    48   49   20 1
    49   50   20 1
    50   51   21 1
    51   52   22 1
    52   53   22 1
    53   54   25 1
    54   55   26 1
    55   56   27 1
    56   57   28 1
    57   58   29 1
    58   59   30 1
    59   60   31 1
    60   61   32 1
    61   62   35 1
    62   63   37 1
    63   23   24 ar
    64   27   28 ar
    65   31   32 ar
    66   37   38 ar
@<TRIPOS>SUBSTRUCTURE
     1 RES1 1

@<TRIPOS>CRYSIN
  11.8045    8.2221   25.9905  90.0000  93.7270  90.0000 231 1

