# MOL2 file generated by ConQuest
# Please check atom types

@<TRIPOS>MOLECULE
VEKKUS
   122   130     1
SMALL
NO_CHARGES
****
Generated from CSD

@<TRIPOS>ATOM
      1 O1         0.4648    8.6901    1.2427 O.3       1 RES1    0.0000
      2 O2        -0.7484    8.3776   -0.6107 O.2       1 RES1    0.0000
      3 O3        -1.9697   17.7251    1.2724 O.2       1 RES1    0.0000
      4 O4        -2.1617   15.7630    0.4280 O.2       1 RES1    0.0000
      5 O5        -6.1341   19.0561    3.4830 O.2       1 RES1    0.0000
      6 O6        -6.6389   17.9306    5.2261 O.2       1 RES1    0.0000
      7 O7        -0.1085    9.7337    5.2673 O.3       1 RES1    0.0000
      8 O8        -1.9099    8.7814    6.2055 O.2       1 RES1    0.0000
      9 O9         3.9732    9.0791    4.2698 O.3       1 RES1    0.0000
     10 O10        6.0266    9.0899    5.0730 O.2       1 RES1    0.0000
     11 O11        5.7521   15.1944    7.8696 O.2       1 RES1    0.0000
     12 O12        6.1675   16.9526    9.0202 O.2       1 RES1    0.0000
     13 O13        2.6526   19.9380   10.2777 O.2       1 RES1    0.0000
     14 O14        0.8233   19.9064    9.2506 O.2       1 RES1    0.0000
     15 O15        2.3694   12.3979    2.1645 O.3       1 RES1    0.0000
     16 O16        3.8272   13.9363    1.3909 O.2       1 RES1    0.0000
     17 N1        -2.8738   12.8590    2.7275 N.2       1 RES1    0.0000
     18 N2        -2.4949   14.0264    2.4690 N.2       1 RES1    0.0000
     19 N3        -2.4340   16.6108    1.2625 N.pl3     1 RES1    0.0000
     20 N4        -6.0447   18.0762    4.1776 N.pl3     1 RES1    0.0000
     21 N5         2.7707   13.7697    7.0038 N.2       1 RES1    0.0000
     22 N6         3.4919   14.7624    6.7289 N.2       1 RES1    0.0000
     23 N7         5.4108   16.2406    8.3881 N.pl3     1 RES1    0.0000
     24 N8         1.9074   19.4374    9.4827 N.pl3     1 RES1    0.0000
     25 C1        -0.3492    9.7669    1.5983 C.ar      1 RES1    0.0000
     26 C2        -0.1000   11.0257    1.0271 C.ar      1 RES1    0.0000
     27 C3        -0.9276   12.0628    1.4222 C.ar      1 RES1    0.0000
     28 H1        -0.7855   12.9143    1.0748 H         1 RES1    0.0000
     29 C4        -1.9626   11.8616    2.3225 C.ar      1 RES1    0.0000
     30 C5        -2.1591   10.6092    2.8624 C.ar      1 RES1    0.0000
     31 H2        -2.8596   10.4764    3.4566 H         1 RES1    0.0000
     32 C6        -1.3426    9.5491    2.5415 C.ar      1 RES1    0.0000
     33 C7        -1.4918    8.1871    3.1999 C.3       1 RES1    0.0000
     34 H3        -2.2342    8.2236    3.8237 H         1 RES1    0.0000
     35 H4        -1.7136    7.5352    2.5168 H         1 RES1    0.0000
     36 C8        -0.2630    7.7088    3.9422 C.ar      1 RES1    0.0000
     37 C9         0.2798    6.4606    3.6558 C.ar      1 RES1    0.0000
     38 H5        -0.1269    5.9237    3.0139 H         1 RES1    0.0000
     39 C10        1.4034    6.0041    4.2994 C.ar      1 RES1    0.0000
     40 H6         1.7467    5.1640    4.0953 H         1 RES1    0.0000
     41 C11        2.0185    6.7815    5.2442 C.ar      1 RES1    0.0000
     42 H7         2.7712    6.4566    5.6837 H         1 RES1    0.0000
     43 C12        1.5402    8.0478    5.5553 C.ar      1 RES1    0.0000
     44 C13        0.3775    8.4488    4.9183 C.ar      1 RES1    0.0000
     45 C14        2.2658    8.9332    6.5462 C.3       1 RES1    0.0000
     46 H8         2.9947    8.4209    6.9314 H         1 RES1    0.0000
     47 H9         1.6517    9.1461    7.2672 H         1 RES1    0.0000
     48 C15        2.8334   10.2318    6.0080 C.ar      1 RES1    0.0000
     49 C16        2.5478   11.4225    6.6598 C.ar      1 RES1    0.0000
     50 H10        1.9848   11.4221    7.4005 H         1 RES1    0.0000
     51 C17        3.1027   12.6194    6.2088 C.ar      1 RES1    0.0000
     52 C18        3.8895   12.6360    5.0747 C.ar      1 RES1    0.0000
     53 H11        4.2346   13.4440    4.7702 H         1 RES1    0.0000
     54 C19        4.1737   11.4794    4.3883 C.ar      1 RES1    0.0000
     55 C20        3.6687   10.2920    4.9134 C.ar      1 RES1    0.0000
     56 C21        4.9834   11.5162    3.1126 C.3       1 RES1    0.0000
     57 H12        5.2263   12.4383    2.9299 H         1 RES1    0.0000
     58 H13        5.8055   11.0219    3.2575 H         1 RES1    0.0000
     59 C22        4.3042   10.9590    1.8979 C.ar      1 RES1    0.0000
     60 C23        4.9387    9.9823    1.1226 C.ar      1 RES1    0.0000
     61 H14        5.7914    9.6899    1.3547 H         1 RES1    0.0000
     62 C24        4.3151    9.4512    0.0214 C.ar      1 RES1    0.0000
     63 H15        4.7609    8.8222   -0.4987 H         1 RES1    0.0000
     64 C25        3.0503    9.8314   -0.3226 C.ar      1 RES1    0.0000
     65 H16        2.6308    9.4293   -1.0485 H         1 RES1    0.0000
     66 C26        2.3787   10.8127    0.3983 C.ar      1 RES1    0.0000
     67 C27        3.0506   11.3817    1.4617 C.ar      1 RES1    0.0000
     68 C28        0.9845   11.2592    0.0016 C.3       1 RES1    0.0000
     69 H17        1.0132   12.2082   -0.2008 H         1 RES1    0.0000
     70 H18        0.7363   10.7974   -0.8148 H         1 RES1    0.0000
     71 C29       -3.4424   15.0054    2.8838 C.ar      1 RES1    0.0000
     72 C30       -3.4016   16.2726    2.3127 C.ar      1 RES1    0.0000
     73 C31       -4.2409   17.2786    2.7077 C.ar      1 RES1    0.0000
     74 H19       -4.2195   18.1122    2.2962 H         1 RES1    0.0000
     75 C32       -5.1082   17.0169    3.7233 C.ar      1 RES1    0.0000
     76 C33       -5.1822   15.7996    4.3603 C.ar      1 RES1    0.0000
     77 H20       -5.7856   15.6521    5.0533 H         1 RES1    0.0000
     78 C34       -4.3278   14.8104    3.9323 C.ar      1 RES1    0.0000
     79 H21       -4.3439   13.9833    4.3603 H         1 RES1    0.0000
     80 C35       -1.2972    9.7647    5.9438 C.2       1 RES1    0.0000
     81 C36       -1.7290   11.1525    6.2598 C.ar      1 RES1    0.0000
     82 C37       -3.0339   11.3252    6.7223 C.ar      1 RES1    0.0000
     83 H22       -3.6038   10.5945    6.8013 H         1 RES1    0.0000
     84 C38       -3.4736   12.5894    7.0647 C.ar      1 RES1    0.0000
     85 H23       -4.3494   12.7128    7.3528 H         1 RES1    0.0000
     86 C39       -2.6413   13.6422    6.9808 C.ar      1 RES1    0.0000
     87 H24       -2.9420   14.4847    7.2342 H         1 RES1    0.0000
     88 C40       -1.3759   13.4953    6.5363 C.ar      1 RES1    0.0000
     89 H25       -0.8091   14.2315    6.4919 H         1 RES1    0.0000
     90 C41       -0.9172   12.2337    6.1413 C.ar      1 RES1    0.0000
     91 H26       -0.0579   12.1361    5.7989 H         1 RES1    0.0000
     92 C42        3.0996   15.9285    7.4844 C.ar      1 RES1    0.0000
     93 C43        4.0085   16.6709    8.2350 C.ar      1 RES1    0.0000
     94 C44        3.6295   17.8083    8.9050 C.ar      1 RES1    0.0000
     95 H27        4.2341   18.2824    9.4284 H         1 RES1    0.0000
     96 C45        2.3287   18.2211    8.7782 C.ar      1 RES1    0.0000
     97 C46        1.3993   17.5346    8.0490 C.ar      1 RES1    0.0000
     98 H28        0.5205   17.8344    7.9898 H         1 RES1    0.0000
     99 C47        1.8028   16.3857    7.4038 C.ar      1 RES1    0.0000
    100 H29        1.1844   15.9073    6.9001 H         1 RES1    0.0000
    101 C48        2.8488   13.6770    2.0312 C.2       1 RES1    0.0000
    102 C49        2.0265   14.6665    2.7867 C.ar      1 RES1    0.0000
    103 C50        2.5148   15.9400    2.8657 C.ar      1 RES1    0.0000
    104 H30        3.3318   16.1506    2.4740 H         1 RES1    0.0000
    105 C51        1.7883   16.9221    3.5307 C.ar      1 RES1    0.0000
    106 H31        2.1286   17.7827    3.6114 H         1 RES1    0.0000
    107 C52        0.5638   16.6122    4.0690 C.ar      1 RES1    0.0000
    108 H32        0.0647   17.2695    4.4969 H         1 RES1    0.0000
    109 C53        0.0806   15.3459    3.9751 C.ar      1 RES1    0.0000
    110 H33       -0.7525   15.1393    4.3340 H         1 RES1    0.0000
    111 C54        0.8298   14.3579    3.3447 C.ar      1 RES1    0.0000
    112 H34        0.5097   13.4858    3.3036 H         1 RES1    0.0000
    113 C55        0.1439    8.0359    0.0988 C.2       1 RES1    0.0000
    114 C56        1.0399    6.8309   -0.0741 C.3       1 RES1    0.0000
    115 H35        0.5617    6.0383    0.1827 H         1 RES1    0.0000
    116 H36        1.8181    6.9290    0.4790 H         1 RES1    0.0000
    117 H37        1.3075    6.7590   -0.9925 H         1 RES1    0.0000
    118 C57        5.1857    8.5323    4.4442 C.2       1 RES1    0.0000
    119 C58        5.3516    7.2402    3.7430 C.3       1 RES1    0.0000
    120 H38        6.2087    7.2189    3.3085 H         1 RES1    0.0000
    121 H39        4.6582    7.1412    3.0863 H         1 RES1    0.0000
    122 H40        5.2962    6.5219    4.3784 H         1 RES1    0.0000
@<TRIPOS>BOND
     1    1   25 1
     2    2  113 2
     3    3   19 2
     4    4   19 2
     5    5   20 2
     6    6   20 2
     7    7   44 1
     8    8   80 2
     9    9   55 1
    10   10  118 2
    11   11   23 2
    12   12   23 2
    13   13   24 2
    14   14   24 2
    15   15   67 1
    16   16  101 2
    17   17   18 2
    18   18   71 1
    19   19   72 1
    20   20   75 1
    21   21   22 2
    22   22   92 1
    23   23   93 1
    24   24   96 1
    25   25   26 ar
    26   26   27 ar
    27   27   28 1
    28   29   17 1
    29   30   29 ar
    30   31   30 1
    31   32   25 ar
    32   33   32 1
    33   34   33 1
    34   35   33 1
    35   36   33 1
    36   37   36 ar
    37   38   37 1
    38   39   37 ar
    39   40   39 1
    40   41   39 ar
    41   42   41 1
    42   43   41 ar
    43   44   36 ar
    44   45   43 1
    45   46   45 1
    46   47   45 1
    47   48   45 1
    48   49   48 ar
    49   50   49 1
    50   51   21 1
    51   52   51 ar
    52   53   52 1
    53   54   52 ar
    54   55   48 ar
    55   56   54 1
    56   57   56 1
    57   58   56 1
    58   59   56 1
    59   60   59 ar
    60   61   60 1
    61   62   60 ar
    62   63   62 1
    63   64   62 ar
    64   65   64 1
    65   66   64 ar
    66   67   59 ar
    67   68   26 1
    68   69   68 1
    69   70   68 1
    70   71   72 ar
    71   72   73 ar
    72   73   74 1
    73   75   73 ar
    74   76   75 ar
    75   77   76 1
    76   78   71 ar
    77   79   78 1
    78   80    7 1
    79   81   80 1
    80   82   81 ar
    81   83   82 1
    82   84   82 ar
    83   85   84 1
    84   86   84 ar
    85   87   86 1
    86   88   86 ar
    87   89   88 1
    88   90   81 ar
    89   91   90 1
    90   92   93 ar
    91   93   94 ar
    92   94   95 1
    93   96   94 ar
    94   97   96 ar
    95   98   97 1
    96   99   92 ar
    97  100   99 1
    98  101   15 1
    99  102  101 1
   100  103  102 ar
   101  104  103 1
   102  105  103 ar
   103  106  105 1
   104  107  105 ar
   105  108  107 1
   106  109  107 ar
   107  110  109 1
   108  111  102 ar
   109  112  111 1
   110  113    1 1
   111  114  113 1
   112  115  114 1
   113  116  114 1
   114  117  114 1
   115  118    9 1
   116  119  118 1
   117  120  119 1
   118  121  119 1
   119  122  119 1
   120   27   29 ar
   121   30   32 ar
   122   43   44 ar
   123   49   51 ar
   124   54   55 ar
   125   66   67 ar
   126   66   68 1
   127   76   78 ar
   128   88   90 ar
   129   97   99 ar
   130  109  111 ar
@<TRIPOS>SUBSTRUCTURE
     1 RES1 1

@<TRIPOS>CRYSIN
  11.2290   14.3970   17.5550 103.1520 102.3410 101.1750   2 1

