# MOL2 file generated by ConQuest
# Please check atom types

@<TRIPOS>MOLECULE
VEKNUV
    31    33     1
SMALL
NO_CHARGES
****
Generated from CSD

@<TRIPOS>ATOM
      1 O1        13.0239    2.9911    0.8231 O.3       1 RES1    0.0000
      2 O2         7.6351   -1.4026    2.3132 O.2       1 RES1    0.0000
      3 O3         9.5473   -2.2538    1.8357 O.2       1 RES1    0.0000
      4 N1        10.8817    3.8957    1.2471 N.3       1 RES1    0.0000
      5 H1        10.3263    4.5497    1.3994 H         1 RES1    0.0000
      6 N2        13.2732    0.7399    0.4632 N.2       1 RES1    0.0000
      7 H2        13.9549    0.9818    0.2634 H         1 RES1    0.0000
      8 N3         8.8007   -1.2781    1.9884 N.pl3     1 RES1    0.0000
      9 C1        12.5916    1.6989    0.8465 C.2       1 RES1    0.0000
     10 C2        11.1983    1.5078    1.3052 C.ar      1 RES1    0.0000
     11 C3        10.6824    0.2200    1.4877 C.ar      1 RES1    0.0000
     12 H3        11.2367   -0.5233    1.4132 H         1 RES1    0.0000
     13 C4         9.3393    0.0622    1.7803 C.ar      1 RES1    0.0000
     14 C5         8.4863    1.1747    1.8728 C.ar      1 RES1    0.0000
     15 H4         7.5834    1.0528    2.0621 H         1 RES1    0.0000
     16 C6         8.9833    2.4423    1.6821 C.ar      1 RES1    0.0000
     17 H5         8.4094    3.1734    1.7232 H         1 RES1    0.0000
     18 C7        10.3578    2.6430    1.4252 C.ar      1 RES1    0.0000
     19 C8        12.3134    4.1079    1.4626 C.3       1 RES1    0.0000
     20 C9        12.8063    5.4421    0.8822 C.3       1 RES1    0.0000
     21 H6        13.0985    5.3238   -0.0357 H         1 RES1    0.0000
     22 H7        12.0935    6.1005    0.8959 H         1 RES1    0.0000
     23 C10       13.9618    5.8997    1.7479 C.3       1 RES1    0.0000
     24 H8        13.8042    6.8018    2.0690 H         1 RES1    0.0000
     25 H9        14.7861    5.8936    1.2375 H         1 RES1    0.0000
     26 C11       14.0592    4.9302    2.9210 C.3       1 RES1    0.0000
     27 H10       14.7814    4.2972    2.7865 H         1 RES1    0.0000
     28 H11       14.2086    5.4071    3.7524 H         1 RES1    0.0000
     29 C12       12.7176    4.2210    2.9402 C.3       1 RES1    0.0000
     30 H12       12.0634    4.7356    3.4382 H         1 RES1    0.0000
     31 H13       12.7990    3.3426    3.3436 H         1 RES1    0.0000
@<TRIPOS>BOND
     1    1    9 1
     2    2    8 2
     3    3    8 2
     4    4    5 1
     5    6    7 1
     6    8   13 1
     7    9    6 2
     8   10    9 1
     9   11   10 ar
    10   12   11 1
    11   13   11 ar
    12   14   13 ar
    13   15   14 1
    14   16   14 ar
    15   17   16 1
    16   18    4 1
    17   19    1 1
    18   20   19 1
    19   21   20 1
    20   22   20 1
    21   23   20 1
    22   24   23 1
    23   25   23 1
    24   26   23 1
    25   27   26 1
    26   28   26 1
    27   29   19 1
    28   30   29 1
    29   31   29 1
    30    4   19 1
    31   10   18 ar
    32   16   18 ar
    33   26   29 1
@<TRIPOS>SUBSTRUCTURE
     1 RES1 1

@<TRIPOS>CRYSIN
  19.2060    8.7663   13.7200  90.0000  90.0300  90.0000  15 1

