# MOL2 file generated by ConQuest
# Please check atom types

@<TRIPOS>MOLECULE
VELFAW
    62    66     2
SMALL
NO_CHARGES
****
Generated from CSD

@<TRIPOS>ATOM
      1 O1        -0.7369    8.2590   11.1722 O.3       1 RES1    0.0000
      2 C1         1.9182   12.0756   10.9104 C.ar      1 RES1    0.0000
      3 H1         2.6084   11.4592   10.6955 H         1 RES1    0.0000
      4 N1        -0.8138    9.6828   11.3059 N.2       1 RES1    0.0000
      5 O2         2.2019    6.0851   11.3474 O.3       1 RES1    0.0000
      6 H2         2.8224    6.6208   11.1645 H         1 RES1    0.0000
      7 C2         2.1950   13.4281   10.9334 C.ar      1 RES1    0.0000
      8 H3         3.0682   13.7400   10.7270 H         1 RES1    0.0000
      9 C3         1.1912   14.3306   11.2598 C.ar      1 RES1    0.0000
     10 H4         1.3727   15.2631   11.2624 H         1 RES1    0.0000
     11 C4         0.3696   10.1594   11.1361 C.2       1 RES1    0.0000
     12 C5         0.6405   11.6044   11.1982 C.ar      1 RES1    0.0000
     13 C6        -0.3595   12.5152   11.5450 C.ar      1 RES1    0.0000
     14 H5        -1.2331   12.2068   11.7554 H         1 RES1    0.0000
     15 C7        -0.0733   13.8705   11.5813 C.ar      1 RES1    0.0000
     16 H6        -0.7508   14.4888   11.8288 H         1 RES1    0.0000
     17 C8         1.3865    9.1091   10.7690 C.3       1 RES1    0.0000
     18 H7         2.2656    9.2711   11.2173 H         1 RES1    0.0000
     19 C9         1.5311    9.0388    9.2354 C.3       1 RES1    0.0000
     20 H8         0.6551    9.2292    8.8153 H         1 RES1    0.0000
     21 H9         2.1707    9.7321    8.9351 H         1 RES1    0.0000
     22 C10        2.0221    7.6676    8.7782 C.3       1 RES1    0.0000
     23 H10        2.0857    7.6476    7.7905 H         1 RES1    0.0000
     24 H11        2.9232    7.4943    9.1499 H         1 RES1    0.0000
     25 C11        1.0563    6.5939    9.2522 C.3       1 RES1    0.0000
     26 H12        0.1572    6.7727    8.8785 H         1 RES1    0.0000
     27 H13        1.3564    5.7115    8.9184 H         1 RES1    0.0000
     28 C12        0.9736    6.5576   10.7669 C.3       1 RES1    0.0000
     29 H14        0.2424    5.9262   11.0253 H         1 RES1    0.0000
     30 C13        0.6605    7.9195   11.3676 C.3       1 RES1    0.0000
     31 H15        0.8494    7.8887   12.3491 H         1 RES1    0.0000
     32 N2         4.1615    1.8771   14.4898 N.2       2 RES2    0.0000
     33 O3         1.8924    5.9851   14.1306 O.3       2 RES2    0.0000
     34 H16        2.0042    5.9644   13.2983 H         2 RES2    0.0000
     35 O4         4.3274    3.2944   14.5195 O.3       2 RES2    0.0000
     36 C14        3.2536   -0.8466   14.2326 C.ar      2 RES2    0.0000
     37 H17        4.1332   -0.6751   13.9172 H         2 RES2    0.0000
     38 C15        2.7960   -2.1475   14.3285 C.ar      2 RES2    0.0000
     39 H18        3.3631   -2.8664   14.0755 H         2 RES2    0.0000
     40 C16        1.5179   -2.4109   14.7906 C.ar      2 RES2    0.0000
     41 H19        1.2178   -3.3079   14.8793 H         2 RES2    0.0000
     42 C17        0.6808   -1.3632   15.1219 C.ar      2 RES2    0.0000
     43 H20       -0.2015   -1.5414   15.4257 H         2 RES2    0.0000
     44 C18        1.1207   -0.0537   15.0136 C.ar      2 RES2    0.0000
     45 H21        0.5315    0.6615   15.2229 H         2 RES2    0.0000
     46 C19        2.4215    0.2195   14.5998 C.ar      2 RES2    0.0000
     47 C20        2.9035    1.6082   14.5807 C.2       2 RES2    0.0000
     48 C21        2.0516    2.8417   14.7923 C.3       2 RES2    0.0000
     49 H22        1.2088    2.7991   14.2557 H         2 RES2    0.0000
     50 C22        1.7522    3.0307   16.2973 C.3       2 RES2    0.0000
     51 H23        0.9606    2.4903   16.5455 H         2 RES2    0.0000
     52 H24        2.5223    2.7075   16.8289 H         2 RES2    0.0000
     53 C23        1.4883    4.4977   16.6275 C.3       2 RES2    0.0000
     54 H25        0.6973    4.8152   16.1239 H         2 RES2    0.0000
     55 H26        1.2969    4.5921   17.5942 H         2 RES2    0.0000
     56 C24        2.6957    5.3378   16.2626 C.3       2 RES2    0.0000
     57 H27        3.4897    5.0017   16.7490 H         2 RES2    0.0000
     58 H28        2.5404    6.2752   16.5405 H         2 RES2    0.0000
     59 C25        2.9620    5.2922   14.7714 C.3       2 RES2    0.0000
     60 H29        3.8249    5.7574   14.5736 H         2 RES2    0.0000
     61 C26        3.0174    3.8654   14.2251 C.3       2 RES2    0.0000
     62 H30        2.8999    3.8991   13.2325 H         2 RES2    0.0000
@<TRIPOS>BOND
     1    1    4 1
     2    2    3 1
     3    4   11 2
     4    5    6 1
     5    7    2 ar
     6    8    7 1
     7    9    7 ar
     8   10    9 1
     9   11   12 1
    10   12    2 ar
    11   13   12 ar
    12   14   13 1
    13   15    9 ar
    14   16   15 1
    15   17   11 1
    16   18   17 1
    17   19   17 1
    18   20   19 1
    19   21   19 1
    20   22   19 1
    21   23   22 1
    22   24   22 1
    23   25   22 1
    24   26   25 1
    25   27   25 1
    26   28    5 1
    27   29   28 1
    28   30    1 1
    29   31   30 1
    30   32   35 1
    31   33   34 1
    32   35   61 1
    33   36   37 1
    34   38   36 ar
    35   39   38 1
    36   40   38 ar
    37   41   40 1
    38   42   40 ar
    39   43   42 1
    40   44   42 ar
    41   45   44 1
    42   46   36 ar
    43   47   32 2
    44   48   47 1
    45   49   48 1
    46   50   48 1
    47   51   50 1
    48   52   50 1
    49   53   50 1
    50   54   53 1
    51   55   53 1
    52   56   53 1
    53   57   56 1
    54   58   56 1
    55   59   33 1
    56   60   59 1
    57   61   48 1
    58   62   61 1
    59   13   15 ar
    60   17   30 1
    61   25   28 1
    62   28   30 1
    63   44   46 ar
    64   46   47 1
    65   56   59 1
    66   59   61 1
@<TRIPOS>SUBSTRUCTURE
     1 RES1 1
     2 RES2 32

@<TRIPOS>CRYSIN
  10.9209   11.7547   17.8981  90.0000 106.2870  90.0000 231 1

