# MOL2 file generated by ConQuest
# Please check atom types

@<TRIPOS>MOLECULE
VELKIH
    39    41     1
SMALL
NO_CHARGES
****
Generated from CSD

@<TRIPOS>ATOM
      1 O1         4.5929    4.3820    3.8016 O.2       1 RES1    0.0000
      2 O2        -0.7725    3.4111    7.8077 O.2       1 RES1    0.0000
      3 O3        -1.8853    4.9704    6.8101 O.2       1 RES1    0.0000
      4 N1         3.9770    6.9319    5.6259 N.2       1 RES1    0.0000
      5 N2        -0.8282    4.4502    7.1599 N.pl3     1 RES1    0.0000
      6 C1         5.9222    7.3353    4.2908 C.ar      1 RES1    0.0000
      7 C2         6.2097    8.5329    4.9134 C.ar      1 RES1    0.0000
      8 C3         7.3678    9.2206    4.6134 C.ar      1 RES1    0.0000
      9 C4         8.2657    8.7005    3.6955 C.ar      1 RES1    0.0000
     10 C5         7.9927    7.5134    3.0841 C.ar      1 RES1    0.0000
     11 C6         6.8228    6.8360    3.3682 C.ar      1 RES1    0.0000
     12 C7         4.6672    6.6175    4.5989 C.2       1 RES1    0.0000
     13 C8         4.2526    5.5310    3.6105 C.2       1 RES1    0.0000
     14 C9         3.4753    5.9621    2.4230 C.ar      1 RES1    0.0000
     15 C10        3.2056    5.0374    1.4201 C.ar      1 RES1    0.0000
     16 C11        2.4644    5.4085    0.3257 C.ar      1 RES1    0.0000
     17 C12        1.9966    6.6961    0.2070 C.ar      1 RES1    0.0000
     18 C13        2.2676    7.6336    1.1810 C.ar      1 RES1    0.0000
     19 C14        3.0097    7.2648    2.2930 C.ar      1 RES1    0.0000
     20 C15        2.7755    6.2650    5.9532 C.ar      1 RES1    0.0000
     21 C16        2.7809    4.9715    6.4507 C.ar      1 RES1    0.0000
     22 C17        1.6100    4.3820    6.8631 C.ar      1 RES1    0.0000
     23 C18        0.4319    5.0813    6.7604 C.ar      1 RES1    0.0000
     24 C19        0.3976    6.3783    6.2838 C.ar      1 RES1    0.0000
     25 C20        1.5800    6.9770    5.9067 C.ar      1 RES1    0.0000
     26 H1         5.6172    8.8796    5.5408 H         1 RES1    0.0000
     27 H2         7.5453   10.0344    5.0274 H         1 RES1    0.0000
     28 H3         9.0505    9.1594    3.4965 H         1 RES1    0.0000
     29 H4         8.5967    7.1573    2.4744 H         1 RES1    0.0000
     30 H5         6.6386    6.0350    2.9349 H         1 RES1    0.0000
     31 H6         3.5281    4.1682    1.4891 H         1 RES1    0.0000
     32 H7         2.2783    4.7866   -0.3402 H         1 RES1    0.0000
     33 H8         1.4934    6.9366   -0.5376 H         1 RES1    0.0000
     34 H9         1.9560    8.5051    1.0928 H         1 RES1    0.0000
     35 H10        3.1968    7.8913    2.9542 H         1 RES1    0.0000
     36 H11        3.5806    4.4999    6.5036 H         1 RES1    0.0000
     37 H12        1.6151    3.5186    7.2081 H         1 RES1    0.0000
     38 H13       -0.4086    6.8371    6.2196 H         1 RES1    0.0000
     39 H14        1.5783    7.8624    5.6195 H         1 RES1    0.0000
@<TRIPOS>BOND
     1    1   13 2
     2    2    5 2
     3    3    5 2
     4    4   12 2
     5    5   23 1
     6    6    7 ar
     7    7    8 ar
     8    8    9 ar
     9    9   10 ar
    10   10   11 ar
    11   11    6 ar
    12   12    6 1
    13   13   12 1
    14   14   13 1
    15   15   14 ar
    16   16   15 ar
    17   17   16 ar
    18   18   17 ar
    19   19   14 ar
    20   20    4 1
    21   21   20 ar
    22   22   21 ar
    23   23   22 ar
    24   24   23 ar
    25   25   20 ar
    26   26    7 1
    27   27    8 1
    28   28    9 1
    29   29   10 1
    30   30   11 1
    31   31   15 1
    32   32   16 1
    33   33   17 1
    34   34   18 1
    35   35   19 1
    36   36   21 1
    37   37   22 1
    38   38   24 1
    39   39   25 1
    40   18   19 ar
    41   24   25 ar
@<TRIPOS>SUBSTRUCTURE
     1 RES1 1

@<TRIPOS>CRYSIN
   8.8265   11.5590   16.3650  90.0000 101.3230  90.0000  14 1

