# MOL2 file generated by ConQuest
# Please check atom types

@<TRIPOS>MOLECULE
VELQEK
    38    41     1
SMALL
NO_CHARGES
****
Generated from CSD

@<TRIPOS>ATOM
      1 N1         4.5249    6.0399    2.8291 N.ar      1 RES1    0.0000
      2 N2         4.8398    6.9973    0.6578 N.ar      1 RES1    0.0000
      3 C1         3.7514    6.3055    0.2131 C.ar      1 RES1    0.0000
      4 C2         6.4031    7.4961    2.3882 C.ar      1 RES1    0.0000
      5 C3         5.1771    6.8053    1.9130 C.ar      1 RES1    0.0000
      6 C4         3.4467    5.3883    2.4194 C.ar      1 RES1    0.0000
      7 C5         3.0391    5.4277    1.0512 C.ar      1 RES1    0.0000
      8 C6         2.0068    4.6444    0.4943 C.ar      1 RES1    0.0000
      9 H1         1.5661    4.0169    1.0202 H         1 RES1    0.0000
     10 N3         5.4472    8.0091    4.6243 N.pl3     1 RES1    0.0000
     11 C7         2.3091    5.7364   -1.6196 C.ar      1 RES1    0.0000
     12 H2         2.0310    5.8624   -2.4982 H         1 RES1    0.0000
     13 C8         6.5620    8.0129    3.6615 C.ar      1 RES1    0.0000
     14 C9         3.3482    6.4601   -1.1295 C.ar      1 RES1    0.0000
     15 H3         3.7967    7.0598   -1.6810 H         1 RES1    0.0000
     16 O1         4.4036    8.5432    4.2946 O.2       1 RES1    0.0000
     17 C10        7.4943    7.6201    1.5318 C.ar      1 RES1    0.0000
     18 H4         7.4389    7.2722    0.6707 H         1 RES1    0.0000
     19 C11        7.7148    8.6404    4.0886 C.ar      1 RES1    0.0000
     20 H5         7.7814    8.9745    4.9545 H         1 RES1    0.0000
     21 C12        2.7170    4.6235    3.4570 C.ar      1 RES1    0.0000
     22 C13        8.6572    8.2518    1.9342 C.ar      1 RES1    0.0000
     23 H6         9.3693    8.3306    1.3414 H         1 RES1    0.0000
     24 C14        1.6545    4.8033   -0.8123 C.ar      1 RES1    0.0000
     25 H7         0.9705    4.2853   -1.1703 H         1 RES1    0.0000
     26 O2         5.6477    7.5166    5.7238 O.2       1 RES1    0.0000
     27 C15        8.7672    8.7614    3.2030 C.ar      1 RES1    0.0000
     28 H8         9.5509    9.1886    3.4667 H         1 RES1    0.0000
     29 C16        3.4014    3.8592    4.3727 C.ar      1 RES1    0.0000
     30 H9         4.3293    3.8057    4.3244 H         1 RES1    0.0000
     31 C17        1.3254    4.7108    3.5653 C.ar      1 RES1    0.0000
     32 H10        0.8426    5.2243    2.9584 H         1 RES1    0.0000
     33 C18        2.7325    3.1734    5.3595 C.ar      1 RES1    0.0000
     34 H11        3.2082    2.6460    5.9612 H         1 RES1    0.0000
     35 C19        1.3686    3.2617    5.4605 C.ar      1 RES1    0.0000
     36 H12        0.9205    2.7982    6.1310 H         1 RES1    0.0000
     37 C20        0.6665    4.0333    4.5768 C.ar      1 RES1    0.0000
     38 H13       -0.2572    4.1025    4.6555 H         1 RES1    0.0000
@<TRIPOS>BOND
     1    1    5 ar
     2    2    3 ar
     3    3    7 ar
     4    4    5 1
     5    5    2 ar
     6    6    1 ar
     7    7    6 ar
     8    8    7 ar
     9    9    8 1
    10   10   13 1
    11   11   12 1
    12   13    4 ar
    13   14    3 ar
    14   15   14 1
    15   16   10 2
    16   17    4 ar
    17   18   17 1
    18   19   13 ar
    19   20   19 1
    20   21    6 1
    21   22   17 ar
    22   23   22 1
    23   24    8 ar
    24   25   24 1
    25   26   10 2
    26   27   19 ar
    27   28   27 1
    28   29   21 ar
    29   30   29 1
    30   31   21 ar
    31   32   31 1
    32   33   29 ar
    33   34   33 1
    34   35   33 ar
    35   36   35 1
    36   37   31 ar
    37   38   37 1
    38   11   14 ar
    39   11   24 ar
    40   22   27 ar
    41   35   37 ar
@<TRIPOS>SUBSTRUCTURE
     1 RES1 1

@<TRIPOS>CRYSIN
   7.6465    8.4050   12.9308  84.2700  73.0210  89.0070   2 1

