# MOL2 file generated by ConQuest
# Please check atom types

@<TRIPOS>MOLECULE
VELZUI
    64    66     1
SMALL
NO_CHARGES
****
Generated from CSD

@<TRIPOS>ATOM
      1 C1         5.3599    0.6814    7.9747 C.2       1 RES1    0.0000
      2 C2         5.0996    1.9736    7.6671 C.2       1 RES1    0.0000
      3 C3         4.6927    2.3715    6.2594 C.3       1 RES1    0.0000
      4 H1         5.1708    3.2183    6.0317 H         1 RES1    0.0000
      5 C4         5.1102    1.3209    5.2479 C.2       1 RES1    0.0000
      6 C5         5.3977    0.0557    5.6267 C.2       1 RES1    0.0000
      7 C6         5.7199   -1.1147    4.7422 C.3       1 RES1    0.0000
      8 H2         5.0845   -1.1447    3.9967 H         1 RES1    0.0000
      9 H3         5.6548   -1.9418    5.2610 H         1 RES1    0.0000
     10 H4         6.6306   -1.0188    4.3919 H         1 RES1    0.0000
     11 C7         5.6291    0.1253    9.3387 C.3       1 RES1    0.0000
     12 H5         6.4581    0.5094    9.6912 H         1 RES1    0.0000
     13 H6         5.7184   -0.8510    9.2829 H         1 RES1    0.0000
     14 H7         4.8848    0.3476    9.9364 H         1 RES1    0.0000
     15 C8         3.1860    2.6646    6.2353 C.ar      1 RES1    0.0000
     16 C9         2.7109    3.9100    5.9288 C.ar      1 RES1    0.0000
     17 H8         3.3130    4.6028    5.6792 H         1 RES1    0.0000
     18 C10        1.3509    4.1569    5.9824 C.ar      1 RES1    0.0000
     19 C11        0.4342    3.1692    6.3075 C.ar      1 RES1    0.0000
     20 H9        -0.4992    3.3502    6.3141 H         1 RES1    0.0000
     21 C12        0.9137    1.9172    6.6206 C.ar      1 RES1    0.0000
     22 H10        0.3086    1.2226    6.8516 H         1 RES1    0.0000
     23 C13        2.2874    1.6655    6.6009 C.ar      1 RES1    0.0000
     24 H11        2.6126    0.8031    6.8385 H         1 RES1    0.0000
     25 C14        5.1465    1.6889    3.8226 C.2       1 RES1    0.0000
     26 C15        4.4219    3.3568    2.2660 C.3       1 RES1    0.0000
     27 H12        4.4733    2.6010    1.6311 H         1 RES1    0.0000
     28 H13        5.1541    3.9915    2.0591 H         1 RES1    0.0000
     29 C16        3.1012    4.0400    2.1478 C.3       1 RES1    0.0000
     30 H14        3.0014    4.7047    2.8735 H         1 RES1    0.0000
     31 H15        3.0483    4.5189    1.2819 H         1 RES1    0.0000
     32 C17        0.7746    3.6948    2.2102 C.3       1 RES1    0.0000
     33 H16        0.6853    4.3031    2.9732 H         1 RES1    0.0000
     34 H17        0.0893    2.9966    2.2693 H         1 RES1    0.0000
     35 H18        0.6581    4.1952    1.3771 H         1 RES1    0.0000
     36 C18        5.1148    3.0176    8.6983 C.2       1 RES1    0.0000
     37 C19        5.1223    5.3879    9.0289 C.3       1 RES1    0.0000
     38 H19        5.5474    6.1310    8.5330 H         1 RES1    0.0000
     39 H20        5.7184    5.1482    9.7832 H         1 RES1    0.0000
     40 C20        3.8228    5.8476    9.5686 C.2       1 RES1    0.0000
     41 H21        3.8425    6.6225   10.1203 H         1 RES1    0.0000
     42 C21        2.6338    5.2944    9.3639 C.2       1 RES1    0.0000
     43 H22        2.6050    4.5189    8.8122 H         1 RES1    0.0000
     44 C22        1.3615    5.7673    9.9101 C.ar      1 RES1    0.0000
     45 C23        0.1709    5.0690    9.5949 C.ar      1 RES1    0.0000
     46 H23        0.2012    4.3211    9.0081 H         1 RES1    0.0000
     47 C24       -1.0287    5.4700   10.1389 C.ar      1 RES1    0.0000
     48 H24       -1.8244    4.9983    9.9145 H         1 RES1    0.0000
     49 C25       -1.0922    6.5386   11.0015 C.ar      1 RES1    0.0000
     50 H25       -1.9258    6.8083   11.3715 H         1 RES1    0.0000
     51 C26        0.0560    7.2158   11.3234 C.ar      1 RES1    0.0000
     52 H26        0.0136    7.9470   11.9243 H         1 RES1    0.0000
     53 C27        1.2708    6.8472   10.7870 C.ar      1 RES1    0.0000
     54 H27        2.0544    7.3357   11.0169 H         1 RES1    0.0000
     55 N1         5.3977   -0.2643    6.9687 N.pl3     1 RES1    0.0000
     56 H28        5.4234   -1.1147    7.1953 H         1 RES1    0.0000
     57 N2         0.8562    5.5000    5.7252 N.pl3     1 RES1    0.0000
     58 O1         5.2508    2.8522    9.9003 O.2       1 RES1    0.0000
     59 O2         5.0000    4.2444    8.1455 O.3       1 RES1    0.0000
     60 O3         5.6306    1.0590    2.9217 O.2       1 RES1    0.0000
     61 O4         4.5464    2.8761    3.6311 O.3       1 RES1    0.0000
     62 O5         2.0685    3.0937    2.2288 O.3       1 RES1    0.0000
     63 O6         1.6202    6.2977    5.1767 O.2       1 RES1    0.0000
     64 O7        -0.2889    5.7846    6.0558 O.2       1 RES1    0.0000
@<TRIPOS>BOND
     1    1    2 2
     2    2    3 1
     3    3    4 1
     4    5    3 1
     5    6    5 2
     6    7    6 1
     7    8    7 1
     8    9    7 1
     9   10    7 1
    10   11    1 1
    11   12   11 1
    12   13   11 1
    13   14   11 1
    14   15    3 1
    15   16   15 ar
    16   17   16 1
    17   18   16 ar
    18   19   18 ar
    19   20   19 1
    20   21   19 ar
    21   22   21 1
    22   23   15 ar
    23   24   23 1
    24   25    5 1
    25   26   27 1
    26   28   26 1
    27   29   26 1
    28   30   29 1
    29   31   29 1
    30   32   33 1
    31   34   32 1
    32   35   32 1
    33   36    2 1
    34   37   38 1
    35   39   37 1
    36   40   37 1
    37   41   40 1
    38   42   40 2
    39   43   42 1
    40   44   42 1
    41   45   44 ar
    42   46   45 1
    43   47   45 ar
    44   48   47 1
    45   49   47 ar
    46   50   49 1
    47   51   49 ar
    48   52   51 1
    49   53   44 ar
    50   54   53 1
    51   55    1 1
    52   56   55 1
    53   57   18 1
    54   58   36 2
    55   59   36 1
    56   60   25 2
    57   61   25 1
    58   62   29 1
    59   63   57 2
    60   64   57 2
    61    6   55 1
    62   21   23 ar
    63   26   61 1
    64   32   62 1
    65   37   59 1
    66   51   53 ar
@<TRIPOS>SUBSTRUCTURE
     1 RES1 1

@<TRIPOS>CRYSIN
  15.1280   59.9320   10.9468  90.0000  90.0000  90.0000  43 1

