# MOL2 file generated by ConQuest
# Please check atom types

@<TRIPOS>MOLECULE
VEMBAS
   127    92     3
SMALL
NO_CHARGES
****
Generated from CSD

@<TRIPOS>ATOM
      1 O1         1.1788   -0.9479    6.4029 O.3       1 RES1    0.0000
      2 O2         0.5813    0.5010    4.6703 O.3       1 RES1    0.0000
      3 O3        -4.0612   -0.3054    2.8658 O.2       1 RES1    0.0000
      4 N1        -4.4039   -0.2126    4.0387 N.pl3     1 RES1    0.0000
      5 O4        -5.5422    0.0742    4.3903 O.2       1 RES1    0.0000
      6 O5        -0.9555    3.9559    1.6331 O.2       1 RES1    0.0000
      7 N2         0.2022    4.1754    1.2808 N.pl3     1 RES1    0.0000
      8 O6         0.4739    4.9398    0.3591 O.2       1 RES1    0.0000
      9 C1         0.3121   -0.7482    5.2766 C.3       1 RES1    0.0000
     10 H1         0.4576   -1.4805    4.6101 H         1 RES1    0.0000
     11 C2         1.9123    0.5265    4.1553 C.3       1 RES1    0.0000
     12 H2         2.0327   -0.2508    3.5383 H         1 RES1    0.0000
     13 C3         2.8523    0.3777    5.3004 C.3       1 RES1    0.0000
     14 H3         3.7814    0.3438    4.9597 H         1 RES1    0.0000
     15 H4         2.7733    1.1655    5.8949 H         1 RES1    0.0000
     16 C4         2.5680   -0.8551    6.0759 C.3       1 RES1    0.0000
     17 C5         3.3706   -1.0402    7.3257 C.2       1 RES1    0.0000
     18 H5         3.2900   -0.5012    8.1041 H         1 RES1    0.0000
     19 C6         4.1998   -2.0470    7.1998 C.2       1 RES1    0.0000
     20 H6         4.7880   -2.3710    7.8710 H         1 RES1    0.0000
     21 C7         4.0573   -2.5978    5.8212 C.2       1 RES1    0.0000
     22 O7         2.9863   -1.9682    5.2344 O.3       1 RES1    0.0000
     23 O8         4.6335   -3.4912    5.2719 O.2       1 RES1    0.0000
     24 C8        -1.1275   -0.7368    5.6952 C.ar      1 RES1    0.0000
     25 C9        -2.0827   -0.5332    4.7158 C.ar      1 RES1    0.0000
     26 H7        -1.8319   -0.4536    3.8035 H         1 RES1    0.0000
     27 C10       -3.4045   -0.4482    5.0889 C.ar      1 RES1    0.0000
     28 C11       -3.8215   -0.5644    6.3959 C.ar      1 RES1    0.0000
     29 H8        -4.7403   -0.4840    6.6291 H         1 RES1    0.0000
     30 C12       -2.8615   -0.8017    7.3565 C.ar      1 RES1    0.0000
     31 H9        -3.1187   -0.9088    8.2649 H         1 RES1    0.0000
     32 C13       -1.5285   -0.8868    7.0062 C.ar      1 RES1    0.0000
     33 H10       -0.8784   -1.0502    7.6794 H         1 RES1    0.0000
     34 C14        2.1260    1.7958    3.3768 C.ar      1 RES1    0.0000
     35 C15        1.0489    2.4651    2.8112 C.ar      1 RES1    0.0000
     36 H11        0.1576    2.1809    2.9769 H         1 RES1    0.0000
     37 C16        1.3058    3.5470    2.0068 C.ar      1 RES1    0.0000
     38 C17        2.5726    4.0119    1.7564 C.ar      1 RES1    0.0000
     39 H12        2.7106    4.7624    1.1910 H         1 RES1    0.0000
     40 C18        3.6275    3.3732    2.3365 C.ar      1 RES1    0.0000
     41 H13        4.5127    3.6882    2.1918 H         1 RES1    0.0000
     42 C19        3.4097    2.2688    3.1337 C.ar      1 RES1    0.0000
     43 H14        4.1505    1.8218    3.5235 H         1 RES1    0.0000
     44 O9         6.0592    5.4779    2.5975 O.3       2 RES2    0.0000
     45 O10        6.5013    7.7630    2.7280 O.3       2 RES2    0.0000
     46 O11        8.0852    4.6536    3.3518 O.3       2 RES2    0.0000
     47 O12        8.8518    2.6669    4.0624 O.2       2 RES2    0.0000
     48 O13        6.4127   10.7122   -1.3057 O.2       2 RES2    0.0000
     49 N3         7.2514   11.3462   -0.6792 N.pl3     2 RES2    0.0000
     50 O14        7.4055   12.5588   -0.8016 O.2       2 RES2    0.0000
     51 C20        5.9766    6.6584    3.4090 C.3       2 RES2    0.0000
     52 H15        6.4723    6.5180    4.2657 H         2 RES2    0.0000
     53 C21        7.9088    7.5767    2.4657 C.3       2 RES2    0.0000
     54 H16        8.3961    7.4546    3.3306 H         2 RES2    0.0000
     55 C22        8.0843    6.3327    1.6029 C.3       2 RES2    0.0000
     56 H17        7.7320    6.5112    0.6953 H         2 RES2    0.0000
     57 H18        9.0498    6.1255    1.5206 H         2 RES2    0.0000
     58 C23        7.3658    5.1418    2.1932 C.3       2 RES2    0.0000
     59 C24        7.2493    3.9385    1.3048 C.2       2 RES2    0.0000
     60 H19        6.8389    3.9277    0.4488 H         2 RES2    0.0000
     61 C25        7.8023    2.9021    1.8941 C.2       2 RES2    0.0000
     62 H20        7.8557    2.0268    1.5313 H         2 RES2    0.0000
     63 C26        8.3236    3.3134    3.2009 C.2       2 RES2    0.0000
     64 C27        4.5221    6.8690    3.6883 C.ar      2 RES2    0.0000
     65 C28        3.6356    7.1767    2.6714 C.ar      2 RES2    0.0000
     66 H21        3.9452    7.3468    1.7899 H         2 RES2    0.0000
     67 C29        2.2798    7.2293    2.9742 C.ar      2 RES2    0.0000
     68 C30        1.8010    7.0300    4.2430 C.ar      2 RES2    0.0000
     69 H22        0.8715    7.1026    4.4238 H         2 RES2    0.0000
     70 C31        2.6787    6.7273    5.2451 C.ar      2 RES2    0.0000
     71 H23        2.3620    6.5880    6.1307 H         2 RES2    0.0000
     72 C32        4.0330    6.6232    4.9637 C.ar      2 RES2    0.0000
     73 H24        4.6364    6.3800    5.6564 H         2 RES2    0.0000
     74 O15        1.7227    7.8346    0.8186 O.2       2 RES2    0.0000
     75 N4         1.3107    7.4624    1.9051 N.pl3     2 RES2    0.0000
     76 O16        0.1100    7.2201    2.1329 O.2       2 RES2    0.0000
     77 C33        4.5221    6.8690    3.6883 Du        3 SUP3    0.0000
     78 C34        3.8337    6.8946    4.8994 Du        3 SUP3    0.0000
     79 H25        4.3093    6.7648    5.7127 Du        3 SUP3    0.0000
     80 C35        2.4594    7.1117    4.9289 Du        3 SUP3    0.0000
     81 C36        1.7511    7.4685    3.8317 Du        3 SUP3    0.0000
     82 H26        0.8200    7.6710    3.8719 Du        3 SUP3    0.0000
     83 C37        2.4558    7.5340    2.6661 Du        3 SUP3    0.0000
     84 H27        1.9960    7.8097    1.8823 Du        3 SUP3    0.0000
     85 C38        3.8056    7.2225    2.5509 Du        3 SUP3    0.0000
     86 H28        4.2271    7.2397    1.7015 Du        3 SUP3    0.0000
     87 O17        2.5718    6.3444    7.1395 Du        3 SUP3    0.0000
     88 N5         1.9396    6.9318    6.2754 Du        3 SUP3    0.0000
     89 O18        0.8254    7.4039    6.4562 Du        3 SUP3    0.0000
     90 C39        8.4098    8.8210    1.7768 C.ar      2 RES2    0.0000
     91 C40        7.6102    9.4829    0.8542 C.ar      2 RES2    0.0000
     92 H29        6.7490    9.1502    0.6283 H         2 RES2    0.0000
     93 C41        8.1011   10.6399    0.2728 C.ar      2 RES2    0.0000
     94 C42        9.3435   11.1602    0.5485 C.ar      2 RES2    0.0000
     95 H30        9.6424   11.9646    0.1420 H         2 RES2    0.0000
     96 C43       10.1357   10.4702    1.4349 C.ar      2 RES2    0.0000
     97 H31       11.0141   10.7790    1.6171 H         2 RES2    0.0000
     98 C44        9.6691    9.3325    2.0645 C.ar      2 RES2    0.0000
     99 H32       10.2167    8.8922    2.7036 H         2 RES2    0.0000
    100 C45        4.5221    6.8690    3.6883 Du        3 SUP3    0.0000
    101 C46        3.6000    7.4321    2.8483 Du        3 SUP3    0.0000
    102 C47        2.2998    7.4735    3.3360 Du        3 SUP3    0.0000
    103 C48        1.1788   -0.9479    6.4029 Du        3 SUP3    0.0000
    104 C49        1.8639    7.0125    4.5283 Du        3 SUP3    0.0000
    105 C50        2.8120    6.4658    5.3322 Du        3 SUP3    0.0000
    106 C51        4.1463    6.3777    4.9316 Du        3 SUP3    0.0000
    107 C52        2.5680   -0.8551    6.0759 Du        3 SUP3    0.0000
    108 C53        3.6807   -0.7945    7.0926 Du        3 SUP3    0.0000
    109 C54        4.4211   -1.8685    6.9010 Du        3 SUP3    0.0000
    110 C55        3.7715   -2.8112    5.9324 Du        3 SUP3    0.0000
    111 H33        3.8285    7.7729    1.9922 Du        3 SUP3    0.0000
    112 H34        0.9522    7.0795    4.7963 Du        3 SUP3    0.0000
    113 H35        2.5679    6.1332    6.1789 Du        3 SUP3    0.0000
    114 H36        4.7911    5.9934    5.5090 Du        3 SUP3    0.0000
    115 H37        0.9671   -0.2712    7.0939 Du        3 SUP3    0.0000
    116 H38        1.0001   -1.8406    6.7912 Du        3 SUP3    0.0000
    117 H39        3.8182   -0.1167    7.7424 Du        3 SUP3    0.0000
    118 H40        5.2588   -2.0214    7.3217 Du        3 SUP3    0.0000
    119 N6         0.1263    4.3986    1.6841 Du        3 SUP3    0.0000
    120 N7         1.6730    8.1101    2.1891 Du        3 SUP3    0.0000
    121 O19        2.8523    0.3777    5.3004 Du        3 SUP3    0.0000
    122 O20        1.8643    7.8715    1.0048 Du        3 SUP3    0.0000
    123 O21        0.5641    8.5103    2.5348 Du        3 SUP3    0.0000
    124 O22        2.7401   -2.1039    5.3509 Du        3 SUP3    0.0000
    125 O23        4.1730   -3.7853    5.3335 Du        3 SUP3    0.0000
    126 O24       -0.9713    3.8956    1.9158 Du        3 SUP3    0.0000
    127 O25        0.1846    5.4903    1.1106 Du        3 SUP3    0.0000
@<TRIPOS>BOND
     1    1    9 1
     2    2    9 1
     3    3    4 2
     4    4    5 2
     5    6    7 2
     6    7    8 2
     7    9   10 1
     8   11    2 1
     9   12   11 1
    10   13   11 1
    11   14   13 1
    12   15   13 1
    13   16    1 1
    14   17   16 1
    15   18   17 1
    16   19   17 2
    17   20   19 1
    18   21   19 1
    19   22   16 1
    20   23   21 2
    21   24    9 1
    22   25   24 ar
    23   26   25 1
    24   27    4 1
    25   28   27 ar
    26   29   28 1
    27   30   28 ar
    28   31   30 1
    29   32   24 ar
    30   33   32 1
    31   34   11 1
    32   35   34 ar
    33   36   35 1
    34   37    7 1
    35   38   37 ar
    36   39   38 1
    37   40   38 ar
    38   41   40 1
    39   42   34 ar
    40   43   42 1
    41   44   51 1
    42   45   51 1
    43   46   58 1
    44   47   63 2
    45   48   49 2
    46   49   50 2
    47   51   52 1
    48   53   45 1
    49   54   53 1
    50   55   53 1
    51   56   55 1
    52   57   55 1
    53   58   44 1
    54   59   58 1
    55   60   59 1
    56   61   59 2
    57   62   61 1
    58   63   46 1
    59   64   51 1
    60   65   64 ar
    61   66   65 1
    62   67   65 ar
    63   68   67 ar
    64   69   68 1
    65   70   68 ar
    66   71   70 1
    67   72   64 ar
    68   73   72 1
    69   74   75 2
    70   75   67 1
    71   76   75 2
    72   90   53 1
    73   91   90 ar
    74   92   91 1
    75   93   49 1
    76   94   93 ar
    77   95   94 1
    78   96   94 ar
    79   97   96 1
    80   98   90 ar
    81   99   98 1
    82   13   16 1
    83   21   22 1
    84   25   27 ar
    85   30   32 ar
    86   35   37 ar
    87   40   42 ar
    88   55   58 1
    89   61   63 1
    90   70   72 ar
    91   91   93 ar
    92   96   98 ar
@<TRIPOS>SUBSTRUCTURE
     1 RES1 1
     2 RES2 44
     3 SUP3 77

@<TRIPOS>CRYSIN
  11.7324   12.5199   13.9798  74.7120  77.3840  62.7290   2 1

