# MOL2 file generated by ConQuest
# Please check atom types

@<TRIPOS>MOLECULE
VEMLUX
   126   132     2
SMALL
NO_CHARGES
****
Generated from CSD

@<TRIPOS>ATOM
      1 O1        -4.9334    1.8843    2.2752 O.2       1 RES1    0.0000
      2 O2        -3.6467    2.0678    0.5541 O.2       1 RES1    0.0000
      3 O3        -3.2738    2.9025    6.5962 O.2       1 RES1    0.0000
      4 O4        -1.1718    3.2498    6.9253 O.2       1 RES1    0.0000
      5 O5         2.6939    8.6233    1.2380 O.2       1 RES1    0.0000
      6 O6         4.2168   10.0254    2.0835 O.3       1 RES1    0.0000
      7 O7         5.5433    7.1720    1.4569 O.3       1 RES1    0.0000
      8 O8         6.5084    7.7425    3.3955 O.2       1 RES1    0.0000
      9 O9        -0.7290    8.9319   10.1095 O.2       1 RES1    0.0000
     10 O10        1.1375    8.7869   11.3007 O.3       1 RES1    0.0000
     11 N1        -3.8631    2.1845    1.7529 N.pl3     1 RES1    0.0000
     12 N2        -2.1287    3.0718    6.1735 N.pl3     1 RES1    0.0000
     13 N3         0.3150    4.0979    4.9340 N.pl3     1 RES1    0.0000
     14 H1         0.3481    3.9443    5.7991 H         1 RES1    0.0000
     15 N4         1.3166    4.8397    4.3195 N.2       1 RES1    0.0000
     16 C1        -1.9078    3.0917    4.7482 C.ar      1 RES1    0.0000
     17 C2        -2.9450    2.6354    3.9571 C.ar      1 RES1    0.0000
     18 H2        -3.7434    2.3000    4.3497 H         1 RES1    0.0000
     19 C3        -2.7974    2.6779    2.5938 C.ar      1 RES1    0.0000
     20 C4        -1.6559    3.1783    2.0035 C.ar      1 RES1    0.0000
     21 H3        -1.5799    3.1975    1.0568 H         1 RES1    0.0000
     22 C5        -0.6355    3.6470    2.7810 C.ar      1 RES1    0.0000
     23 H4         0.1404    4.0019    2.3628 H         1 RES1    0.0000
     24 C6        -0.7057    3.6150    4.2017 C.ar      1 RES1    0.0000
     25 C7         2.1337    5.3840    5.1317 C.2       1 RES1    0.0000
     26 H5         2.0459    5.2213    6.0633 H         1 RES1    0.0000
     27 C8         3.2030    6.2524    4.6516 C.3       1 RES1    0.0000
     28 C9         3.5825    7.4935    5.4880 C.3       1 RES1    0.0000
     29 C10        3.9424    8.5957    4.4961 C.3       1 RES1    0.0000
     30 H6         4.7916    9.0310    4.7603 H         1 RES1    0.0000
     31 H7         3.2298    9.2829    4.4720 H         1 RES1    0.0000
     32 C11        4.0909    7.9245    3.1041 C.3       1 RES1    0.0000
     33 C12        3.2722    6.6169    3.1917 C.3       1 RES1    0.0000
     34 H8         2.3618    6.7535    2.8278 H         1 RES1    0.0000
     35 H9         3.7144    5.8962    2.6768 H         1 RES1    0.0000
     36 C13        4.4890    6.3057    5.4941 C.3       1 RES1    0.0000
     37 H10        4.5213    5.7582    6.3184 H         1 RES1    0.0000
     38 H11        5.3506    6.3842    5.0125 H         1 RES1    0.0000
     39 C14        3.5534    8.8700    2.0186 C.2       1 RES1    0.0000
     40 C15        3.8526   11.0384    1.1172 C.3       1 RES1    0.0000
     41 H12        4.1764   10.7766    0.2310 H         1 RES1    0.0000
     42 H13        4.2570   11.8937    1.3739 H         1 RES1    0.0000
     43 H14        2.8771   11.1316    1.0946 H         1 RES1    0.0000
     44 C16        5.5296    7.6225    2.7146 C.2       1 RES1    0.0000
     45 C17        6.8484    6.8459    0.8908 C.3       1 RES1    0.0000
     46 H15        6.7261    6.3664    0.0438 H         1 RES1    0.0000
     47 H16        7.3454    6.2802    1.5173 H         1 RES1    0.0000
     48 H17        7.3501    7.6717    0.7277 H         1 RES1    0.0000
     49 C18        2.8124    7.8500    6.7155 C.ar      1 RES1    0.0000
     50 C19        3.4006    7.8592    7.9656 C.ar      1 RES1    0.0000
     51 H18        4.3245    7.6523    8.0486 H         1 RES1    0.0000
     52 C20        2.6658    8.1655    9.0949 C.ar      1 RES1    0.0000
     53 H19        3.0857    8.1790    9.9479 H         1 RES1    0.0000
     54 C21        1.3090    8.4550    8.9832 C.ar      1 RES1    0.0000
     55 C22        0.7039    8.4556    7.7285 C.ar      1 RES1    0.0000
     56 H20       -0.2215    8.6531    7.6485 H         1 RES1    0.0000
     57 C23        1.4451    8.1705    6.6023 C.ar      1 RES1    0.0000
     58 H21        1.0328    8.1903    5.7477 H         1 RES1    0.0000
     59 C24        0.4532    8.7531   10.1668 C.2       1 RES1    0.0000
     60 C25        0.3993    9.0639   12.5025 C.3       1 RES1    0.0000
     61 H22       -0.5455    8.8445   12.3636 H         1 RES1    0.0000
     62 H23        0.4849   10.0138   12.7274 H         1 RES1    0.0000
     63 H24        0.7561    8.5211   13.2377 H         1 RES1    0.0000
     64 O11        1.1364    4.7461    8.1951 O.2       2 RES2    0.0000
     65 O12       -0.7764    5.6707    8.5000 O.2       2 RES2    0.0000
     66 O13       -2.6459    6.3437   12.7637 O.2       2 RES2    0.0000
     67 O14       -1.5036    5.9010   14.5497 O.2       2 RES2    0.0000
     68 O15        1.3915   -1.0218    5.3552 O.2       2 RES2    0.0000
     69 O16        3.2269   -0.9156    4.0900 O.3       2 RES2    0.0000
     70 O17        6.3520   -1.8629   13.2966 O.3       2 RES2    0.0000
     71 O18        4.8498   -0.4006   14.0470 O.2       2 RES2    0.0000
     72 O19        7.7573    1.0174   13.8160 O.3       2 RES2    0.0000
     73 O20        8.7324    0.2450   11.9559 O.2       2 RES2    0.0000
     74 N5        -1.6430    5.9276   13.3283 N.pl3     2 RES2    0.0000
     75 N6         0.2491    5.1844    8.9424 N.pl3     2 RES2    0.0000
     76 N7         2.6243    4.0167   10.2287 N.pl3     2 RES2    0.0000
     77 H25        2.6726    4.1621    9.3621 H         2 RES2    0.0000
     78 N8         3.5996    3.2732   10.8749 N.2       2 RES2    0.0000
     79 C26        0.4381    5.0969   10.3691 C.ar      2 RES2    0.0000
     80 C27       -0.6141    5.5583   11.1467 C.ar      2 RES2    0.0000
     81 H26       -1.3857    5.9337   10.7375 H         2 RES2    0.0000
     82 C28       -0.5252    5.4676   12.5115 C.ar      2 RES2    0.0000
     83 C29        0.5903    4.9147   13.1275 C.ar      2 RES2    0.0000
     84 H27        0.6303    4.8528   14.0741 H         2 RES2    0.0000
     85 C30        1.6253    4.4624   12.3696 C.ar      2 RES2    0.0000
     86 H28        2.3894    4.1012   12.8014 H         2 RES2    0.0000
     87 C31        1.5983    4.5168   10.9519 C.ar      2 RES2    0.0000
     88 C32        4.4308    2.7261   10.0808 C.2       2 RES2    0.0000
     89 H29        4.3673    2.8929    9.1477 H         2 RES2    0.0000
     90 C33        5.4798    1.8447   10.5850 C.3       2 RES2    0.0000
     91 C34        5.5258    1.5231   12.0616 C.3       2 RES2    0.0000
     92 H30        4.6091    1.4285   12.4240 H         2 RES2    0.0000
     93 H31        5.9890    2.2441   12.5583 H         2 RES2    0.0000
     94 C35        6.2966    0.1962   12.1960 C.3       2 RES2    0.0000
     95 C36        6.1513   -0.5162   10.8326 C.3       2 RES2    0.0000
     96 H32        6.9918   -0.9846   10.5986 H         2 RES2    0.0000
     97 H33        5.4185   -1.1808   10.8674 H         2 RES2    0.0000
     98 C37        5.8401    0.5637    9.8030 C.3       2 RES2    0.0000
     99 C38        6.7830    1.7276    9.7652 C.3       2 RES2    0.0000
    100 H34        6.8438    2.2436    8.9228 H         2 RES2    0.0000
    101 H35        7.6339    1.6451   10.2650 H         2 RES2    0.0000
    102 C39        7.7454    0.4698   12.5991 C.2       2 RES2    0.0000
    103 C40        9.0444    1.3406   14.3882 C.3       2 RES2    0.0000
    104 H36        9.5928    1.8011   13.7193 H         2 RES2    0.0000
    105 H37        9.4940    0.5159   14.6675 H         2 RES2    0.0000
    106 H38        8.9194    1.9242   15.1657 H         2 RES2    0.0000
    107 C41        5.7306   -0.6882   13.2981 C.2       2 RES2    0.0000
    108 C42        5.8951   -2.8348   14.2689 C.3       2 RES2    0.0000
    109 H39        4.9656   -3.0778   14.0756 H         2 RES2    0.0000
    110 H40        5.9516   -2.4486   15.1687 H         2 RES2    0.0000
    111 H41        6.4591   -3.6350   14.2221 H         2 RES2    0.0000
    112 C43        5.0323    0.1685    8.6087 C.ar      2 RES2    0.0000
    113 C44        3.6581   -0.0742    8.7446 C.ar      2 RES2    0.0000
    114 H42        3.2527   -0.0126    9.6007 H         2 RES2    0.0000
    115 C45        2.8953   -0.3998    7.6576 C.ar      2 RES2    0.0000
    116 H43        1.9650   -0.5562    7.7648 H         2 RES2    0.0000
    117 C46        3.4703   -0.5020    6.3909 C.ar      2 RES2    0.0000
    118 C47        4.8342   -0.2881    6.2444 C.ar      2 RES2    0.0000
    119 H44        5.2403   -0.3721    5.3899 H         2 RES2    0.0000
    120 C48        5.5999    0.0475    7.3436 C.ar      2 RES2    0.0000
    121 H45        6.5313    0.1998    7.2333 H         2 RES2    0.0000
    122 C49        2.5773   -0.8278    5.2570 C.2       2 RES2    0.0000
    123 C50        2.4281   -1.2593    2.9335 C.3       2 RES2    0.0000
    124 H46        2.8227   -0.8563    2.1318 H         2 RES2    0.0000
    125 H47        1.5159   -0.9224    3.0543 H         2 RES2    0.0000
    126 H48        2.4055   -2.2342    2.8308 H         2 RES2    0.0000
@<TRIPOS>BOND
     1    1   11 2
     2    2   11 2
     3    3   12 2
     4    4   12 2
     5    5   39 2
     6    6   39 1
     7    7   44 1
     8    8   44 2
     9    9   59 2
    10   10   59 1
    11   11   19 1
    12   12   16 1
    13   13   14 1
    14   15   13 1
    15   16   17 ar
    16   17   18 1
    17   19   17 ar
    18   20   19 ar
    19   21   20 1
    20   22   20 ar
    21   23   22 1
    22   24   13 1
    23   25   15 2
    24   26   25 1
    25   27   25 1
    26   28   27 1
    27   29   28 1
    28   30   29 1
    29   31   29 1
    30   32   29 1
    31   33   27 1
    32   34   33 1
    33   35   33 1
    34   36   27 1
    35   37   36 1
    36   38   36 1
    37   39   32 1
    38   40    6 1
    39   41   40 1
    40   42   40 1
    41   43   40 1
    42   44   32 1
    43   45    7 1
    44   46   45 1
    45   47   45 1
    46   48   45 1
    47   49   28 1
    48   50   49 ar
    49   51   50 1
    50   52   50 ar
    51   53   52 1
    52   54   52 ar
    53   55   54 ar
    54   56   55 1
    55   57   49 ar
    56   58   57 1
    57   59   54 1
    58   60   10 1
    59   61   60 1
    60   62   60 1
    61   63   60 1
    62   64   75 2
    63   65   75 2
    64   66   74 2
    65   67   74 2
    66   68  122 2
    67   69  122 1
    68   70  107 1
    69   71  107 2
    70   72  102 1
    71   73  102 2
    72   74   82 1
    73   75   79 1
    74   76   77 1
    75   78   76 1
    76   79   80 ar
    77   80   81 1
    78   82   80 ar
    79   83   82 ar
    80   84   83 1
    81   85   83 ar
    82   86   85 1
    83   87   76 1
    84   88   78 2
    85   89   88 1
    86   90   88 1
    87   91   90 1
    88   92   91 1
    89   93   91 1
    90   94   91 1
    91   95   94 1
    92   96   95 1
    93   97   95 1
    94   98   90 1
    95   99   90 1
    96  100   99 1
    97  101   99 1
    98  102   94 1
    99  103   72 1
   100  104  103 1
   101  105  103 1
   102  106  103 1
   103  107   94 1
   104  108   70 1
   105  109  108 1
   106  110  108 1
   107  111  108 1
   108  112   98 1
   109  113  112 ar
   110  114  113 1
   111  115  113 ar
   112  116  115 1
   113  117  115 ar
   114  118  117 ar
   115  119  118 1
   116  120  112 ar
   117  121  120 1
   118  122  117 1
   119  123   69 1
   120  124  123 1
   121  125  123 1
   122  126  123 1
   123   16   24 ar
   124   22   24 ar
   125   28   36 1
   126   32   33 1
   127   55   57 ar
   128   79   87 ar
   129   85   87 ar
   130   95   98 1
   131   98   99 1
   132  118  120 ar
@<TRIPOS>SUBSTRUCTURE
     1 RES1 1
     2 RES2 64

@<TRIPOS>CRYSIN
   6.8876   12.3859   15.7510 104.8140  94.6970  99.5190   1 1

