# MOL2 file generated by ConQuest
# Please check atom types

@<TRIPOS>MOLECULE
VEMPEK
   240   248     4
SMALL
NO_CHARGES
****
Generated from CSD

@<TRIPOS>ATOM
      1 C1         2.3134   15.2931   14.8278 C.ar      1 RES1    0.0000
      2 H1         2.7309   15.7766   14.1548 H         1 RES1    0.0000
      3 C2         1.2163   15.8244   15.4393 C.ar      1 RES1    0.0000
      4 H2         0.8929   16.6602   15.1932 H         1 RES1    0.0000
      5 C3         0.5995   15.0978   16.4271 C.ar      1 RES1    0.0000
      6 H3        -0.1500   15.4420   16.8577 H         1 RES1    0.0000
      7 C4         1.0732   13.8960   16.7744 C.ar      1 RES1    0.0000
      8 H4         0.6394   13.3989   17.4293 H         1 RES1    0.0000
      9 C5         2.2143   13.3839   16.1593 C.ar      1 RES1    0.0000
     10 H5         2.5597   12.5631   16.4271 H         1 RES1    0.0000
     11 C6         2.8147   14.0817   15.1744 C.ar      1 RES1    0.0000
     12 C7         4.1205   13.6256   14.5383 C.3       1 RES1    0.0000
     13 H6         4.3026   14.1814   13.7640 H         1 RES1    0.0000
     14 H7         4.8419   13.7567   15.1715 H         1 RES1    0.0000
     15 N1         4.1111   12.2230   14.1186 N.3       1 RES1    0.0000
     16 O1         4.3690   11.4637   15.3210 O.3       1 RES1    0.0000
     17 C8         4.5051   10.1376   14.8372 C.3       1 RES1    0.0000
     18 H8         3.6170    9.7757   14.6396 H         1 RES1    0.0000
     19 C9         5.1603    9.2895   15.8843 C.3       1 RES1    0.0000
     20 H9         6.0063    9.6733   16.1268 H         1 RES1    0.0000
     21 H10        5.2983    8.4032   15.5406 H         1 RES1    0.0000
     22 H11        4.5953    9.2458   16.6623 H         1 RES1    0.0000
     23 C10        5.2924   10.2837   13.5216 C.3       1 RES1    0.0000
     24 H12        6.2226   10.0188   13.6808 H         1 RES1    0.0000
     25 C11        5.2494   11.7942   13.2289 C.3       1 RES1    0.0000
     26 C12        4.9073   12.2148   11.7848 C.3       1 RES1    0.0000
     27 H13        5.6483   12.0141   11.2095 H         1 RES1    0.0000
     28 H14        4.7283   13.1572   11.7595 H         1 RES1    0.0000
     29 H15        4.1312   11.7341   11.4881 H         1 RES1    0.0000
     30 C13        6.5767   12.4197   13.7278 C.2       1 RES1    0.0000
     31 O2         7.2933   11.9417   14.5571 O.2       1 RES1    0.0000
     32 O3         6.7626   13.6133   13.1858 O.3       1 RES1    0.0000
     33 C14        7.8774   14.4095   13.7712 C.3       1 RES1    0.0000
     34 H16        7.7057   14.5898   14.7084 H         1 RES1    0.0000
     35 H17        8.7130   13.9233   13.6989 H         1 RES1    0.0000
     36 C15        7.9514   15.6263   13.0404 C.3       1 RES1    0.0000
     37 H18        8.2187   15.4420   12.1394 H         1 RES1    0.0000
     38 H19        8.5944   16.2081   13.4528 H         1 RES1    0.0000
     39 H20        7.0900   16.0511   13.0404 H         1 RES1    0.0000
     40 C16        4.7204    9.4151   12.4202 C.2       1 RES1    0.0000
     41 O4         3.5079    9.3441   12.1995 O.2       1 RES1    0.0000
     42 N2         5.6032    8.7473   11.6954 N.am      1 RES1    0.0000
     43 H21        6.4406    8.8497   11.8644 H         1 RES1    0.0000
     44 C17        5.2064    7.8528   10.6317 C.3       1 RES1    0.0000
     45 H22        4.3985    7.3802   10.9236 H         1 RES1    0.0000
     46 C18        4.8566    8.6449    9.3352 C.3       1 RES1    0.0000
     47 H23        4.1396    9.2567    9.5161 H         1 RES1    0.0000
     48 H24        4.5860    8.0303    8.6477 H         1 RES1    0.0000
     49 H25        5.6281    9.1338    9.0421 H         1 RES1    0.0000
     50 C19        6.2851    6.8258   10.4055 C.ar      1 RES1    0.0000
     51 C20        6.0830    5.5434   10.7500 C.ar      1 RES1    0.0000
     52 H26        5.2732    5.2962   11.1335 H         1 RES1    0.0000
     53 C21        7.0670    4.5724   10.5365 C.ar      1 RES1    0.0000
     54 H27        6.8985    3.6792   10.7355 H         1 RES1    0.0000
     55 C22        8.2492    4.9438   10.0516 C.ar      1 RES1    0.0000
     56 H28        8.9164    4.3047    9.9431 H         1 RES1    0.0000
     57 C23        8.5078    6.2576    9.7079 C.ar      1 RES1    0.0000
     58 H29        9.3387    6.5007    9.3678 H         1 RES1    0.0000
     59 C24        7.5219    7.1986    9.8671 C.ar      1 RES1    0.0000
     60 H30        7.6761    8.0808    9.6211 H         1 RES1    0.0000
     61 C25        7.4465    4.4918   16.6478 C.ar      2 RES2    0.0000
     62 H31        8.2484    4.6311   17.0965 H         2 RES2    0.0000
     63 C26        6.6511    3.3938   16.9807 C.ar      2 RES2    0.0000
     64 H32        6.9150    2.8024   17.6464 H         2 RES2    0.0000
     65 C27        5.4540    3.1985   16.2932 C.ar      2 RES2    0.0000
     66 H33        4.9342    2.4487   16.4705 H         2 RES2    0.0000
     67 C28        5.0466    4.1012   15.3633 C.ar      2 RES2    0.0000
     68 H34        4.2199    4.0015   14.9472 H         2 RES2    0.0000
     69 C29        5.8517    5.1610   15.0304 C.ar      2 RES2    0.0000
     70 H35        5.5705    5.7482   14.3683 H         2 RES2    0.0000
     71 C30        7.0564    5.3850   15.6481 C.ar      2 RES2    0.0000
     72 C31        7.8280    6.6387   15.3271 C.3       2 RES2    0.0000
     73 H36        7.6331    6.9186   14.4225 H         2 RES2    0.0000
     74 H37        7.5559    7.3502   15.9278 H         2 RES2    0.0000
     75 N3         9.2779    6.3983   15.4711 N.3       2 RES2    0.0000
     76 O5         9.7033    5.4560   14.4960 O.3       2 RES2    0.0000
     77 C32        9.9315    6.1634   13.2538 C.3       2 RES2    0.0000
     78 H38        9.0990    6.2003   12.7400 H         2 RES2    0.0000
     79 C33       10.9789    5.3740   12.4795 C.3       2 RES2    0.0000
     80 H39       11.7903    5.3303   12.9897 H         2 RES2    0.0000
     81 H40       11.1515    5.8083   11.6401 H         2 RES2    0.0000
     82 H41       10.6545    4.4836   12.3167 H         2 RES2    0.0000
     83 C34       10.3448    7.5769   13.6641 C.3       2 RES2    0.0000
     84 H42       11.2972    7.6998   13.4673 H         2 RES2    0.0000
     85 C35       10.1500    7.5455   15.1998 C.3       2 RES2    0.0000
     86 C36        9.6731    8.8333   15.8192 C.3       2 RES2    0.0000
     87 H43        8.8568    9.1079   15.3959 H         2 RES2    0.0000
     88 H44       10.3402    9.5121   15.6998 H         2 RES2    0.0000
     89 H45        9.5186    8.6981   16.7563 H         2 RES2    0.0000
     90 C37       11.5050    7.1290   15.8264 C.2       2 RES2    0.0000
     91 O6        12.4929    6.8749   15.2396 O.2       2 RES2    0.0000
     92 O7        11.3800    7.0661   17.1598 O.3       2 RES2    0.0000
     93 C38       12.4900    6.4447   17.8925 C.3       2 RES2    0.0000
     94 H46       13.3104    6.5117   17.3787 H         2 RES2    0.0000
     95 H47       12.6227    6.8900   18.7428 H         2 RES2    0.0000
     96 C39       12.1444    5.0640   18.0987 C.3       2 RES2    0.0000
     97 H48       11.3221    5.0108   18.5944 H         2 RES2    0.0000
     98 H49       12.8419    4.6311   18.5981 H         2 RES2    0.0000
     99 H50       12.0375    4.6297   17.2521 H         2 RES2    0.0000
    100 C40        9.5574    8.6695   12.9807 C.2       2 RES2    0.0000
    101 O8         8.3305    8.5971   12.8240 O.2       2 RES2    0.0000
    102 N4        10.2582    9.7115   12.5729 N.am      2 RES2    0.0000
    103 H51       11.1061    9.7183   12.7147 H         2 RES2    0.0000
    104 C41        9.6602   10.8382   11.9006 C.3       2 RES2    0.0000
    105 H52        8.7690   10.9734   12.2841 H         2 RES2    0.0000
    106 C42       10.4784   12.0851   12.1901 C.3       2 RES2    0.0000
    107 H53       11.3390   12.0059   11.7739 H         2 RES2    0.0000
    108 H54       10.5901   12.1807   13.1380 H         2 RES2    0.0000
    109 H55       10.0230   12.8540   11.8427 H         2 RES2    0.0000
    110 C43        9.4876   10.6033   10.4352 C.ar      2 RES2    0.0000
    111 C44        8.4302   11.1660    9.7477 C.ar      2 RES2    0.0000
    112 H56        7.8031   11.6699   10.2145 H         2 RES2    0.0000
    113 C45        8.2795   10.9993    8.3872 C.ar      2 RES2    0.0000
    114 H57        7.5705   11.3913    7.9313 H         2 RES2    0.0000
    115 C46        9.2101   10.2373    7.7287 C.ar      2 RES2    0.0000
    116 H58        9.1109   10.1075    6.8133 H         2 RES2    0.0000
    117 C47       10.2827    9.6582    8.3619 C.ar      2 RES2    0.0000
    118 H59       10.9070    9.1543    7.8915 H         2 RES2    0.0000
    119 C48       10.4009    9.8494    9.7079 C.ar      2 RES2    0.0000
    120 H60       11.1186    9.4616   10.1566 H         2 RES2    0.0000
    121 C49        5.9524   -0.8631    2.0914 C.ar      3 RES3    0.0000
    122 H61        6.2700   -0.0833    2.4858 H         3 RES3    0.0000
    123 C50        6.7440   -1.8055    1.7657 C.ar      3 RES3    0.0000
    124 H62        7.6570   -1.6935    1.9032 H         3 RES3    0.0000
    125 C51        6.3164   -2.9376    1.2411 C.ar      3 RES3    0.0000
    126 H63        6.9252   -3.6000    1.0059 H         3 RES3    0.0000
    127 C52        5.0531   -3.1288    1.0493 C.ar      3 RES3    0.0000
    128 H64        4.7680   -3.9373    0.6875 H         3 RES3    0.0000
    129 C53        4.1916   -2.2397    1.3388 C.ar      3 RES3    0.0000
    130 H65        3.2853   -2.4105    1.2157 H         3 RES3    0.0000
    131 C54        4.5742   -1.0530    1.8200 C.ar      3 RES3    0.0000
    132 C55        4.1538    0.3319    2.6052 C.3       3 RES3    0.0000
    133 H66        4.4951    0.3360    3.5134 H         3 RES3    0.0000
    134 H67        4.4889    1.1144    2.1384 H         3 RES3    0.0000
    135 N5         2.7315    0.3005    2.5936 N.3       3 RES3    0.0000
    136 O9         2.1751   -0.6747    3.4927 O.3       3 RES3    0.0000
    137 C56        2.0033    0.0000    4.7508 C.3       3 RES3    0.0000
    138 H68        2.8473   -0.0096    5.2465 H         3 RES3    0.0000
    139 C57        0.9425   -0.7334    5.5360 C.3       3 RES3    0.0000
    140 H69        0.1340   -0.7757    5.0222 H         3 RES3    0.0000
    141 H70        0.7747   -0.2677    6.3574 H         3 RES3    0.0000
    142 H71        1.2459   -1.6238    5.7278 H         3 RES3    0.0000
    143 C58        1.6378    1.4449    4.3756 C.3       3 RES3    0.0000
    144 H72        0.6816    1.5883    4.5373 H         3 RES3    0.0000
    145 C59        1.9074    1.5105    2.8689 C.3       3 RES3    0.0000
    146 C60        2.5517    2.8092    2.3519 C.3       3 RES3    0.0000
    147 H73        3.3181    3.0223    2.8874 H         3 RES3    0.0000
    148 H74        1.9142    3.5249    2.4026 H         3 RES3    0.0000
    149 H75        2.8239    2.6891    1.4365 H         3 RES3    0.0000
    150 C61        0.5830    1.2127    2.1095 C.2       3 RES3    0.0000
    151 O10       -0.3896    0.7634    2.5925 O.2       3 RES3    0.0000
    152 O11        0.7156    1.5077    0.8159 O.3       3 RES3    0.0000
    153 C62       -0.3847    1.1171   -0.0724 C.3       3 RES3    0.0000
    154 H76       -1.1985    0.9997    0.4414 H         3 RES3    0.0000
    155 H77       -0.5395    1.8136   -0.7309 H         3 RES3    0.0000
    156 C63       -0.0437   -0.1188   -0.7418 C.3       3 RES3    0.0000
    157 H78        0.7250    0.0191   -1.2990 H         3 RES3    0.0000
    158 H79       -0.7843   -0.4056   -1.2845 H         3 RES3    0.0000
    159 H80        0.1532   -0.7935   -0.0868 H         3 RES3    0.0000
    160 C64        2.4453    2.4009    5.2520 C.2       3 RES3    0.0000
    161 O12        3.6895    2.3859    5.2556 O.2       3 RES3    0.0000
    162 N6         1.7367    3.2094    6.0263 N.am      3 RES3    0.0000
    163 H81        0.8993    3.3227    5.8653 H         3 RES3    0.0000
    164 C65        2.3594    3.9141    7.1494 C.3       3 RES3    0.0000
    165 H82        3.2984    4.0712    6.9146 H         3 RES3    0.0000
    166 C66        1.6980    5.2716    7.3307 C.3       3 RES3    0.0000
    167 H83        0.7609    5.1514    7.5007 H         3 RES3    0.0000
    168 H84        1.8131    5.7933    6.5346 H         3 RES3    0.0000
    169 H85        2.1016    5.7277    8.0724 H         3 RES3    0.0000
    170 C67        2.3359    3.0933    8.3955 C.ar      3 RES3    0.0000
    171 C68        1.3873    2.1933    8.6586 C.ar      3 RES3    0.0000
    172 H86        0.7138    2.0567    8.0326 H         3 RES3    0.0000
    173 C69        1.3668    1.4572    9.8309 C.ar      3 RES3    0.0000
    174 H87        0.6987    0.8249    9.9684 H         3 RES3    0.0000
    175 C70        2.2958    1.6525   10.7500 C.ar      3 RES3    0.0000
    176 H88        2.2840    1.1554   11.5351 H         3 RES3    0.0000
    177 C71        3.2482    2.5634   10.5510 C.ar      3 RES3    0.0000
    178 H89        3.8940    2.7095   11.2059 H         3 RES3    0.0000
    179 C72        3.2773    3.2982    9.3714 C.ar      3 RES3    0.0000
    180 H90        3.9426    3.9332    9.2411 H         3 RES3    0.0000
    181 C73        8.6019    9.3578    3.8065 C.ar      4 RES4    0.0000
    182 H91        7.7780    9.6978    3.5387 H         4 RES4    0.0000
    183 C74        9.7457   10.0666    3.5351 C.ar      4 RES4    0.0000
    184 H92        9.6895   10.8751    3.0756 H         4 RES4    0.0000
    185 C75       10.9831    9.5899    3.9331 C.ar      4 RES4    0.0000
    186 H93       11.7632   10.0570    3.7377 H         4 RES4    0.0000
    187 C76       11.0240    8.4441    4.6025 C.ar      4 RES4    0.0000
    188 H94       11.8413    8.1150    4.8992 H         4 RES4    0.0000
    189 C77        9.8687    7.7381    4.8594 C.ar      4 RES4    0.0000
    190 H95        9.9250    6.9350    5.3261 H         4 RES4    0.0000
    191 C78        8.6533    8.1778    4.4577 C.ar      4 RES4    0.0000
    192 C79        7.3736    7.4390    4.7798 C.3       4 RES4    0.0000
    193 H96        7.0430    7.7353    5.6409 H         4 RES4    0.0000
    194 H97        6.7029    7.6547    4.1140 H         4 RES4    0.0000
    195 N7         7.5679    6.0145    4.8120 N.3       4 RES4    0.0000
    196 O13        7.7215    5.5980    3.4425 O.3       4 RES4    0.0000
    197 C80        7.7225    4.1722    3.4985 C.3       4 RES4    0.0000
    198 H98        8.6173    3.8472    3.7341 H         4 RES4    0.0000
    199 C81        7.3334    3.6614    2.1384 C.3       4 RES4    0.0000
    200 H99        6.4568    3.9824    1.9177 H         4 RES4    0.0000
    201 H100       7.3315    2.7014    2.1457 H         4 RES4    0.0000
    202 H101       7.9644    3.9756    1.4871 H         4 RES4    0.0000
    203 C82        6.7104    3.8130    4.6343 C.3       4 RES4    0.0000
    204 H102       5.8922    3.4593    4.2298 H         4 RES4    0.0000
    205 C83        6.3914    5.1992    5.2910 C.3       4 RES4    0.0000
    206 C84        6.4080    5.1938    6.8219 C.3       4 RES4    0.0000
    207 H103       6.2299    6.0787    7.1461 H         4 RES4    0.0000
    208 H104       7.2693    4.9056    7.1317 H         4 RES4    0.0000
    209 H105       5.7341    4.5915    7.1461 H         4 RES4    0.0000
    210 C85        5.1043    5.8097    4.7834 C.2       4 RES4    0.0000
    211 O14        4.3900    6.5185    5.4365 O.2       4 RES4    0.0000
    212 O15        4.8961    5.5270    3.5054 O.3       4 RES4    0.0000
    213 C86        3.8120    6.2358    2.7644 C.3       4 RES4    0.0000
    214 H106       3.1613    5.5734    2.4858 H         4 RES4    0.0000
    215 H107       3.3658    6.8299    3.3867 H         4 RES4    0.0000
    216 C87        4.1330    6.9050    1.7621 C.3       4 RES4    0.0000
    217 H108       4.7273    7.6110    2.0262 H         4 RES4    0.0000
    218 H109       3.3455    7.2805    1.3641 H         4 RES4    0.0000
    219 H110       4.5735    6.3368    1.1253 H         4 RES4    0.0000
    220 C88        7.2508    2.8024    5.5820 C.2       4 RES4    0.0000
    221 O16        8.4355    2.7874    5.9351 O.2       4 RES4    0.0000
    222 N8         6.3863    1.9229    6.0563 N.am      4 RES4    0.0000
    223 H111       5.5700    1.9775    5.7929 H         4 RES4    0.0000
    224 C89        6.7324    0.8590    7.0068 C.3       4 RES4    0.0000
    225 H112       7.6284    0.5422    6.7662 H         4 RES4    0.0000
    226 C90        6.8209    1.4162    8.4343 C.3       4 RES4    0.0000
    227 H113       7.4200    2.1660    8.4487 H         4 RES4    0.0000
    228 H114       7.1480    0.7334    9.0240 H         4 RES4    0.0000
    229 H115       5.9489    1.6976    8.7237 H         4 RES4    0.0000
    230 C91        5.8184   -0.2854    6.8639 C.ar      4 RES4    0.0000
    231 C92        5.9557   -1.1349    5.8001 C.ar      4 RES4    0.0000
    232 H116       6.6250   -0.9642    5.1778 H         4 RES4    0.0000
    233 C93        5.1413   -2.2370    5.6156 C.ar      4 RES4    0.0000
    234 H117       5.2603   -2.8011    4.8847 H         4 RES4    0.0000
    235 C94        4.1762   -2.4706    6.5093 C.ar      4 RES4    0.0000
    236 H118       3.6450   -3.2258    6.4116 H         4 RES4    0.0000
    237 C95        3.9413   -1.6225    7.5876 C.ar      4 RES4    0.0000
    238 H119       3.2357   -1.7781    8.1737 H         4 RES4    0.0000
    239 C96        4.7749   -0.5504    7.7613 C.ar      4 RES4    0.0000
    240 H120       4.6454    0.0137    8.4885 H         4 RES4    0.0000
@<TRIPOS>BOND
     1    1    2 1
     2    3    1 ar
     3    4    3 1
     4    5    3 ar
     5    6    5 1
     6    7    5 ar
     7    8    7 1
     8    9    7 ar
     9   10    9 1
    10   11    1 ar
    11   12   11 1
    12   13   12 1
    13   14   12 1
    14   15   12 1
    15   16   15 1
    16   17   16 1
    17   18   17 1
    18   19   17 1
    19   20   19 1
    20   21   19 1
    21   22   19 1
    22   23   17 1
    23   24   23 1
    24   25   15 1
    25   26   25 1
    26   27   26 1
    27   28   26 1
    28   29   26 1
    29   30   25 1
    30   31   30 2
    31   32   30 1
    32   33   32 1
    33   34   33 1
    34   35   33 1
    35   36   33 1
    36   37   36 1
    37   38   36 1
    38   39   36 1
    39   40   23 1
    40   41   40 2
    41   42   40 1
    42   43   42 1
    43   44   42 1
    44   45   44 1
    45   46   44 1
    46   47   46 1
    47   48   46 1
    48   49   46 1
    49   50   44 1
    50   51   50 ar
    51   52   51 1
    52   53   51 ar
    53   54   53 1
    54   55   53 ar
    55   56   55 1
    56   57   55 ar
    57   58   57 1
    58   59   50 ar
    59   60   59 1
    60   61   62 1
    61   63   61 ar
    62   64   63 1
    63   65   63 ar
    64   66   65 1
    65   67   65 ar
    66   68   67 1
    67   69   67 ar
    68   70   69 1
    69   71   61 ar
    70   72   71 1
    71   73   72 1
    72   74   72 1
    73   75   72 1
    74   76   75 1
    75   77   76 1
    76   78   77 1
    77   79   77 1
    78   80   79 1
    79   81   79 1
    80   82   79 1
    81   83   77 1
    82   84   83 1
    83   85   75 1
    84   86   85 1
    85   87   86 1
    86   88   86 1
    87   89   86 1
    88   90   85 1
    89   91   90 2
    90   92   90 1
    91   93   92 1
    92   94   93 1
    93   95   93 1
    94   96   93 1
    95   97   96 1
    96   98   96 1
    97   99   96 1
    98  100   83 1
    99  101  100 2
   100  102  100 1
   101  103  102 1
   102  104  102 1
   103  105  104 1
   104  106  104 1
   105  107  106 1
   106  108  106 1
   107  109  106 1
   108  110  104 1
   109  111  110 ar
   110  112  111 1
   111  113  111 ar
   112  114  113 1
   113  115  113 ar
   114  116  115 1
   115  117  115 ar
   116  118  117 1
   117  119  110 ar
   118  120  119 1
   119  121  122 1
   120  123  121 ar
   121  124  123 1
   122  125  123 ar
   123  126  125 1
   124  127  125 ar
   125  128  127 1
   126  129  127 ar
   127  130  129 1
   128  131  121 ar
   129  132  131 1
   130  133  132 1
   131  134  132 1
   132  135  132 1
   133  136  135 1
   134  137  136 1
   135  138  137 1
   136  139  137 1
   137  140  139 1
   138  141  139 1
   139  142  139 1
   140  143  137 1
   141  144  143 1
   142  145  135 1
   143  146  145 1
   144  147  146 1
   145  148  146 1
   146  149  146 1
   147  150  145 1
   148  151  150 2
   149  152  150 1
   150  153  152 1
   151  154  153 1
   152  155  153 1
   153  156  153 1
   154  157  156 1
   155  158  156 1
   156  159  156 1
   157  160  143 1
   158  161  160 2
   159  162  160 1
   160  163  162 1
   161  164  162 1
   162  165  164 1
   163  166  164 1
   164  167  166 1
   165  168  166 1
   166  169  166 1
   167  170  164 1
   168  171  170 ar
   169  172  171 1
   170  173  171 ar
   171  174  173 1
   172  175  173 ar
   173  176  175 1
   174  177  175 ar
   175  178  177 1
   176  179  170 ar
   177  180  179 1
   178  181  182 1
   179  183  181 ar
   180  184  183 1
   181  185  183 ar
   182  186  185 1
   183  187  185 ar
   184  188  187 1
   185  189  187 ar
   186  190  189 1
   187  191  181 ar
   188  192  191 1
   189  193  192 1
   190  194  192 1
   191  195  192 1
   192  196  195 1
   193  197  196 1
   194  198  197 1
   195  199  197 1
   196  200  199 1
   197  201  199 1
   198  202  199 1
   199  203  197 1
   200  204  203 1
   201  205  195 1
   202  206  205 1
   203  207  206 1
   204  208  206 1
   205  209  206 1
   206  210  205 1
   207  211  210 2
   208  212  210 1
   209  213  212 1
   210  214  213 1
   211  215  213 1
   212  216  213 1
   213  217  216 1
   214  218  216 1
   215  219  216 1
   216  220  203 1
   217  221  220 2
   218  222  220 1
   219  223  222 1
   220  224  222 1
   221  225  224 1
   222  226  224 1
   223  227  226 1
   224  228  226 1
   225  229  226 1
   226  230  224 1
   227  231  230 ar
   228  232  231 1
   229  233  231 ar
   230  234  233 1
   231  235  233 ar
   232  236  235 1
   233  237  235 ar
   234  238  237 1
   235  239  230 ar
   236  240  239 1
   237    9   11 ar
   238   23   25 1
   239   57   59 ar
   240   69   71 ar
   241   83   85 1
   242  117  119 ar
   243  129  131 ar
   244  143  145 1
   245  177  179 ar
   246  189  191 ar
   247  203  205 1
   248  237  239 ar
@<TRIPOS>SUBSTRUCTURE
     1 RES1 1
     2 RES2 61
     3 RES3 121
     4 RES4 181

@<TRIPOS>CRYSIN
   9.5710   13.6570   36.1830  90.0000  90.0220  90.0000   4 1

