# MOL2 file generated by ConQuest
# Please check atom types

@<TRIPOS>MOLECULE
VEMTOW
    30    31     1
SMALL
NO_CHARGES
****
Generated from CSD

@<TRIPOS>ATOM
      1 N1        -0.2890    3.5287   -0.2821 N.pl3     1 RES1    0.0000
      2 N2         0.3618    9.9379   -0.5010 N.pl3     1 RES1    0.0000
      3 O1         0.4463    7.0607   -1.0887 O.2       1 RES1    0.0000
      4 O2         0.4167    6.0308    0.9418 O.3       1 RES1    0.0000
      5 O3        -0.5902    2.3386   -0.2182 O.2       1 RES1    0.0000
      6 O4        -1.0631    4.4117   -0.6178 O.2       1 RES1    0.0000
      7 O5        -1.0364    7.5401    0.5723 O.3       1 RES1    0.0000
      8 O6         0.9122   10.6717   -1.3120 O.2       1 RES1    0.0000
      9 O7         0.9207    9.4290    0.4672 O.2       1 RES1    0.0000
     10 C1         0.0000    6.8973    0.0000 C.2       1 RES1    0.0000
     11 C2         1.4151    5.1269    0.5701 C.ar      1 RES1    0.0000
     12 C3         2.7205    5.4220    0.8830 C.ar      1 RES1    0.0000
     13 C4         3.7231    4.5039    0.6017 C.ar      1 RES1    0.0000
     14 C5         3.4119    3.2808    0.0338 C.ar      1 RES1    0.0000
     15 C6         2.0951    2.9441   -0.2263 C.ar      1 RES1    0.0000
     16 C7         1.1012    3.8819    0.0367 C.ar      1 RES1    0.0000
     17 C8        -1.6793    8.5405   -0.1359 C.ar      1 RES1    0.0000
     18 C9        -3.0582    8.4088   -0.2432 C.ar      1 RES1    0.0000
     19 C10       -3.8086    9.3818   -0.8786 C.ar      1 RES1    0.0000
     20 C11       -3.1880   10.4798   -1.4355 C.ar      1 RES1    0.0000
     21 C12       -1.8072   10.6323   -1.3524 C.ar      1 RES1    0.0000
     22 C13       -1.0634    9.6692   -0.6744 C.ar      1 RES1    0.0000
     23 H1         2.9363    6.2589    1.3010 H         1 RES1    0.0000
     24 H2         4.6387    4.7265    0.7919 H         1 RES1    0.0000
     25 H3         4.1167    2.6622   -0.1778 H         1 RES1    0.0000
     26 H4         1.8710    2.0786   -0.5759 H         1 RES1    0.0000
     27 H5        -3.4938    7.6399    0.1344 H         1 RES1    0.0000
     28 H6        -4.7637    9.2842   -0.9425 H         1 RES1    0.0000
     29 H7        -3.7134   11.1511   -1.8777 H         1 RES1    0.0000
     30 H8        -1.3706   11.3869   -1.7572 H         1 RES1    0.0000
@<TRIPOS>BOND
     1    1    5 2
     2    2    8 2
     3    3   10 2
     4    4   10 1
     5    6    1 2
     6    7   10 1
     7    9    2 2
     8   11    4 1
     9   12   11 ar
    10   13   12 ar
    11   14   13 ar
    12   15   14 ar
    13   16    1 1
    14   17    7 1
    15   18   17 ar
    16   19   18 ar
    17   20   19 ar
    18   21   20 ar
    19   22    2 1
    20   23   12 1
    21   24   13 1
    22   25   14 1
    23   26   15 1
    24   27   18 1
    25   28   19 1
    26   29   20 1
    27   30   21 1
    28   11   16 ar
    29   15   16 ar
    30   17   22 ar
    31   21   22 ar
@<TRIPOS>SUBSTRUCTURE
     1 RES1 1

@<TRIPOS>CRYSIN
   7.8870   10.9690    8.1130  90.0000 115.1100  90.0000   7 1

