# MOL2 file generated by ConQuest
# Please check atom types

@<TRIPOS>MOLECULE
VENBAU
    22    23     1
SMALL
NO_CHARGES
****
Generated from CSD

@<TRIPOS>ATOM
      1 C1         3.8732    1.4049    5.1423 C.2       1 RES1    0.0000
      2 C2         5.0465    2.0419    5.0088 C.2       1 RES1    0.0000
      3 H1         5.3541    2.5262    4.2767 H         1 RES1    0.0000
      4 C3         5.7081    1.8086    6.2368 C.2       1 RES1    0.0000
      5 C4         2.7041    1.2204    4.2370 C.3       1 RES1    0.0000
      6 H2         2.6781    0.3099    3.9034 H         1 RES1    0.0000
      7 H3         1.8784    1.3973    4.7144 H         1 RES1    0.0000
      8 N1         4.9852    1.0834    7.0526 N.2       1 RES1    0.0000
      9 O1         3.7951    0.8171    6.3607 O.3       1 RES1    0.0000
     10 O2         2.8549    2.1306    3.1653 O.3       1 RES1    0.0000
     11 H4         2.6728    1.7545    2.4597 H         1 RES1    0.0000
     12 C1B        8.8696    2.6603    7.7637 C.2       1 RES1    0.0000
     13 C2B        7.6963    2.0233    7.8972 C.2       1 RES1    0.0000
     14 H1B        7.3888    1.5390    8.6293 H         1 RES1    0.0000
     15 C3B        7.0348    2.2566    6.6692 C.2       1 RES1    0.0000
     16 C4B       10.0387    2.8448    8.6689 C.3       1 RES1    0.0000
     17 H2B       10.0648    3.7553    9.0026 H         1 RES1    0.0000
     18 H3B       10.8644    2.6679    8.1916 H         1 RES1    0.0000
     19 N1B        7.7577    2.9818    5.8534 N.2       1 RES1    0.0000
     20 O1B        8.9478    3.2481    6.5453 O.3       1 RES1    0.0000
     21 O2B        9.8880    1.9346    9.7407 O.3       1 RES1    0.0000
     22 H4B       10.0700    2.3107   10.4463 H         1 RES1    0.0000
@<TRIPOS>BOND
     1    1    2 2
     2    2    3 1
     3    4    2 1
     4    5    1 1
     5    6    5 1
     6    7    5 1
     7    8    4 2
     8    9    1 1
     9   10    5 1
    10   11   10 1
    11   12   13 2
    12   13   14 1
    13   15    4 1
    14   16   12 1
    15   17   16 1
    16   18   16 1
    17   19   15 2
    18   20   12 1
    19   21   16 1
    20   22   21 1
    21    8    9 1
    22   13   15 1
    23   19   20 1
@<TRIPOS>SUBSTRUCTURE
     1 RES1 1

@<TRIPOS>CRYSIN
   7.7824    4.0652   13.2109  90.0000 102.3340  90.0000 231 1

