# MOL2 file generated by ConQuest
# Please check atom types

@<TRIPOS>MOLECULE
VENBEY
    30    31     1
SMALL
NO_CHARGES
****
Generated from CSD

@<TRIPOS>ATOM
      1 O1         1.9973    5.7822    3.6363 O.3       1 RES1    0.0000
      2 O2         0.7930    4.1959    1.5481 O.3       1 RES1    0.0000
      3 H1         0.5446    4.9945    1.3992 H         1 RES1    0.0000
      4 O3         3.3627    1.7634    5.0348 O.3       1 RES1    0.0000
      5 H2         3.6989    1.7865    5.7507 H         1 RES1    0.0000
      6 N1         2.4356    6.0218    4.9494 N.2       1 RES1    0.0000
      7 C1         2.5068    4.5919    3.2163 C.2       1 RES1    0.0000
      8 C2         3.2636    4.0303    4.1938 C.2       1 RES1    0.0000
      9 C3         3.1852    4.9840    5.2582 C.2       1 RES1    0.0000
     10 C4         2.1920    4.1996    1.8082 C.3       1 RES1    0.0000
     11 H3         2.6528    4.8169    1.2027 H         1 RES1    0.0000
     12 H4         2.5343    3.3101    1.6466 H         1 RES1    0.0000
     13 C5         3.9803    2.7184    4.1590 C.3       1 RES1    0.0000
     14 H5         4.9247    2.8429    4.4000 H         1 RES1    0.0000
     15 H6         3.9295    2.3430    3.2672 H         1 RES1    0.0000
     16 O1B        5.0059    4.1373    8.2013 O.3       1 RES1    0.0000
     17 O2B        6.2102    5.7236   10.2895 O.3       1 RES1    0.0000
     18 H1B        6.4586    4.9250   10.4384 H         1 RES1    0.0000
     19 O3B        3.6405    8.1561    6.8028 O.3       1 RES1    0.0000
     20 H2B        3.3042    8.1330    6.0869 H         1 RES1    0.0000
     21 N1B        4.5675    3.8977    6.8882 N.2       1 RES1    0.0000
     22 C1B        4.4964    5.3276    8.6213 C.2       1 RES1    0.0000
     23 C2B        3.7396    5.8892    7.6438 C.2       1 RES1    0.0000
     24 C3B        3.8179    4.9355    6.5795 C.2       1 RES1    0.0000
     25 C4B        4.8112    5.7199   10.0294 C.3       1 RES1    0.0000
     26 H3B        4.3503    5.1026   10.6349 H         1 RES1    0.0000
     27 H4B        4.4689    6.6094   10.1910 H         1 RES1    0.0000
     28 C5B        3.0228    7.2011    7.6786 C.3       1 RES1    0.0000
     29 H5B        2.0785    7.0766    7.4376 H         1 RES1    0.0000
     30 H6B        3.0736    7.5765    8.5704 H         1 RES1    0.0000
@<TRIPOS>BOND
     1    1    6 1
     2    2    3 1
     3    4    5 1
     4    6    9 2
     5    7    1 1
     6    8    7 2
     7    9    8 1
     8   10    2 1
     9   11   10 1
    10   12   10 1
    11   13    4 1
    12   14   13 1
    13   15   13 1
    14   16   21 1
    15   17   18 1
    16   19   20 1
    17   21   24 2
    18   22   16 1
    19   23   22 2
    20   24    9 1
    21   25   17 1
    22   26   25 1
    23   27   25 1
    24   28   19 1
    25   29   28 1
    26   30   28 1
    27    7   10 1
    28    8   13 1
    29   22   25 1
    30   23   24 1
    31   23   28 1
@<TRIPOS>SUBSTRUCTURE
     1 RES1 1

@<TRIPOS>CRYSIN
   4.5379    9.9195   12.0177  90.0000  99.9312  90.0000  14 1

