# MOL2 file generated by ConQuest
# Please check atom types

@<TRIPOS>MOLECULE
VENCEZ
    16    16     1
SMALL
NO_CHARGES
****
Generated from CSD

@<TRIPOS>ATOM
      1 O1         0.9166    2.5901    5.9961 O.2       1 RES1    0.0000
      2 O2         1.2786    5.7266    9.9229 O.2       1 RES1    0.0000
      3 O3         0.1851    5.2806   11.7361 O.2       1 RES1    0.0000
      4 N1         0.5644    4.9987   10.6037 N.pl3     1 RES1    0.0000
      5 C1         0.1493    3.7092   10.0301 C.ar      1 RES1    0.0000
      6 C2        -0.4584    2.7773   10.8680 C.ar      1 RES1    0.0000
      7 H1        -0.6140    2.9777   11.7835 H         1 RES1    0.0000
      8 C3        -0.8326    1.5472   10.3373 C.ar      1 RES1    0.0000
      9 H2        -1.2440    0.8941   10.8910 H         1 RES1    0.0000
     10 C4        -0.6006    1.2769    8.9894 C.ar      1 RES1    0.0000
     11 H3        -0.8630    0.4403    8.6235 H         1 RES1    0.0000
     12 C5         0.0150    2.2298    8.1736 C.ar      1 RES1    0.0000
     13 C6         0.4018    3.4710    8.6907 C.ar      1 RES1    0.0000
     14 H4         0.8213    4.1247    8.1437 H         1 RES1    0.0000
     15 C7         0.2851    1.8866    6.7598 C.2       1 RES1    0.0000
     16 H5        -0.0565    1.0645    6.4283 H         1 RES1    0.0000
@<TRIPOS>BOND
     1    1   15 2
     2    2    4 2
     3    3    4 2
     4    4    5 1
     5    5    6 ar
     6    6    7 1
     7    8    6 ar
     8    9    8 1
     9   10    8 ar
    10   11   10 1
    11   12   10 ar
    12   13    5 ar
    13   14   13 1
    14   15   12 1
    15   16   15 1
    16   12   13 ar
@<TRIPOS>SUBSTRUCTURE
     1 RES1 1

@<TRIPOS>CRYSIN
   3.7363    7.0071   12.5877  90.0000  94.8144  90.0000   4 1

