# MOL2 file generated by ConQuest
# Please check atom types

@<TRIPOS>MOLECULE
VENGUT
    26    29     1
SMALL
NO_CHARGES
****
Generated from CSD

@<TRIPOS>ATOM
      1 O1        10.9344    2.0355    8.2045 O.2       1 RES1    0.0000
      2 O2         9.3724    0.5404    8.2699 O.2       1 RES1    0.0000
      3 O3         7.2301    4.4789   12.6009 O.3       1 RES1    0.0000
      4 O4         7.8426    7.1317   14.1383 O.3       1 RES1    0.0000
      5 N1         9.8885    1.5874    8.6576 N.pl3     1 RES1    0.0000
      6 N2         9.8601    5.3224   11.7689 N.pl3     1 RES1    0.0000
      7 N3        10.9535    5.8063   11.1073 N.2       1 RES1    0.0000
      8 N4        11.3688    6.8227   11.7809 N.2       1 RES1    0.0000
      9 N5        10.5928    7.0384   12.8772 N.2       1 RES1    0.0000
     10 C1         9.2049    2.3365    9.7193 C.ar      1 RES1    0.0000
     11 C2         9.8453    3.4439   10.2405 C.ar      1 RES1    0.0000
     12 H1        10.7008    3.7069    9.9202 H         1 RES1    0.0000
     13 C3         9.2073    4.1641   11.2436 C.ar      1 RES1    0.0000
     14 C4         9.6715    6.1007   12.8636 C.2       1 RES1    0.0000
     15 C5         8.6255    5.9411   13.9077 C.3       1 RES1    0.0000
     16 C6         7.8654    4.6610   13.8881 C.3       1 RES1    0.0000
     17 H2         8.4807    3.9057   14.0656 H         1 RES1    0.0000
     18 H3         7.1775    4.6718   14.6005 H         1 RES1    0.0000
     19 C7         7.9399    3.7688   11.6873 C.ar      1 RES1    0.0000
     20 C8         7.3355    2.6329   11.1485 C.ar      1 RES1    0.0000
     21 H4         6.4832    2.3580   11.4668 H         1 RES1    0.0000
     22 C9         7.9633    1.9020   10.1563 C.ar      1 RES1    0.0000
     23 H5         7.5574    1.1279    9.7861 H         1 RES1    0.0000
     24 C10        8.7582    6.6845   15.1630 C.3       1 RES1    0.0000
     25 H6         8.3738    6.2819   15.9811 H         1 RES1    0.0000
     26 H7         9.5869    7.2093   15.3032 H         1 RES1    0.0000
@<TRIPOS>BOND
     1    1    5 2
     2    2    5 2
     3    3   16 1
     4    4   15 1
     5    5   10 1
     6    6    7 1
     7    7    8 2
     8    8    9 1
     9    9   14 2
    10   10   11 ar
    11   11   12 1
    12   13    6 1
    13   14    6 1
    14   15   14 1
    15   16   15 1
    16   17   16 1
    17   18   16 1
    18   19    3 1
    19   20   19 ar
    20   21   20 1
    21   22   10 ar
    22   23   22 1
    23   24    4 1
    24   25   24 1
    25   26   24 1
    26   11   13 ar
    27   13   19 ar
    28   15   24 1
    29   20   22 ar
@<TRIPOS>SUBSTRUCTURE
     1 RES1 1

@<TRIPOS>CRYSIN
  21.3599    5.6793   18.7387  90.0000 109.5830  90.0000  15 1

