# MOL2 file generated by ConQuest
# Please check atom types

@<TRIPOS>MOLECULE
VENKOP
    35    36     1
SMALL
NO_CHARGES
****
Generated from CSD

@<TRIPOS>ATOM
      1 O1         2.1769   -1.2184   -6.0119 O.2       1 RES1    0.0000
      2 O2         0.7299   -1.9773   -4.6605 O.2       1 RES1    0.0000
      3 O3        -4.5721   -0.7510    3.9532 O.3       1 RES1    0.0000
      4 N1        -0.1263   -2.3449    1.0157 N.2       1 RES1    0.0000
      5 N2         1.8823   -1.8154   -5.0064 N.pl3     1 RES1    0.0000
      6 C1        -2.4132   -1.3826    1.0507 C.ar      1 RES1    0.0000
      7 H1        -2.4134   -1.2907    0.1257 H         1 RES1    0.0000
      8 C2        -3.5273   -0.9977    1.7662 C.ar      1 RES1    0.0000
      9 H2        -4.2720   -0.6614    1.3222 H         1 RES1    0.0000
     10 C3        -3.5358   -1.1124    3.1430 C.ar      1 RES1    0.0000
     11 C4        -2.4347   -1.6512    3.7843 C.ar      1 RES1    0.0000
     12 H3        -2.4348   -1.7400    4.7110 H         1 RES1    0.0000
     13 C5        -1.3421   -2.0582    3.0603 C.ar      1 RES1    0.0000
     14 H4        -0.6211   -2.4470    3.5000 H         1 RES1    0.0000
     15 C6        -1.2971   -1.9003    1.6751 C.ar      1 RES1    0.0000
     16 C7         0.1835   -1.9443   -0.1426 C.2       1 RES1    0.0000
     17 H5        -0.3537   -1.3048   -0.5511 H         1 RES1    0.0000
     18 C8         1.3295   -2.4352   -0.8532 C.2       1 RES1    0.0000
     19 H6         1.8530   -3.0802   -0.4351 H         1 RES1    0.0000
     20 C9         1.6904   -2.0456   -2.0519 C.2       1 RES1    0.0000
     21 H7         1.1739   -1.3834   -2.4510 H         1 RES1    0.0000
     22 C10        2.8308   -2.5452   -2.8215 C.ar      1 RES1    0.0000
     23 C11        3.9042   -3.1603   -2.1752 C.ar      1 RES1    0.0000
     24 H8         3.8662   -3.2664   -1.2521 H         1 RES1    0.0000
     25 C12        5.0128   -3.6175   -2.8479 C.ar      1 RES1    0.0000
     26 H9         5.6963   -4.0464   -2.3857 H         1 RES1    0.0000
     27 C13        5.1053   -3.4384   -4.2126 C.ar      1 RES1    0.0000
     28 H10        5.8604   -3.7298   -4.6699 H         1 RES1    0.0000
     29 C14        4.0852   -2.8272   -4.8904 C.ar      1 RES1    0.0000
     30 H11        4.1446   -2.6976   -5.8084 H         1 RES1    0.0000
     31 C15        2.9656   -2.4070   -4.2020 C.ar      1 RES1    0.0000
     32 C16       -5.7029   -0.1430    3.3567 C.3       1 RES1    0.0000
     33 H12       -6.3462    0.0707    4.0366 H         1 RES1    0.0000
     34 H13       -5.4350    0.6607    2.9054 H         1 RES1    0.0000
     35 H14       -6.0945   -0.7502    2.7241 H         1 RES1    0.0000
@<TRIPOS>BOND
     1    1    5 2
     2    2    5 2
     3    3   10 1
     4    4   15 1
     5    5   31 1
     6    6    7 1
     7    8    6 ar
     8    9    8 1
     9   10    8 ar
    10   11   10 ar
    11   12   11 1
    12   13   11 ar
    13   14   13 1
    14   15    6 ar
    15   16    4 2
    16   17   16 1
    17   18   16 1
    18   19   18 1
    19   20   18 2
    20   21   20 1
    21   22   20 1
    22   23   22 ar
    23   24   23 1
    24   25   23 ar
    25   26   25 1
    26   27   25 ar
    27   28   27 1
    28   29   27 ar
    29   30   29 1
    30   31   22 ar
    31   32    3 1
    32   33   32 1
    33   34   32 1
    34   35   32 1
    35   13   15 ar
    36   29   31 ar
@<TRIPOS>SUBSTRUCTURE
     1 RES1 1

@<TRIPOS>CRYSIN
   7.4308    7.8556   24.5690  90.0000 100.3220  90.0000  14 1

