# MOL2 file generated by ConQuest
# Please check atom types

@<TRIPOS>MOLECULE
VENLEG
    67    69     1
SMALL
NO_CHARGES
****
Generated from CSD

@<TRIPOS>ATOM
      1 N1        20.7650    0.0000    2.7439 N.3       1 RES1    0.0000
      2 C1        19.4702    0.5562    2.3592 C.3       1 RES1    0.0000
      3 H1        19.2035    0.1906    1.4781 H         1 RES1    0.0000
      4 H2        19.5482    1.5393    2.2714 H         1 RES1    0.0000
      5 C2        18.4125    0.2277    3.3753 C.3       1 RES1    0.0000
      6 H3        18.3874   -0.7517    3.5185 H         1 RES1    0.0000
      7 H4        18.6397    0.6564    4.2376 H         1 RES1    0.0000
      8 N2        17.0943    0.6904    2.9346 N.2       1 RES1    0.0000
      9 C3        16.1357   -0.1190    3.0802 C.2       1 RES1    0.0000
     10 H5        16.3057   -1.0088    3.3669 H         1 RES1    0.0000
     11 C4        14.7413    0.3183    2.8039 C.ar      1 RES1    0.0000
     12 C5        14.4778    1.6886    2.7401 C.ar      1 RES1    0.0000
     13 H6        15.2031    2.3000    2.7815 H         1 RES1    0.0000
     14 C6        13.1950    2.1797    2.6191 C.ar      1 RES1    0.0000
     15 H7        13.0518    3.1165    2.5610 H         1 RES1    0.0000
     16 C7        12.1138    1.3119    2.5815 C.ar      1 RES1    0.0000
     17 H8        11.2297    1.6544    2.5150 H         1 RES1    0.0000
     18 C8        12.3272   -0.0530    2.6413 C.ar      1 RES1    0.0000
     19 H9        11.5941   -0.6564    2.6247 H         1 RES1    0.0000
     20 C9        13.6305   -0.5289    2.7254 C.ar      1 RES1    0.0000
     21 N3        13.7775   -1.9938    2.6687 N.pl3     1 RES1    0.0000
     22 O1        14.8514   -2.4498    2.2881 O.2       1 RES1    0.0000
     23 O2        12.8137   -2.6859    2.9666 O.2       1 RES1    0.0000
     24 C1A       20.9307   -1.3994    2.3592 C.3       1 RES1    0.0000
     25 C1B       21.8941    0.8432    2.3592 C.3       1 RES1    0.0000
     26 H1A       21.3807   -1.4476    1.4781 H         1 RES1    0.0000
     27 H1B       21.7108    1.2570    1.4781 H         1 RES1    0.0000
     28 H2A       20.0403   -1.8235    2.2714 H         1 RES1    0.0000
     29 H2B       22.7065    0.2841    2.2714 H         1 RES1    0.0000
     30 C2A       21.7441   -2.1511    3.3753 C.3       1 RES1    0.0000
     31 C2B       22.1384    1.9235    3.3753 C.3       1 RES1    0.0000
     32 H3A       22.6048   -1.6832    3.5185 H         1 RES1    0.0000
     33 H3B       21.3028    2.4349    3.5185 H         1 RES1    0.0000
     34 H4A       21.2592   -2.1688    4.2376 H         1 RES1    0.0000
     35 H4B       22.3961    1.5124    4.2376 H         1 RES1    0.0000
     36 N2A       22.0025   -3.5241    2.9346 N.2       1 RES1    0.0000
     37 N2B       23.1982    2.8338    2.9346 N.2       1 RES1    0.0000
     38 C3A       23.1828   -3.9496    3.0802 C.2       1 RES1    0.0000
     39 C3B       22.9766    4.0687    3.0802 C.2       1 RES1    0.0000
     40 H5A       23.8683   -3.3574    3.3669 H         1 RES1    0.0000
     41 H5B       22.1210    4.3663    3.3669 H         1 RES1    0.0000
     42 C4A       23.5012   -5.3758    2.8039 C.ar      1 RES1    0.0000
     43 C4B       24.0525    5.0575    2.8039 C.ar      1 RES1    0.0000
     44 C5A       22.4462   -6.2892    2.7401 C.ar      1 RES1    0.0000
     45 C5B       25.3710    4.6006    2.7401 C.ar      1 RES1    0.0000
     46 H6A       21.5541   -5.9668    2.7815 H         1 RES1    0.0000
     47 H6B       25.5378    3.6667    2.7815 H         1 RES1    0.0000
     48 C6A       22.6623   -7.6457    2.6191 C.ar      1 RES1    0.0000
     49 C6B       26.4377    5.4659    2.6191 C.ar      1 RES1    0.0000
     50 H7A       21.9226   -8.2380    2.5610 H         1 RES1    0.0000
     51 H7B       27.3205    5.1216    2.5610 H         1 RES1    0.0000
     52 C7A       23.9545   -8.1481    2.5815 C.ar      1 RES1    0.0000
     53 C7B       26.2267    6.8362    2.5815 C.ar      1 RES1    0.0000
     54 H8A       24.0999   -9.0850    2.5150 H         1 RES1    0.0000
     55 H8B       26.9654    7.4306    2.5150 H         1 RES1    0.0000
     56 C8A       25.0298   -7.2808    2.6413 C.ar      1 RES1    0.0000
     57 C8B       24.9379    7.3338    2.6413 C.ar      1 RES1    0.0000
     58 H9A       25.9189   -7.6140    2.6247 H         1 RES1    0.0000
     59 H9B       24.7820    8.2704    2.6247 H         1 RES1    0.0000
     60 C9A       24.7903   -5.9143    2.7254 C.ar      1 RES1    0.0000
     61 C9B       23.8742    6.4431    2.7254 C.ar      1 RES1    0.0000
     62 N3A       25.9854   -5.0545    2.6687 N.pl3     1 RES1    0.0000
     63 N3B       22.5321    7.0483    2.6687 N.pl3     1 RES1    0.0000
     64 O1A       25.8434   -3.8964    2.2881 O.2       1 RES1    0.0000
     65 O1B       21.6002    6.3462    2.2881 O.2       1 RES1    0.0000
     66 O2A       27.0668   -5.5431    2.9666 O.2       1 RES1    0.0000
     67 O2B       22.4146    8.2290    2.9666 O.2       1 RES1    0.0000
@<TRIPOS>BOND
     1    1    2 1
     2    2    3 1
     3    4    2 1
     4    5    2 1
     5    6    5 1
     6    7    5 1
     7    8    5 1
     8    9    8 2
     9   10    9 1
    10   11    9 1
    11   12   11 ar
    12   13   12 1
    13   14   12 ar
    14   15   14 1
    15   16   14 ar
    16   17   16 1
    17   18   16 ar
    18   19   18 1
    19   20   11 ar
    20   21   20 1
    21   22   21 2
    22   23   21 2
    23   24    1 1
    24   25    1 1
    25   26   24 1
    26   27   25 1
    27   28   24 1
    28   29   25 1
    29   30   24 1
    30   31   25 1
    31   32   30 1
    32   33   31 1
    33   34   30 1
    34   35   31 1
    35   36   30 1
    36   37   31 1
    37   38   36 2
    38   39   37 2
    39   40   38 1
    40   41   39 1
    41   42   38 1
    42   43   39 1
    43   44   42 ar
    44   45   43 ar
    45   46   44 1
    46   47   45 1
    47   48   44 ar
    48   49   45 ar
    49   50   48 1
    50   51   49 1
    51   52   48 ar
    52   53   49 ar
    53   54   52 1
    54   55   53 1
    55   56   52 ar
    56   57   53 ar
    57   58   56 1
    58   59   57 1
    59   60   42 ar
    60   61   43 ar
    61   62   60 1
    62   63   61 1
    63   64   62 2
    64   65   63 2
    65   66   62 2
    66   67   63 2
    67   18   20 ar
    68   56   60 ar
    69   57   61 ar
@<TRIPOS>SUBSTRUCTURE
     1 RES1 1

@<TRIPOS>CRYSIN
  20.7650   20.7650   10.4530  90.0000  90.0000 120.0000 233 1

