# MOL2 file generated by ConQuest
# Please check atom types

@<TRIPOS>MOLECULE
VENROW
    29    28     1
SMALL
NO_CHARGES
****
Generated from CSD

@<TRIPOS>ATOM
      1 C1         3.0720    4.6592    4.8961 C.3       1 RES1    0.0000
      2 H1         3.2143    5.6041    4.6798 H         1 RES1    0.0000
      3 H2         2.5388    4.5888    5.7153 H         1 RES1    0.0000
      4 H3         2.5967    4.2243    4.1580 H         1 RES1    0.0000
      5 C2         4.4054    3.9839    5.1022 C.2       1 RES1    0.0000
      6 O1         5.4628    4.5611    4.9046 O.2       1 RES1    0.0000
      7 C3         4.3224    2.5881    5.5516 C.2       1 RES1    0.0000
      8 H4         3.4652    2.2146    5.7182 H         1 RES1    0.0000
      9 C4         5.4083    1.8157    5.7365 C.2       1 RES1    0.0000
     10 C5         6.8226    2.2968    5.4661 C.2       1 RES1    0.0000
     11 O2         7.5642    2.6498    6.3482 O.2       1 RES1    0.0000
     12 O3         7.1212    2.2127    4.1767 O.3       1 RES1    0.0000
     13 C6         8.4385    2.7248    3.7985 C.3       1 RES1    0.0000
     14 H5         9.1147    2.4457    4.4657 H         1 RES1    0.0000
     15 H6         8.4216    3.7133    3.7685 H         1 RES1    0.0000
     16 C7         8.7903    2.1801    2.4583 C.3       1 RES1    0.0000
     17 H7         8.8462    1.2025    2.5072 H         1 RES1    0.0000
     18 H8         9.6551    2.5433    2.1747 H         1 RES1    0.0000
     19 H9         8.1006    2.4359    1.8108 H         1 RES1    0.0000
     20 N1         5.3767    0.5640    6.3034 N.3       1 RES1    0.0000
     21 O4         6.4685   -0.2376    5.8491 O.3       1 RES1    0.0000
     22 C8         7.1254   -0.8040    6.9970 C.3       1 RES1    0.0000
     23 H10        7.4181   -0.0846    7.5948 H         1 RES1    0.0000
     24 H11        7.9041   -1.3229    6.7055 H         1 RES1    0.0000
     25 H12        6.5022   -1.3913    7.4742 H         1 RES1    0.0000
     26 C9         4.1240   -0.1884    6.3335 C.3       1 RES1    0.0000
     27 H13        3.4757    0.2783    6.9013 H         1 RES1    0.0000
     28 H14        4.2898   -1.0837    6.6960 H         1 RES1    0.0000
     29 H15        3.7669   -0.2652    5.4244 H         1 RES1    0.0000
@<TRIPOS>BOND
     1    1    2 1
     2    3    1 1
     3    4    1 1
     4    5    1 1
     5    6    5 2
     6    7    5 1
     7    8    7 1
     8    9    7 2
     9   10    9 1
    10   11   10 2
    11   12   10 1
    12   13   12 1
    13   14   13 1
    14   15   13 1
    15   16   13 1
    16   17   16 1
    17   18   16 1
    18   19   16 1
    19   20    9 1
    20   21   20 1
    21   22   21 1
    22   23   22 1
    23   24   22 1
    24   25   22 1
    25   26   20 1
    26   27   26 1
    27   28   26 1
    28   29   26 1
@<TRIPOS>SUBSTRUCTURE
     1 RES1 1

@<TRIPOS>CRYSIN
  17.5451   16.2722    7.3076  90.0000  90.0000  90.0000  41 1

