# MOL2 file generated by ConQuest
# Please check atom types

@<TRIPOS>MOLECULE
VENXUK
    18    19     1
SMALL
NO_CHARGES
****
Generated from CSD

@<TRIPOS>ATOM
      1 C1         0.9901    7.8517    1.1980 C.2       1 RES1    0.0000
      2 C2         1.6965    7.1279    2.2765 C.ar      1 RES1    0.0000
      3 N1         0.8469    5.6474    0.7405 N.am      1 RES1    0.0000
      4 H1         0.6817    4.8927    0.3620 H         1 RES1    0.0000
      5 N2         0.7505    9.0986    0.9793 N.2       1 RES1    0.0000
      6 O1        -0.2209    7.0414   -0.7598 O.2       1 RES1    0.0000
      7 C3         1.5581    5.7833    1.9320 C.ar      1 RES1    0.0000
      8 O2         1.2126    9.9439    1.9366 O.3       1 RES1    0.0000
      9 H2         1.8650   10.3495    1.6509 H         1 RES1    0.0000
     10 C4         2.3038    7.5151    3.4368 C.ar      1 RES1    0.0000
     11 H3         2.3856    8.4139    3.6647 H         1 RES1    0.0000
     12 C5         2.6311    5.1624    3.9247 C.ar      1 RES1    0.0000
     13 H4         2.9514    4.5076    4.5025 H         1 RES1    0.0000
     14 C6         2.0088    4.7804    2.7588 C.ar      1 RES1    0.0000
     15 H5         1.8987    3.8837    2.5393 H         1 RES1    0.0000
     16 C7         0.4504    6.8376    0.2526 C.2       1 RES1    0.0000
     17 C8         2.7960    6.5112    4.2646 C.ar      1 RES1    0.0000
     18 H6         3.2366    6.7377    5.0510 H         1 RES1    0.0000
@<TRIPOS>BOND
     1    1    2 1
     2    2    7 ar
     3    3    4 1
     4    5    1 2
     5    6   16 2
     6    7    3 1
     7    8    5 1
     8    9    8 1
     9   10    2 ar
    10   11   10 1
    11   12   13 1
    12   14    7 ar
    13   15   14 1
    14   16    1 1
    15   17   10 ar
    16   18   17 1
    17    3   16 1
    18   12   14 ar
    19   12   17 ar
@<TRIPOS>SUBSTRUCTURE
     1 RES1 1

@<TRIPOS>CRYSIN
   3.9580   10.2960    9.2120  90.0000  94.2240  90.0000   4 1

