# MOL2 file generated by ConQuest
# Please check atom types

@<TRIPOS>MOLECULE
VENXOE
    60    62     2
SMALL
NO_CHARGES
****
Generated from CSD

@<TRIPOS>ATOM
      1 N1         3.3900    5.6071    4.8373 N.2       1 RES1    0.0000
      2 O1         3.2368    4.7544    5.9336 O.3       1 RES1    0.0000
      3 H1         2.6852    5.0711    6.4509 H         1 RES1    0.0000
      4 C1         4.2190    5.1579    3.9555 C.2       1 RES1    0.0000
      5 C2         4.8793    3.8537    4.0502 C.2       1 RES1    0.0000
      6 H2         4.5056    3.2184    4.6171 H         1 RES1    0.0000
      7 C3         4.4283    6.0466    2.7855 C.ar      1 RES1    0.0000
      8 C4         6.6620    2.2283    3.4123 C.ar      1 RES1    0.0000
      9 C5         4.6377    7.4001    2.9417 C.ar      1 RES1    0.0000
     10 H3         4.6775    7.7651    3.7957 H         1 RES1    0.0000
     11 C6         5.9726    3.5178    3.3832 C.2       1 RES1    0.0000
     12 H4         6.3429    4.1731    2.8369 H         1 RES1    0.0000
     13 C7         7.8944    2.0990    2.7993 C.ar      1 RES1    0.0000
     14 H5         8.2725    2.8312    2.3685 H         1 RES1    0.0000
     15 C8         6.1332    1.1101    4.0327 C.ar      1 RES1    0.0000
     16 H6         5.3080    1.1713    4.4575 H         1 RES1    0.0000
     17 C9         4.7887    8.2206    1.8347 C.ar      1 RES1    0.0000
     18 H7         4.9146    9.1356    1.9456 H         1 RES1    0.0000
     19 C10        4.3982    5.5303    1.5017 C.ar      1 RES1    0.0000
     20 H8         4.2590    4.6197    1.3736 H         1 RES1    0.0000
     21 C11        8.5729    0.8925    2.8183 C.ar      1 RES1    0.0000
     22 H9         9.4100    0.8259    2.4198 H         1 RES1    0.0000
     23 C12        6.8063   -0.0906    4.0323 C.ar      1 RES1    0.0000
     24 H10        6.4316   -0.8317    4.4516 H         1 RES1    0.0000
     25 C13        8.0184   -0.1981    3.4201 C.ar      1 RES1    0.0000
     26 H11        8.4656   -1.0138    3.4124 H         1 RES1    0.0000
     27 C14        4.7520    7.6770    0.5755 C.ar      1 RES1    0.0000
     28 H12        4.8504    8.2234   -0.1701 H         1 RES1    0.0000
     29 C15        4.5720    6.3477    0.4210 C.ar      1 RES1    0.0000
     30 H13        4.5672    5.9834   -0.4346 H         1 RES1    0.0000
     31 N2         8.6932    5.6922    4.8659 N.2       2 RES2    0.0000
     32 O2         8.5507    4.8100    5.9434 O.3       2 RES2    0.0000
     33 H14        7.9619    5.0837    6.4450 H         2 RES2    0.0000
     34 C16        9.6396    5.3609    4.0477 C.2       2 RES2    0.0000
     35 C17       10.4797    4.1829    4.2474 C.2       2 RES2    0.0000
     36 H15       10.4647    3.7924    5.0913 H         2 RES2    0.0000
     37 C18       12.0035    2.3607    3.4734 C.ar      2 RES2    0.0000
     38 C19        9.7552    6.2424    2.8573 C.ar      2 RES2    0.0000
     39 C20       12.0585    1.6270    4.6512 C.ar      2 RES2    0.0000
     40 H16       11.6467    1.9591    5.4151 H         2 RES2    0.0000
     41 C21       10.9892    6.7073    2.4147 C.ar      2 RES2    0.0000
     42 H17       11.7636    6.4594    2.8649 H         2 RES2    0.0000
     43 C22        8.6202    6.6433    2.1669 C.ar      2 RES2    0.0000
     44 H18        7.7850    6.3475    2.4489 H         2 RES2    0.0000
     45 C23       12.6598    1.8440    2.3579 C.ar      2 RES2    0.0000
     46 H19       12.6575    2.3210    1.5600 H         2 RES2    0.0000
     47 C24       11.2613    3.6175    3.3387 C.2       2 RES2    0.0000
     48 H20       11.3479    4.0661    2.5293 H         2 RES2    0.0000
     49 C25        8.7110    7.4709    1.0709 C.ar      2 RES2    0.0000
     50 H21        7.9407    7.7327    0.6198 H         2 RES2    0.0000
     51 C26       11.0718    7.5297    1.3160 C.ar      2 RES2    0.0000
     52 H22       11.9023    7.8308    1.0276 H         2 RES2    0.0000
     53 C27       13.3326   -0.0845    3.6000 C.ar      2 RES2    0.0000
     54 H23       13.7649   -0.9070    3.6408 H         2 RES2    0.0000
     55 C28       12.7103    0.4207    4.7091 C.ar      2 RES2    0.0000
     56 H24       12.7294   -0.0563    5.5072 H         2 RES2    0.0000
     57 C29       13.3156    0.6284    2.4291 C.ar      2 RES2    0.0000
     58 H25       13.7486    0.2930    1.6765 H         2 RES2    0.0000
     59 C30        9.9405    7.9106    0.6433 C.ar      2 RES2    0.0000
     60 H26       10.0055    8.4646   -0.1002 H         2 RES2    0.0000
@<TRIPOS>BOND
     1    1    2 1
     2    2    3 1
     3    4    1 2
     4    5    4 1
     5    6    5 1
     6    7    4 1
     7    8   11 1
     8    9    7 ar
     9   10    9 1
    10   11    5 2
    11   12   11 1
    12   13    8 ar
    13   14   13 1
    14   15    8 ar
    15   16   15 1
    16   17    9 ar
    17   18   17 1
    18   19    7 ar
    19   20   19 1
    20   21   13 ar
    21   22   21 1
    22   23   15 ar
    23   24   23 1
    24   25   21 ar
    25   26   25 1
    26   27   17 ar
    27   28   27 1
    28   29   19 ar
    29   30   29 1
    30   31   32 1
    31   32   33 1
    32   34   31 2
    33   35   34 1
    34   36   35 1
    35   37   39 ar
    36   38   34 1
    37   39   40 1
    38   41   38 ar
    39   42   41 1
    40   43   38 ar
    41   44   43 1
    42   45   37 ar
    43   46   45 1
    44   47   35 2
    45   48   47 1
    46   49   43 ar
    47   50   49 1
    48   51   41 ar
    49   52   51 1
    50   53   54 1
    51   55   39 ar
    52   56   55 1
    53   57   45 ar
    54   58   57 1
    55   59   49 ar
    56   60   59 1
    57   23   25 ar
    58   27   29 ar
    59   37   47 1
    60   51   59 ar
    61   53   55 ar
    62   53   57 ar
@<TRIPOS>SUBSTRUCTURE
     1 RES1 1
     2 RES2 31

@<TRIPOS>CRYSIN
  10.4650   11.2470   11.8040  80.9170  88.0850  67.1240   2 1

