# MOL2 file generated by ConQuest
# Please check atom types

@<TRIPOS>MOLECULE
VEPDIG
   110   112     2
SMALL
NO_CHARGES
****
Generated from CSD

@<TRIPOS>ATOM
      1 O1         3.2697    4.6010   10.8475 O.3       1 RES1    0.0000
      2 N1         7.7482   12.6654    7.5704 N.pl3     1 RES1    0.0000
      3 O2         7.4924   13.8579    7.4128 O.2       1 RES1    0.0000
      4 O3         2.4143    4.7918   13.8028 O.2       1 RES1    0.0000
      5 O4         6.8959    4.7141   13.1439 O.2       1 RES1    0.0000
      6 O5         4.4580    3.1275   12.0611 O.2       1 RES1    0.0000
      7 C1         3.6819    7.7742   12.4627 C.2       1 RES1    0.0000
      8 H1         2.9726    8.2890   12.7743 H         1 RES1    0.0000
      9 C2         4.5919    8.4127   11.5464 C.2       1 RES1    0.0000
     10 H2         5.3144    7.9249   11.2237 H         1 RES1    0.0000
     11 C3         4.4380    9.6841   11.1403 C.2       1 RES1    0.0000
     12 H3         3.6990   10.1426   11.4682 H         1 RES1    0.0000
     13 C4         5.8045    5.1048   13.4012 C.2       1 RES1    0.0000
     14 O6         5.3846    5.2830   14.6615 O.3       1 RES1    0.0000
     15 C5         5.3099   10.4106   10.2373 C.ar      1 RES1    0.0000
     16 C6         2.7462    5.9603   13.8871 C.2       1 RES1    0.0000
     17 C7         2.8685    7.9113   15.4891 C.ar      1 RES1    0.0000
     18 H4         3.7335    8.1001   15.2007 H         1 RES1    0.0000
     19 C8         2.1680    6.8467   14.9166 C.ar      1 RES1    0.0000
     20 C9         6.3045    9.7926    9.4785 C.ar      1 RES1    0.0000
     21 H5         6.4412    8.8774    9.5653 H         1 RES1    0.0000
     22 C10        3.7527    6.4926   12.9220 C.2       1 RES1    0.0000
     23 C11        4.1428    4.2561   11.7926 C.2       1 RES1    0.0000
     24 O7         8.6545   12.0840    7.0356 O.2       1 RES1    0.0000
     25 C12        6.8847   11.8806    8.4956 C.ar      1 RES1    0.0000
     26 C13        4.7849    5.4977   12.4006 C.3       1 RES1    0.0000
     27 H6         5.2644    5.9479   11.6750 H         1 RES1    0.0000
     28 C14        5.1492   11.8053   10.1241 C.ar      1 RES1    0.0000
     29 H7         4.5020   12.2397   10.6316 H         1 RES1    0.0000
     30 C15        5.9463   12.5317    9.2588 C.ar      1 RES1    0.0000
     31 H8         5.8496   13.4543    9.1953 H         1 RES1    0.0000
     32 C16        2.6896    3.4862   10.0798 C.3       1 RES1    0.0000
     33 H9         3.3869    3.0075    9.6059 H         1 RES1    0.0000
     34 H10        2.2407    2.8665   10.6759 H         1 RES1    0.0000
     35 C17        1.0188    8.4105   16.9091 C.ar      1 RES1    0.0000
     36 H11        0.6360    8.9124   17.5913 H         1 RES1    0.0000
     37 C18        7.0968   10.5179    8.5910 C.ar      1 RES1    0.0000
     38 H12        7.7489   10.0977    8.0781 H         1 RES1    0.0000
     39 C19        1.7304    4.0573    9.1279 C.3       1 RES1    0.0000
     40 H13        2.1879    4.6539    8.5308 H         1 RES1    0.0000
     41 H14        1.0531    4.5413    9.6064 H         1 RES1    0.0000
     42 H15        1.3214    3.3508    8.6224 H         1 RES1    0.0000
     43 C20        2.2955    8.6857   16.4720 C.ar      1 RES1    0.0000
     44 H16        2.7702    9.3952   16.8414 H         1 RES1    0.0000
     45 C21        0.8648    6.5920   15.4003 C.ar      1 RES1    0.0000
     46 H17        0.3893    5.8644   15.0693 H         1 RES1    0.0000
     47 C22        0.3082    7.3710   16.3145 C.ar      1 RES1    0.0000
     48 H18       -0.5744    7.2207   16.5659 H         1 RES1    0.0000
     49 C23        6.3170    5.0374   15.8041 C.3       1 RES1    0.0000
     50 H19        7.2345    5.0588   15.4879 H         1 RES1    0.0000
     51 H20        6.2076    5.7257   16.4723 H         1 RES1    0.0000
     52 C24        6.0536    3.7809   16.3721 C.3       1 RES1    0.0000
     53 H21        6.4956    3.0994   15.8651 H         1 RES1    0.0000
     54 H22        5.1063    3.6234   16.3680 H         1 RES1    0.0000
     55 H23        6.3750    3.7692   17.2773 H         1 RES1    0.0000
     56 O8         9.7771    5.9889   11.7194 O.3       2 RES2    0.0000
     57 C25        8.8212    6.4332   10.9784 C.2       2 RES2    0.0000
     58 O9         4.9100   -0.8133   15.1762 O.2       2 RES2    0.0000
     59 N2         5.8603   -1.3821   14.6637 N.pl3     2 RES2    0.0000
     60 O10        6.1293   -2.5564   14.8456 O.2       2 RES2    0.0000
     61 C26        9.7099    4.7164    9.2721 C.2       2 RES2    0.0000
     62 C27        8.3087    0.8498   12.0190 C.ar      2 RES2    0.0000
     63 C28       10.7331    3.4439    6.6585 C.ar      2 RES2    0.0000
     64 H24        9.8682    3.2164    6.9179 H         2 RES2    0.0000
     65 C29        8.5140   -0.5140   12.2652 C.ar      2 RES2    0.0000
     66 H25        9.2266   -0.9370   11.8421 H         2 RES2    0.0000
     67 C30        7.2282    1.4370   12.6935 C.ar      2 RES2    0.0000
     68 H26        7.0347    2.3355   12.5502 H         2 RES2    0.0000
     69 C31        8.9894    2.8511   10.6899 C.2       2 RES2    0.0000
     70 H27        8.3014    3.3375   11.0831 H         2 RES2    0.0000
     71 C32       12.6822    4.8066    6.9336 C.ar      2 RES2    0.0000
     72 H28       13.1248    5.5069    7.3571 H         2 RES2    0.0000
     73 C33        6.4468    0.7093   13.5610 C.ar      2 RES2    0.0000
     74 H29        5.7552    1.1186   14.0288 H         2 RES2    0.0000
     75 O11       11.0130    6.4995    8.4468 O.2       2 RES2    0.0000
     76 C34        9.7993    3.4965    9.7181 C.2       2 RES2    0.0000
     77 H30       10.4805    2.9808    9.3507 H         2 RES2    0.0000
     78 C35       11.3887    4.4708    7.3086 C.ar      2 RES2    0.0000
     79 C36        8.6158    5.7421    9.6959 C.3       2 RES2    0.0000
     80 H31        8.9372    6.4756    9.1301 H         2 RES2    0.0000
     81 C37        9.1616    1.5900   11.0649 C.2       2 RES2    0.0000
     82 H32        9.8814    1.1315   10.6953 H         2 RES2    0.0000
     83 C38       13.3162    4.0790    5.9107 C.ar      2 RES2    0.0000
     84 H33       14.1842    4.2888    5.6506 H         2 RES2    0.0000
     85 C39       11.3311    2.7563    5.6467 C.ar      2 RES2    0.0000
     86 H34       10.8676    2.0921    5.1897 H         2 RES2    0.0000
     87 C40        6.6974   -0.6043   13.7274 C.ar      2 RES2    0.0000
     88 C41        7.3991    5.6154    9.0902 C.2       2 RES2    0.0000
     89 C42        7.7288   -1.2473   13.0862 C.ar      2 RES2    0.0000
     90 H35        7.8818   -2.1555   13.2125 H         2 RES2    0.0000
     91 C43       12.6406    3.0601    5.3006 C.ar      2 RES2    0.0000
     92 H36       13.0658    2.5594    4.6431 H         2 RES2    0.0000
     93 C44       10.7099    5.3092    8.3514 C.2       2 RES2    0.0000
     94 C45        9.9375    6.5543   13.0329 C.3       2 RES2    0.0000
     95 H37       10.4104    7.3996   12.9779 H         2 RES2    0.0000
     96 H38        9.0696    6.7139   13.4361 H         2 RES2    0.0000
     97 C46        4.4635    6.4720    8.0274 C.3       2 RES2    0.0000
     98 H39        3.7445    6.4257    7.3931 H         2 RES2    0.0000
     99 H40        4.7184    7.3889    8.1556 H         2 RES2    0.0000
    100 H41        4.1757    6.1005    8.8648 H         2 RES2    0.0000
    101 O12        6.5206    4.7130    9.8291 O.2       2 RES2    0.0000
    102 C47        5.5617    5.7456    7.5437 C.3       2 RES2    0.0000
    103 H42        5.7179    5.9898    6.6196 H         2 RES2    0.0000
    104 H43        5.3441    4.7988    7.5657 H         2 RES2    0.0000
    105 C48       10.6777    5.6313   13.8117 C.3       2 RES2    0.0000
    106 H44       10.7958    5.9866   14.6953 H         2 RES2    0.0000
    107 H45       10.1961    4.8024   13.8612 H         2 RES2    0.0000
    108 H46       11.5314    5.4853   13.4049 H         2 RES2    0.0000
    109 O13        6.7763    5.9580    8.2937 O.3       2 RES2    0.0000
    110 O14        8.0880    7.3310   11.2557 O.2       2 RES2    0.0000
@<TRIPOS>BOND
     1    1   23 1
     2    2    3 2
     3    4   16 2
     4    5   13 2
     5    6   23 2
     6    7    8 1
     7    9    7 1
     8   10    9 1
     9   11    9 2
    10   12   11 1
    11   13   14 1
    12   14   49 1
    13   15   11 1
    14   16   19 1
    15   17   18 1
    16   19   17 ar
    17   20   15 ar
    18   21   20 1
    19   22    7 2
    20   23   26 1
    21   24    2 2
    22   25    2 1
    23   26   13 1
    24   27   26 1
    25   28   15 ar
    26   29   28 1
    27   30   25 ar
    28   31   30 1
    29   32    1 1
    30   33   32 1
    31   34   32 1
    32   35   36 1
    33   37   20 ar
    34   38   37 1
    35   39   32 1
    36   40   39 1
    37   41   39 1
    38   42   39 1
    39   43   17 ar
    40   44   43 1
    41   45   19 ar
    42   46   45 1
    43   47   35 ar
    44   48   47 1
    45   49   50 1
    46   51   49 1
    47   52   49 1
    48   53   52 1
    49   54   52 1
    50   55   52 1
    51   56   57 1
    52   57   79 1
    53   58   59 2
    54   59   60 2
    55   61   76 2
    56   62   65 ar
    57   63   64 1
    58   65   66 1
    59   67   62 ar
    60   68   67 1
    61   69   70 1
    62   71   72 1
    63   73   67 ar
    64   74   73 1
    65   75   93 2
    66   76   69 1
    67   77   76 1
    68   78   63 ar
    69   79   61 1
    70   80   79 1
    71   81   62 1
    72   82   81 1
    73   83   71 ar
    74   84   83 1
    75   85   63 ar
    76   86   85 1
    77   87   59 1
    78   88   79 1
    79   89   65 ar
    80   90   89 1
    81   91   83 ar
    82   92   91 1
    83   93   61 1
    84   94   56 1
    85   95   94 1
    86   96   94 1
    87   97   98 1
    88   99   97 1
    89  100   97 1
    90  101   88 2
    91  102   97 1
    92  103  102 1
    93  104  102 1
    94  105   94 1
    95  106  105 1
    96  107  105 1
    97  108  105 1
    98  109   88 1
    99  110   57 2
   100   16   22 1
   101   22   26 1
   102   25   37 ar
   103   28   30 ar
   104   35   43 ar
   105   45   47 ar
   106   69   81 2
   107   71   78 ar
   108   73   87 ar
   109   78   93 1
   110   85   91 ar
   111   87   89 ar
   112  102  109 1
@<TRIPOS>SUBSTRUCTURE
     1 RES1 1
     2 RES2 56

@<TRIPOS>CRYSIN
  17.8320   11.4226   22.5740  90.0000 100.6180  90.0000   9 1

