# MOL2 file generated by ConQuest
# Please check atom types

@<TRIPOS>MOLECULE
VEPFOO
    48    49     1
SMALL
NO_CHARGES
****
Generated from CSD

@<TRIPOS>ATOM
      1 O1        13.9870   -1.2982   -2.4618 O.2       1 RES1    0.0000
      2 O2        12.6315    0.4748   -2.6563 O.3       1 RES1    0.0000
      3 O3         6.4450    2.0015   -2.7214 O.2       1 RES1    0.0000
      4 O4         7.8018    3.3708   -1.7845 O.2       1 RES1    0.0000
      5 O5        11.0938    3.1008    1.2612 O.3       1 RES1    0.0000
      6 O6         9.7783    1.6579    2.3621 O.2       1 RES1    0.0000
      7 N1        12.6340   -1.3913    1.6528 N.3       1 RES1    0.0000
      8 N2         7.4543    2.2435   -2.0788 N.pl3     1 RES1    0.0000
      9 C1        13.1404   -1.4057    0.3945 C.2       1 RES1    0.0000
     10 C2        12.7362   -0.4959   -0.5563 C.2       1 RES1    0.0000
     11 C3        11.7497    0.5992   -0.2132 C.3       1 RES1    0.0000
     12 H1        12.0553    1.4146   -0.6631 H         1 RES1    0.0000
     13 C4        11.8011    0.8725    1.3094 C.3       1 RES1    0.0000
     14 H2        12.6854    1.2391    1.5190 H         1 RES1    0.0000
     15 C5        11.6418   -0.4147    2.0768 C.3       1 RES1    0.0000
     16 H3        11.7432   -0.2405    3.0256 H         1 RES1    0.0000
     17 H4        10.7520   -0.7715    1.9294 H         1 RES1    0.0000
     18 C6        13.0734   -2.3070    2.7066 C.3       1 RES1    0.0000
     19 H5        13.0869   -3.2042    2.3645 H         1 RES1    0.0000
     20 H6        12.4661   -2.2562    3.4478 H         1 RES1    0.0000
     21 H7        13.9547   -2.0617    2.9963 H         1 RES1    0.0000
     22 C7        14.1306   -2.5008    0.1224 C.3       1 RES1    0.0000
     23 H8        13.7140   -3.3533    0.2697 H         1 RES1    0.0000
     24 H9        14.8827   -2.4064    0.7113 H         1 RES1    0.0000
     25 H10       14.4285   -2.4439   -0.7886 H         1 RES1    0.0000
     26 C8        13.2026   -0.5408   -1.9345 C.2       1 RES1    0.0000
     27 C9        12.8294    0.5061   -4.0827 C.3       1 RES1    0.0000
     28 H11       13.6317    0.0105   -4.3084 H         1 RES1    0.0000
     29 H12       12.9514    1.4239   -4.3716 H         1 RES1    0.0000
     30 C10       11.6829   -0.0770   -4.7835 C.3       1 RES1    0.0000
     31 H13       11.7984    0.0305   -5.7307 H         1 RES1    0.0000
     32 H14       10.8783    0.3680   -4.5072 H         1 RES1    0.0000
     33 H15       11.6201   -1.0114   -4.5730 H         1 RES1    0.0000
     34 C11       10.3341    0.3140   -0.7113 C.ar      1 RES1    0.0000
     35 C12        9.7988   -0.9639   -0.7420 C.ar      1 RES1    0.0000
     36 H16       10.3126   -1.6807   -0.4477 H         1 RES1    0.0000
     37 C13        8.5080   -1.1933   -1.2048 C.ar      1 RES1    0.0000
     38 H17        8.1679   -2.0590   -1.2090 H         1 RES1    0.0000
     39 C14        7.7311   -0.1557   -1.6554 C.ar      1 RES1    0.0000
     40 H18        6.8705   -0.3031   -1.9760 H         1 RES1    0.0000
     41 C15        8.2686    1.1061   -1.6162 C.ar      1 RES1    0.0000
     42 C16        9.5374    1.3617   -1.1526 C.ar      1 RES1    0.0000
     43 H19        9.8609    2.2332   -1.1348 H         1 RES1    0.0000
     44 C17       10.7748    1.8839    1.7216 C.2       1 RES1    0.0000
     45 C18       10.1527    4.1519    1.5697 C.3       1 RES1    0.0000
     46 H20        9.2847    3.9105    1.2389 H         1 RES1    0.0000
     47 H21       10.4384    4.9683    1.1527 H         1 RES1    0.0000
     48 H22       10.1112    4.2750    2.5201 H         1 RES1    0.0000
@<TRIPOS>BOND
     1    1   26 2
     2    2   26 1
     3    3    8 2
     4    4    8 2
     5    5   44 1
     6    6   44 2
     7    7    9 1
     8    8   41 1
     9    9   10 2
    10   10   11 1
    11   11   12 1
    12   13   11 1
    13   14   13 1
    14   15    7 1
    15   16   15 1
    16   17   15 1
    17   18    7 1
    18   19   18 1
    19   20   18 1
    20   21   18 1
    21   22    9 1
    22   23   22 1
    23   24   22 1
    24   25   22 1
    25   26   10 1
    26   27    2 1
    27   28   27 1
    28   29   27 1
    29   30   27 1
    30   31   30 1
    31   32   30 1
    32   33   30 1
    33   34   11 1
    34   35   34 ar
    35   36   35 1
    36   37   35 ar
    37   38   37 1
    38   39   37 ar
    39   40   39 1
    40   41   39 ar
    41   42   34 ar
    42   43   42 1
    43   44   13 1
    44   45    5 1
    45   46   45 1
    46   47   45 1
    47   48   45 1
    48   13   15 1
    49   41   42 ar
@<TRIPOS>SUBSTRUCTURE
     1 RES1 1

@<TRIPOS>CRYSIN
  14.5912    8.4630   14.9815  90.0000 103.3800  90.0000 231 1

