# MOL2 file generated by ConQuest
# Please check atom types

@<TRIPOS>MOLECULE
VERHOQ
    49    51     1
SMALL
NO_CHARGES
****
Generated from CSD

@<TRIPOS>ATOM
      1 O1        -3.2918   10.2671    5.5789 O.2       1 RES1    0.0000
      2 O2        -3.2328   12.3977    5.3586 O.2       1 RES1    0.0000
      3 O3         5.2772   10.0054   -2.9559 O.3       1 RES1    0.0000
      4 N1         1.3150   11.9403    0.2958 N.2       1 RES1    0.0000
      5 N2         1.0929   10.8190    1.0616 N.pl3     1 RES1    0.0000
      6 N3         1.9868    8.6169    1.5001 N.2       1 RES1    0.0000
      7 N4        -2.8388   11.2799    5.0663 N.pl3     1 RES1    0.0000
      8 C1         2.2807   11.5486   -0.5588 C.2       1 RES1    0.0000
      9 C2         2.9261   12.3468   -1.5440 C.2       1 RES1    0.0000
     10 C3         3.9056   11.7670   -2.2804 C.2       1 RES1    0.0000
     11 C4         4.2827   10.4085   -2.1001 C.2       1 RES1    0.0000
     12 C5         3.6884    9.6195   -1.1531 C.2       1 RES1    0.0000
     13 C6         2.6574   10.2003   -0.3731 C.2       1 RES1    0.0000
     14 C7         1.8794    9.7476    0.6903 C.2       1 RES1    0.0000
     15 C8         0.1248   10.9083    2.0912 C.ar      1 RES1    0.0000
     16 C9        -0.3187   12.1709    2.4821 C.ar      1 RES1    0.0000
     17 C10       -1.2857   12.2929    3.4540 C.ar      1 RES1    0.0000
     18 C11       -1.7921   11.1520    4.0500 C.ar      1 RES1    0.0000
     19 C12       -1.3535    9.9043    3.6885 C.ar      1 RES1    0.0000
     20 C13       -0.4033    9.7716    2.6997 C.ar      1 RES1    0.0000
     21 C14        5.6370    8.6295   -2.9112 C.3       1 RES1    0.0000
     22 C15        1.9818    7.4331    1.0474 C.2       1 RES1    0.0000
     23 C16        1.6815    7.0468   -0.3749 C.3       1 RES1    0.0000
     24 C17        2.3095    6.2999    2.0166 C.3       1 RES1    0.0000
     25 C18        2.3429    6.8141    3.4522 C.3       1 RES1    0.0000
     26 C19        1.2920    5.1699    1.9233 C.3       1 RES1    0.0000
     27 C20        3.7125    5.7841    1.6612 C.3       1 RES1    0.0000
     28 H1         2.6718   13.2913   -1.6346 H         1 RES1    0.0000
     29 H2         4.3944   12.2473   -3.0027 H         1 RES1    0.0000
     30 H3         3.9382    8.7219   -1.0305 H         1 RES1    0.0000
     31 H4         0.0527   12.9187    2.0699 H         1 RES1    0.0000
     32 H5        -1.6176   13.1616    3.7311 H         1 RES1    0.0000
     33 H6        -1.7302    9.1681    4.0598 H         1 RES1    0.0000
     34 H7        -0.1376    8.9021    2.3808 H         1 RES1    0.0000
     35 H8         6.0479    8.4142   -1.9899 H         1 RES1    0.0000
     36 H9         6.3668    8.5214   -3.6601 H         1 RES1    0.0000
     37 H10        4.8589    8.0142   -3.0826 H         1 RES1    0.0000
     38 H11        2.3265    6.3726   -0.7906 H         1 RES1    0.0000
     39 H12        1.5320    7.7886   -0.8972 H         1 RES1    0.0000
     40 H13        0.9024    6.4194   -0.3642 H         1 RES1    0.0000
     41 H14        1.3272    7.1378    3.7311 H         1 RES1    0.0000
     42 H15        2.9597    7.6008    3.5890 H         1 RES1    0.0000
     43 H16        2.6444    6.0791    4.0421 H         1 RES1    0.0000
     44 H17        0.3948    5.5422    2.1587 H         1 RES1    0.0000
     45 H18        1.4717    4.4816    2.6384 H         1 RES1    0.0000
     46 H19        1.3547    4.7106    1.0038 H         1 RES1    0.0000
     47 H20        4.0095    5.0098    2.3097 H         1 RES1    0.0000
     48 H21        3.6186    5.3559    0.7196 H         1 RES1    0.0000
     49 H22        4.3676    6.5643    1.6701 H         1 RES1    0.0000
@<TRIPOS>BOND
     1    1    7 2
     2    2    7 2
     3    3   11 1
     4    4    5 1
     5    5   14 1
     6    6   14 1
     7    7   18 1
     8    8    4 2
     9    9    8 1
    10   10    9 2
    11   11   10 1
    12   12   11 2
    13   13    8 1
    14   14   13 2
    15   15    5 1
    16   16   15 ar
    17   17   16 ar
    18   18   17 ar
    19   19   18 ar
    20   20   15 ar
    21   21    3 1
    22   22    6 2
    23   23   22 1
    24   24   22 1
    25   25   24 1
    26   26   24 1
    27   27   24 1
    28   28    9 1
    29   29   10 1
    30   30   12 1
    31   31   16 1
    32   32   17 1
    33   33   19 1
    34   34   20 1
    35   35   21 1
    36   36   21 1
    37   37   21 1
    38   38   23 1
    39   39   23 1
    40   40   23 1
    41   41   25 1
    42   42   25 1
    43   43   25 1
    44   44   26 1
    45   45   26 1
    46   46   26 1
    47   47   27 1
    48   48   27 1
    49   49   27 1
    50   12   13 1
    51   19   20 ar
@<TRIPOS>SUBSTRUCTURE
     1 RES1 1

@<TRIPOS>CRYSIN
   9.8124   10.8017   11.0897 113.8360 115.3030  91.9700   2 1

