# MOL2 file generated by ConQuest
# Please check atom types

@<TRIPOS>MOLECULE
VERJAE
    40    44     1
SMALL
NO_CHARGES
****
Generated from CSD

@<TRIPOS>ATOM
      1 O1         6.2180    0.7767    3.6258 O.2       1 RES1    0.0000
      2 O2         8.2947    0.9810    3.0480 O.2       1 RES1    0.0000
      3 O3         0.7919    6.5832    0.7672 O.2       1 RES1    0.0000
      4 O4         1.3986    8.4048   -0.1592 O.2       1 RES1    0.0000
      5 O5         4.0988    6.5296    9.3563 O.2       1 RES1    0.0000
      6 O6         4.9417    8.5201    9.5582 O.2       1 RES1    0.0000
      7 N1         7.1937    1.4533    3.3252 N.pl3     1 RES1    0.0000
      8 N2         1.5840    7.4881    0.6087 N.pl3     1 RES1    0.0000
      9 N3         4.7058    7.5009    8.9136 N.pl3     1 RES1    0.0000
     10 C1         4.5228    5.6037    4.2476 C.3       1 RES1    0.0000
     11 C2         5.7429    4.8275    3.7797 C.ar      1 RES1    0.0000
     12 C3         5.8538    3.4531    3.7667 C.ar      1 RES1    0.0000
     13 C4         7.0504    2.9156    3.3119 C.ar      1 RES1    0.0000
     14 C5         8.1049    3.6865    2.8654 C.ar      1 RES1    0.0000
     15 C6         7.9751    5.0738    2.8873 C.ar      1 RES1    0.0000
     16 C7         6.8051    5.6366    3.3562 C.ar      1 RES1    0.0000
     17 C8         6.4962    7.1320    3.4918 C.3       1 RES1    0.0000
     18 C9         5.2191    7.3607    2.6918 C.ar      1 RES1    0.0000
     19 C10        5.0524    8.2911    1.6825 C.ar      1 RES1    0.0000
     20 C11        3.8274    8.3516    1.0171 C.ar      1 RES1    0.0000
     21 C12        2.8320    7.4792    1.3842 C.ar      1 RES1    0.0000
     22 C13        2.9546    6.5588    2.4177 C.ar      1 RES1    0.0000
     23 C14        4.1657    6.5201    3.0819 C.ar      1 RES1    0.0000
     24 C15        5.0433    6.5153    5.3558 C.ar      1 RES1    0.0000
     25 C16        6.1026    7.3324    4.9483 C.ar      1 RES1    0.0000
     26 C17        6.6903    8.2200    5.8356 C.ar      1 RES1    0.0000
     27 C18        6.2241    8.2766    7.1507 C.ar      1 RES1    0.0000
     28 C19        5.1866    7.4486    7.5234 C.ar      1 RES1    0.0000
     29 C20        4.5683    6.5579    6.6556 C.ar      1 RES1    0.0000
     30 H1         3.7665    5.0177    4.5384 H         1 RES1    0.0000
     31 H2         5.1405    2.8968    4.0573 H         1 RES1    0.0000
     32 H3         8.9030    3.2788    2.5488 H         1 RES1    0.0000
     33 H4         8.6850    5.6272    2.5832 H         1 RES1    0.0000
     34 H5         7.2517    7.7185    3.2041 H         1 RES1    0.0000
     35 H6         5.7607    8.8794    1.4450 H         1 RES1    0.0000
     36 H7         3.6840    8.9847    0.3231 H         1 RES1    0.0000
     37 H8         2.2386    5.9826    2.6577 H         1 RES1    0.0000
     38 H9         7.4007    8.7829    5.5532 H         1 RES1    0.0000
     39 H10        6.6145    8.8745    7.7770 H         1 RES1    0.0000
     40 H11        3.8518    6.0033    6.9401 H         1 RES1    0.0000
@<TRIPOS>BOND
     1    1    7 2
     2    2    7 2
     3    3    8 2
     4    4    8 2
     5    5    9 2
     6    6    9 2
     7    7   13 1
     8    8   21 1
     9    9   28 1
    10   10   11 1
    11   11   12 ar
    12   12   13 ar
    13   13   14 ar
    14   14   15 ar
    15   15   16 ar
    16   16   11 ar
    17   17   16 1
    18   18   17 1
    19   19   18 ar
    20   20   19 ar
    21   21   20 ar
    22   22   21 ar
    23   23   10 1
    24   24   10 1
    25   25   17 1
    26   26   25 ar
    27   27   26 ar
    28   28   27 ar
    29   29   24 ar
    30   30   10 1
    31   31   12 1
    32   32   14 1
    33   33   15 1
    34   34   17 1
    35   35   19 1
    36   36   20 1
    37   37   22 1
    38   38   26 1
    39   39   27 1
    40   40   29 1
    41   18   23 ar
    42   22   23 ar
    43   24   25 ar
    44   28   29 ar
@<TRIPOS>SUBSTRUCTURE
     1 RES1 1

@<TRIPOS>CRYSIN
  18.5700    9.8463   18.4610  90.0000 100.4720  90.0000  15 1

