# MOL2 file generated by ConQuest
# Please check atom types

@<TRIPOS>MOLECULE
VERWIZ
    47    44     2
SMALL
NO_CHARGES
****
Generated from CSD

@<TRIPOS>ATOM
      1 O1         9.9258    6.1808    1.4026 O.3       1 RES1    0.0000
      2 O2         9.8704    5.7359    3.5489 O.2       1 RES1    0.0000
      3 O3         2.6701    6.5299    5.5112 O.2       1 RES1    0.0000
      4 O4         3.7822    6.4480    7.3565 O.2       1 RES1    0.0000
      5 O5         8.5414    1.6186    5.0952 O.2       1 RES1    0.0000
      6 O6         7.6342    0.0599    3.8072 O.3       1 RES1    0.0000
      7 H1         7.9427   -0.4225    4.3950 H         1 RES1    0.0000
      8 N1         7.1669    3.0129    0.8676 N.pl3     1 RES1    0.0000
      9 H2         6.6470    2.9496    0.1852 H         1 RES1    0.0000
     10 N2         3.6631    6.2404    6.1583 N.pl3     1 RES1    0.0000
     11 C1         8.0258    4.0946    0.9524 C.2       1 RES1    0.0000
     12 C2         8.5088    4.4463    2.1613 C.2       1 RES1    0.0000
     13 C3         8.0169    3.7199    3.3936 C.3       1 RES1    0.0000
     14 H3         8.7667    3.6730    4.0236 H         1 RES1    0.0000
     15 C4         7.6241    2.2952    3.0499 C.2       1 RES1    0.0000
     16 C5         7.1098    2.0336    1.8325 C.2       1 RES1    0.0000
     17 C6         6.4872    0.7563    1.3462 C.3       1 RES1    0.0000
     18 H4         7.1705    0.1824    0.9918 H         1 RES1    0.0000
     19 H5         5.8471    0.9541    0.6587 H         1 RES1    0.0000
     20 H6         6.0466    0.3165    2.0772 H         1 RES1    0.0000
     21 C7         8.3296    4.7160   -0.3799 C.3       1 RES1    0.0000
     22 H7         8.0347    5.6295   -0.3810 H         1 RES1    0.0000
     23 H8         7.8716    4.2327   -1.0716 H         1 RES1    0.0000
     24 H9         9.2751    4.6848   -0.5395 H         1 RES1    0.0000
     25 C8         9.4856    5.4852    2.4369 C.2       1 RES1    0.0000
     26 C9        10.9742    7.1714    1.6739 C.3       1 RES1    0.0000
     27 H10       10.8642    7.9384    1.0918 H         1 RES1    0.0000
     28 H11       10.9135    7.4754    2.5933 H         1 RES1    0.0000
     29 C10       12.2765    6.5478    1.4366 C.3       1 RES1    0.0000
     30 H12       12.5328    6.0427    2.2145 H         1 RES1    0.0000
     31 H13       12.9302    7.2291    1.2695 H         1 RES1    0.0000
     32 H14       12.2173    5.9632    0.6811 H         1 RES1    0.0000
     33 C11       12.1357    6.8799    0.7662 Du        2 SUP2    0.0000
     34 H15       12.0050    7.3382   -0.0702 Du        2 SUP2    0.0000
     35 H16       12.1844    5.9351    0.6055 Du        2 SUP2    0.0000
     36 H17       12.9452    7.1823    1.1738 Du        2 SUP2    0.0000
     37 C12        6.8693    4.4287    4.1055 C.ar      1 RES1    0.0000
     38 C13        5.8191    4.9696    3.4127 C.ar      1 RES1    0.0000
     39 H18        5.8193    4.9405    2.4827 H         1 RES1    0.0000
     40 C14        4.7528    5.5610    4.0810 C.ar      1 RES1    0.0000
     41 H19        4.0342    5.9148    3.6075 H         1 RES1    0.0000
     42 C15        4.7778    5.6146    5.4431 C.ar      1 RES1    0.0000
     43 C16        5.8261    5.1135    6.1572 C.ar      1 RES1    0.0000
     44 H20        5.8369    5.1759    7.0851 H         1 RES1    0.0000
     45 C17        6.8628    4.5180    5.4878 C.ar      1 RES1    0.0000
     46 H21        7.5755    4.1656    5.9699 H         1 RES1    0.0000
     47 C18        7.9511    1.2938    4.0491 C.2       1 RES1    0.0000
@<TRIPOS>BOND
     1    1   25 1
     2    2   25 2
     3    3   10 2
     4    4   10 2
     5    5   47 2
     6    6    7 1
     7    8    9 1
     8   10   42 1
     9   11    8 1
    10   12   11 2
    11   13   12 1
    12   14   13 1
    13   15   13 1
    14   16    8 1
    15   17   16 1
    16   18   17 1
    17   19   17 1
    18   20   17 1
    19   21   11 1
    20   22   21 1
    21   23   21 1
    22   24   21 1
    23   25   12 1
    24   26    1 1
    25   27   26 1
    26   28   26 1
    27   29   26 1
    28   30   29 1
    29   31   29 1
    30   32   29 1
    31   37   13 1
    32   38   37 ar
    33   39   38 1
    34   40   38 ar
    35   41   40 1
    36   42   40 ar
    37   43   42 ar
    38   44   43 1
    39   45   37 ar
    40   46   45 1
    41   47    6 1
    42   15   16 2
    43   15   47 1
    44   43   45 ar
@<TRIPOS>SUBSTRUCTURE
     1 RES1 1
     2 SUP2 33

@<TRIPOS>CRYSIN
  10.3230   15.5900   11.2020  90.0000 108.2010  90.0000 231 1

