# MOL2 file generated by ConQuest
# Please check atom types

@<TRIPOS>MOLECULE
VESJOV
    35    37     1
SMALL
NO_CHARGES
****
Generated from CSD

@<TRIPOS>ATOM
      1 C1         8.7261    7.9422    6.4976 C.2       1 RES1    0.0000
      2 O1         9.1546    7.0549    5.8377 O.2       1 RES1    0.0000
      3 O2         8.9485    7.9740    7.8937 O.3       1 RES1    0.0000
      4 C2         7.9501    9.0988    6.0768 C.ar      1 RES1    0.0000
      5 C3         7.6893    9.2419    4.7082 C.ar      1 RES1    0.0000
      6 H1         7.9897    8.5965    4.1098 H         1 RES1    0.0000
      7 C4         6.9984   10.3242    4.2484 C.ar      1 RES1    0.0000
      8 C5         6.5411   11.2989    5.1494 C.ar      1 RES1    0.0000
      9 C6         6.7893   11.1463    6.4985 C.ar      1 RES1    0.0000
     10 H2         6.4787   11.7836    7.0999 H         1 RES1    0.0000
     11 C7         7.4930   10.0534    6.9593 C.ar      1 RES1    0.0000
     12 H3         7.6600    9.9611    7.8701 H         1 RES1    0.0000
     13 O3         6.7037   10.5866    2.9374 O.3       1 RES1    0.0000
     14 C8         7.1705    9.6705    1.9622 C.3       1 RES1    0.0000
     15 H4         8.1216    9.5697    2.0471 H         1 RES1    0.0000
     16 H5         6.9611   10.0008    1.0855 H         1 RES1    0.0000
     17 H6         6.7460    8.8195    2.0930 H         1 RES1    0.0000
     18 O4         5.8936   12.3348    4.5956 O.3       1 RES1    0.0000
     19 C9         5.5270   13.4333    5.4218 C.3       1 RES1    0.0000
     20 H7         4.9543   13.1242    6.1276 H         1 RES1    0.0000
     21 H8         5.0613   14.0875    4.8956 H         1 RES1    0.0000
     22 H9         6.3162   13.8280    5.7986 H         1 RES1    0.0000
     23 N1         9.7245    6.9214    8.3240 N.pl3     1 RES1    0.0000
     24 N2         9.1264    5.8061    8.7672 N.2       1 RES1    0.0000
     25 N3        10.0824    4.9780    9.1128 N.2       1 RES1    0.0000
     26 C10       11.2893    5.5831    8.8639 C.ar      1 RES1    0.0000
     27 C11       12.5847    5.1149    9.0484 C.ar      1 RES1    0.0000
     28 H10       12.7509    4.2763    9.4135 H         1 RES1    0.0000
     29 C12       13.5984    5.9359    8.6716 C.ar      1 RES1    0.0000
     30 H11       14.4773    5.6465    8.7682 H         1 RES1    0.0000
     31 C13       13.3532    7.2109    8.1405 C.ar      1 RES1    0.0000
     32 H12       14.0789    7.7427    7.9033 H         1 RES1    0.0000
     33 C14       12.0949    7.7039    7.9570 C.ar      1 RES1    0.0000
     34 H13       11.9345    8.5500    7.6055 H         1 RES1    0.0000
     35 C15       11.0684    6.8431    8.3367 C.ar      1 RES1    0.0000
@<TRIPOS>BOND
     1    1    2 2
     2    3    1 1
     3    4    1 1
     4    5    4 ar
     5    6    5 1
     6    7    5 ar
     7    8    7 ar
     8    9    8 ar
     9   10    9 1
    10   11    4 ar
    11   12   11 1
    12   13    7 1
    13   14   13 1
    14   15   14 1
    15   16   14 1
    16   17   14 1
    17   18    8 1
    18   19   18 1
    19   20   19 1
    20   21   19 1
    21   22   19 1
    22   23    3 1
    23   24   23 1
    24   25   24 2
    25   26   25 1
    26   27   26 ar
    27   28   27 1
    28   29   27 ar
    29   30   29 1
    30   31   29 ar
    31   32   31 1
    32   33   31 ar
    33   34   33 1
    34   35   23 1
    35    9   11 ar
    36   26   35 ar
    37   33   35 ar
@<TRIPOS>SUBSTRUCTURE
     1 RES1 1

@<TRIPOS>CRYSIN
   8.1296    9.5899   10.8824  66.8400  71.5330  71.3500   2 1

