# MOL2 file generated by ConQuest
# Please check atom types

@<TRIPOS>MOLECULE
VESRET
    36    37     1
SMALL
NO_CHARGES
****
Generated from CSD

@<TRIPOS>ATOM
      1 O1         1.7999    5.9224    4.2318 O.3       1 RES1    0.0000
      2 O2         2.0395    2.6030    2.8955 O.2       1 RES1    0.0000
      3 O3         1.1557    3.3489    4.8340 O.3       1 RES1    0.0000
      4 O4         3.8314    4.9207    2.1542 O.3       1 RES1    0.0000
      5 O5         5.9560    3.6809   -0.3063 O.2       1 RES1    0.0000
      6 N1         4.4992    4.8837    0.9012 N.am      1 RES1    0.0000
      7 H1         5.0011    5.6496    0.7254 H         1 RES1    0.0000
      8 N2         4.6634    2.6023    1.2271 N.am      1 RES1    0.0000
      9 H2         4.0092    2.6705    1.7336 H         1 RES1    0.0000
     10 H3         5.0567    1.8449    0.9807 H         1 RES1    0.0000
     11 C1         0.5613    5.8069    3.5261 C.3       1 RES1    0.0000
     12 H4         0.3210    6.5283    2.8921 H         1 RES1    0.0000
     13 H5        -0.2043    5.3941    3.9988 H         1 RES1    0.0000
     14 C2         1.7065    4.9440    3.1863 C.3       1 RES1    0.0000
     15 C3         1.6696    3.4960    3.6159 C.2       1 RES1    0.0000
     16 C4         2.4533    5.2340    1.9193 C.3       1 RES1    0.0000
     17 H6         2.0985    4.6819    1.1778 H         1 RES1    0.0000
     18 H7         2.3561    6.1888    1.6755 H         1 RES1    0.0000
     19 C5         5.0901    3.6906    0.5926 C.2       1 RES1    0.0000
     20 C6         0.8127    1.9641    5.2439 C.3       1 RES1    0.0000
     21 H8         1.4207    1.3230    4.7760 H         1 RES1    0.0000
     22 C7        -0.6067    1.7164    4.7958 C.3       1 RES1    0.0000
     23 H9        -0.8751    0.8083    5.0474 H         1 RES1    0.0000
     24 H10       -1.2029    2.3639    5.2251 H         1 RES1    0.0000
     25 H11       -0.6644    1.8155    3.8227 H         1 RES1    0.0000
     26 C8         1.0562    1.8794    6.7316 C.ar      1 RES1    0.0000
     27 C9         2.2520    1.3367    7.1980 C.ar      1 RES1    0.0000
     28 H12        2.8894    1.0036    6.5774 H         1 RES1    0.0000
     29 C10        2.5228    1.2757    8.5538 C.ar      1 RES1    0.0000
     30 H13        3.3507    0.9225    8.8572 H         1 RES1    0.0000
     31 C11        1.5855    1.7308    9.4690 C.ar      1 RES1    0.0000
     32 H14        1.7689    1.6920   10.4002 H         1 RES1    0.0000
     33 C12        0.3806    2.2405    9.0178 C.ar      1 RES1    0.0000
     34 H15       -0.2711    2.5341    9.6424 H         1 RES1    0.0000
     35 C13        0.1188    2.3252    7.6567 C.ar      1 RES1    0.0000
     36 H16       -0.7051    2.6899    7.3562 H         1 RES1    0.0000
@<TRIPOS>BOND
     1    1   11 1
     2    2   15 2
     3    3   15 1
     4    4    6 1
     5    5   19 2
     6    6    7 1
     7    8    9 1
     8   10    8 1
     9   11   12 1
    10   13   11 1
    11   14    1 1
    12   15   14 1
    13   16    4 1
    14   17   16 1
    15   18   16 1
    16   19    6 1
    17   20    3 1
    18   21   20 1
    19   22   20 1
    20   23   22 1
    21   24   22 1
    22   25   22 1
    23   26   20 1
    24   27   26 ar
    25   28   27 1
    26   29   27 ar
    27   30   29 1
    28   31   29 ar
    29   32   31 1
    30   33   31 ar
    31   34   33 1
    32   35   26 ar
    33   36   35 1
    34    8   19 1
    35   11   14 1
    36   14   16 1
    37   33   35 ar
@<TRIPOS>SUBSTRUCTURE
     1 RES1 1

@<TRIPOS>CRYSIN
   5.9238    7.1787   16.1585  90.0000  90.8223  90.0000   4 1

