# MOL2 file generated by ConQuest
# Please check atom types

@<TRIPOS>MOLECULE
VETFUW
   144   152     2
SMALL
NO_CHARGES
****
Generated from CSD

@<TRIPOS>ATOM
      1 O1         3.9022    2.4205    2.1021 O.3       1 RES1    0.0000
      2 O2        -0.3738    4.1520   -2.8033 O.3       1 RES1    0.0000
      3 O3        -2.3026    3.0177   -2.5695 O.2       1 RES1    0.0000
      4 C1         3.7466    0.3279    1.0658 C.ar      1 RES1    0.0000
      5 O4         8.1953   -0.8980    3.4334 O.2       2 RES2    0.0000
      6 O5         4.9758    0.6099    6.7200 O.3       2 RES2    0.0000
      7 O6         2.7316    2.8717   -6.3038 O.2       1 RES1    0.0000
      8 C2        -1.2833    0.9730   -4.2077 C.ar      1 RES1    0.0000
      9 H1        -2.0387    0.7626   -3.7056 H         1 RES1    0.0000
     10 C3        -0.6657    2.2134   -4.0588 C.ar      1 RES1    0.0000
     11 O7         9.1877   -0.8374   11.7713 O.3       2 RES2    0.0000
     12 O8         3.1275   -0.5561    7.0721 O.2       2 RES2    0.0000
     13 C4        -0.7727    0.0657   -5.0969 C.ar      1 RES1    0.0000
     14 O9         0.3445   -0.6139   -2.0264 O.2       1 RES1    0.0000
     15 N1         0.8574    0.2174   -1.2980 N.pl3     1 RES1    0.0000
     16 C5         2.0448   -0.1829   -0.4962 C.ar      1 RES1    0.0000
     17 C6         4.7820   -1.4317    5.6070 C.ar      2 RES2    0.0000
     18 C7        -1.2121    3.1488   -3.0684 C.2       1 RES1    0.0000
     19 O10        0.4617    1.3622   -1.1559 O.2       1 RES1    0.0000
     20 C8         5.7470   -3.3842    3.8405 C.ar      2 RES2    0.0000
     21 H2         6.0585   -4.0263    3.2451 H         2 RES2    0.0000
     22 C9         0.9209    1.5264   -5.7201 C.ar      1 RES1    0.0000
     23 C10        0.4729    2.4895   -4.8448 C.ar      1 RES1    0.0000
     24 H3         0.9130    3.3065   -4.7714 H         1 RES1    0.0000
     25 N2         2.0989    1.8548   -6.5458 N.pl3     1 RES1    0.0000
     26 C11        4.4862    1.2316    2.0066 C.2       1 RES1    0.0000
     27 C12        7.4752   -3.7109    9.3562 C.ar      2 RES2    0.0000
     28 C13        5.9104   -1.1860    4.8627 C.ar      2 RES2    0.0000
     29 H4         6.3611   -0.3770    4.9421 H         2 RES2    0.0000
     30 C14        0.3312    0.3308   -5.8590 C.ar      1 RES1    0.0000
     31 H5         0.6630   -0.2994   -6.4584 H         1 RES1    0.0000
     32 C15        3.5875   -1.8333    0.1270 C.ar      1 RES1    0.0000
     33 C16        1.4294    5.2355   -0.5776 C.3       1 RES1    0.0000
     34 H6         1.8026    4.4896   -1.0916 H         1 RES1    0.0000
     35 C17        9.1603   -2.9982   10.8587 C.ar      2 RES2    0.0000
     36 N3        -1.4375   -1.2593   -5.2179 N.pl3     1 RES1    0.0000
     37 C18        2.6358    0.7187    0.3195 C.ar      1 RES1    0.0000
     38 H7         2.3053    1.5850    0.3850 H         1 RES1    0.0000
     39 C19        4.6282   -3.5968    4.6305 C.ar      2 RES2    0.0000
     40 O11        5.8107   -2.2847    8.6059 O.2       2 RES2    0.0000
     41 C20        2.4541   -1.4786   -0.5875 C.ar      1 RES1    0.0000
     42 H8         1.9937   -2.0982   -1.1055 H         1 RES1    0.0000
     43 C21        2.9298    6.2018    1.0857 C.3       1 RES1    0.0000
     44 H9         3.1762    7.0721    1.4608 H         1 RES1    0.0000
     45 C22        6.3666   -2.1663    3.9894 C.ar      2 RES2    0.0000
     46 N4         6.2847   -3.4045    8.5107 N.pl3     2 RES2    0.0000
     47 C23        4.2294   -0.9675    0.9507 C.ar      1 RES1    0.0000
     48 H10        4.9802   -1.2377    1.4290 H         1 RES1    0.0000
     49 C24        2.4792    6.3501   -0.3533 C.3       1 RES1    0.0000
     50 N5         7.5571   -1.8962    3.2034 N.pl3     2 RES2    0.0000
     51 N6         4.0744   -3.2243    0.0417 N.pl3     1 RES1    0.0000
     52 C25        3.8698    4.7137    2.7747 C.3       1 RES1    0.0000
     53 C26        4.1313   -2.6666    5.4641 C.ar      2 RES2    0.0000
     54 H11        3.3569   -2.8440    5.9483 H         2 RES2    0.0000
     55 C27        4.1950   -0.4343    6.5557 C.2       2 RES2    0.0000
     56 C28        9.0485   -5.2462   10.1223 C.ar      2 RES2    0.0000
     57 O12        2.4016    1.0759   -7.4091 O.2       1 RES1    0.0000
     58 O13       -2.4847   -1.3940   -4.6265 O.2       1 RES1    0.0000
     59 C29        8.0324   -2.7027   10.0866 C.ar      2 RES2    0.0000
     60 H12        7.6724   -1.8446   10.0727 H         2 RES2    0.0000
     61 O14        5.4926    0.9170    2.5504 O.2       1 RES1    0.0000
     62 O15        5.8610   -4.2598    7.7823 O.2       2 RES2    0.0000
     63 C30       -0.8515    5.1485   -1.8518 C.3       1 RES1    0.0000
     64 H13       -1.3256    4.7098   -1.1293 H         1 RES1    0.0000
     65 H14       -1.4656    5.7560   -2.2944 H         1 RES1    0.0000
     66 C31        9.6525   -4.2762   10.8547 C.ar      2 RES2    0.0000
     67 H15       10.4065   -4.4828   11.3588 H         2 RES2    0.0000
     68 C32        4.5069    3.3936    2.9970 C.3       1 RES1    0.0000
     69 H16        5.4596    3.4525    2.8243 H         1 RES1    0.0000
     70 H17        4.3805    3.1164    3.9179 H         1 RES1    0.0000
     71 C33        7.9382   -4.9865    9.3542 C.ar      2 RES2    0.0000
     72 H18        7.5226   -5.6556    8.8580 H         2 RES2    0.0000
     73 C34        1.0000    4.8000    0.8018 C.2       1 RES1    0.0000
     74 N7         3.9092   -4.8662    4.4598 N.pl3     2 RES2    0.0000
     75 O16        0.1922    3.9379    1.0499 O.2       1 RES1    0.0000
     76 O17       -0.9187   -2.0749   -5.9662 O.2       1 RES1    0.0000
     77 C35        4.0217    5.1808    1.3457 C.3       1 RES1    0.0000
     78 H19        3.9338    4.4319    0.7363 H         1 RES1    0.0000
     79 H20        4.8950    5.5825    1.2147 H         1 RES1    0.0000
     80 C36        9.8314   -2.0155   11.7200 C.2       2 RES2    0.0000
     81 O18        2.8449   -5.0251    5.0334 O.2       2 RES2    0.0000
     82 C37        0.2882    5.8991   -1.3159 C.2       1 RES1    0.0000
     83 C38        1.6723    7.6635   -0.6371 C.3       1 RES1    0.0000
     84 H21        1.4525    8.1201    0.1905 H         1 RES1    0.0000
     85 H22        2.1830    8.2661   -1.2008 H         1 RES1    0.0000
     86 O19        3.5056   -3.9755   -0.6967 O.2       1 RES1    0.0000
     87 C39        3.6252    6.2911   -1.3675 C.3       1 RES1    0.0000
     88 H23        4.2574    6.9894   -1.1770 H         1 RES1    0.0000
     89 H24        3.2746    6.4089   -2.2527 H         1 RES1    0.0000
     90 H25        4.0631    5.4389   -1.3080 H         1 RES1    0.0000
     91 C40        0.4472    7.2141   -1.3278 C.2       1 RES1    0.0000
     92 H26       -0.1541    7.7986   -1.7327 H         1 RES1    0.0000
     93 C41        1.7347    5.5884    1.8677 C.3       1 RES1    0.0000
     94 H27        1.1625    6.2923    2.2408 H         1 RES1    0.0000
     95 O20       10.8565   -2.2329   12.3294 O.2       2 RES2    0.0000
     96 C42        6.7609    1.8807    8.8441 C.3       2 RES2    0.0000
     97 H28        7.1771    1.1426    8.3519 H         2 RES2    0.0000
     98 O21        7.8288   -2.6510    2.3083 O.2       2 RES2    0.0000
     99 C43        8.1505    2.9115   10.5351 C.3       2 RES2    0.0000
    100 H29        8.3431    3.7969   10.9103 H         2 RES2    0.0000
    101 C44        8.9722    2.9372    8.1058 C.3       2 RES2    0.0000
    102 H30        9.5374    3.7026    8.2348 H         2 RES2    0.0000
    103 H31        8.6640    2.9170    7.1968 H         2 RES2    0.0000
    104 H32        9.4692    2.1377    8.2924 H         2 RES2    0.0000
    105 C45        7.7756    3.0242    9.0446 C.3       2 RES2    0.0000
    106 C46        5.6465    2.4736    8.0423 C.2       2 RES2    0.0000
    107 N8         9.5776   -6.6327   10.1640 N.pl3     2 RES2    0.0000
    108 C47        4.4995    5.6926    3.7790 C.3       1 RES1    0.0000
    109 H33        5.4187    5.8420    3.5468 H         1 RES1    0.0000
    110 H34        4.4488    5.3225    4.6622 H         1 RES1    0.0000
    111 H35        4.0238    6.5275    3.7532 H         1 RES1    0.0000
    112 O22       10.5496   -6.8313   10.8527 O.2       2 RES2    0.0000
    113 O23        5.0500   -3.5216    0.6967 O.2       1 RES1    0.0000
    114 C48        9.7133    0.2036   12.6251 C.3       2 RES2    0.0000
    115 H36       10.6698    0.2925   12.4842 H         2 RES2    0.0000
    116 H37        9.5646   -0.0288   13.5560 H         2 RES2    0.0000
    117 O24        4.3980   -5.7309    3.7869 O.2       2 RES2    0.0000
    118 C49        9.0268    1.5079   12.3095 C.3       2 RES2    0.0000
    119 C50        6.3212    1.4169   10.1818 C.2       2 RES2    0.0000
    120 C51        4.4997    1.6570    7.5778 C.3       2 RES2    0.0000
    121 H38        4.0390    1.2745    8.3400 H         2 RES2    0.0000
    122 H39        3.8726    2.2182    7.0936 H         2 RES2    0.0000
    123 C52        9.2753    1.9200   10.8785 C.3       2 RES2    0.0000
    124 H40        9.2432    1.1488   10.2910 H         2 RES2    0.0000
    125 H41       10.1437    2.3433   10.7912 H         2 RES2    0.0000
    126 C53        6.9677    2.2554   11.2735 C.3       2 RES2    0.0000
    127 H42        6.3437    2.9375   11.5990 H         2 RES2    0.0000
    128 C54        2.3173    4.7027    2.9891 C.3       1 RES1    0.0000
    129 H43        1.9693    3.7997    2.9255 H         1 RES1    0.0000
    130 H44        2.0899    5.0636    3.8604 H         1 RES1    0.0000
    131 C55        7.5060    1.4390   12.4266 C.3       2 RES2    0.0000
    132 H45        7.2006    0.5202   12.3651 H         2 RES2    0.0000
    133 H46        7.2118    1.8099   13.2721 H         2 RES2    0.0000
    134 C56        5.7497    3.7864    8.0641 C.2       2 RES2    0.0000
    135 H47        5.1236    4.3470    7.6632 H         2 RES2    0.0000
    136 O25        8.9970   -7.4565    9.5447 O.2       2 RES2    0.0000
    137 C57        9.6089    2.5517   13.2999 C.3       2 RES2    0.0000
    138 H48        9.4500    2.2600   14.2010 H         2 RES2    0.0000
    139 H49        9.1825    3.4007   13.1590 H         2 RES2    0.0000
    140 H50       10.5533    2.6405   13.1550 H         2 RES2    0.0000
    141 O26        5.5781    0.5182   10.4041 O.2       2 RES2    0.0000
    142 C58        6.9614    4.3065    8.7866 C.3       2 RES2    0.0000
    143 H51        6.7156    4.7407    9.6182 H         2 RES2    0.0000
    144 H52        7.4571    4.9338    8.2348 H         2 RES2    0.0000
@<TRIPOS>BOND
     1    1   26 1
     2    2   18 1
     3    3   18 2
     4    4   26 1
     5    5   50 2
     6    6   55 1
     7    7   25 2
     8    8    9 1
     9   10    8 ar
    10   11   80 1
    11   12   55 2
    12   13    8 ar
    13   14   15 2
    14   15   16 1
    15   16   37 ar
    16   17   28 ar
    17   18   10 1
    18   19   15 2
    19   20   21 1
    20   22   23 ar
    21   23   10 ar
    22   24   23 1
    23   25   22 1
    24   26   61 2
    25   27   46 1
    26   28   29 1
    27   30   13 ar
    28   31   30 1
    29   32   41 ar
    30   33   34 1
    31   35   59 ar
    32   36   13 1
    33   37    4 ar
    34   38   37 1
    35   39   20 ar
    36   40   46 2
    37   41   16 ar
    38   42   41 1
    39   43   44 1
    40   45   20 ar
    41   46   62 2
    42   47    4 ar
    43   48   47 1
    44   49   33 1
    45   50   45 1
    46   51   32 1
    47   52   68 1
    48   53   17 ar
    49   54   53 1
    50   55   17 1
    51   56   66 ar
    52   57   25 2
    53   58   36 2
    54   59   27 ar
    55   60   59 1
    56   63    2 1
    57   64   63 1
    58   65   63 1
    59   66   35 ar
    60   67   66 1
    61   68    1 1
    62   69   68 1
    63   70   68 1
    64   71   27 ar
    65   72   71 1
    66   73   33 1
    67   74   39 1
    68   75   73 2
    69   76   36 2
    70   77   43 1
    71   78   77 1
    72   79   77 1
    73   80   35 1
    74   81   74 2
    75   82   33 1
    76   83   49 1
    77   84   83 1
    78   85   83 1
    79   86   51 2
    80   87   49 1
    81   88   87 1
    82   89   87 1
    83   90   87 1
    84   91   82 2
    85   92   91 1
    86   93   43 1
    87   94   93 1
    88   95   80 2
    89   96   97 1
    90   98   50 2
    91   99  100 1
    92  101  102 1
    93  103  101 1
    94  104  101 1
    95  105   96 1
    96  106   96 1
    97  107   56 1
    98  108   52 1
    99  109  108 1
   100  110  108 1
   101  111  108 1
   102  112  107 2
   103  113   51 2
   104  114   11 1
   105  115  114 1
   106  116  114 1
   107  117   74 2
   108  118  114 1
   109  119   96 1
   110  120    6 1
   111  121  120 1
   112  122  120 1
   113  123   99 1
   114  124  123 1
   115  125  123 1
   116  126   99 1
   117  127  126 1
   118  128   52 1
   119  129  128 1
   120  130  128 1
   121  131  118 1
   122  132  131 1
   123  133  131 1
   124  134  106 2
   125  135  134 1
   126  136  107 2
   127  137  118 1
   128  138  137 1
   129  139  137 1
   130  140  137 1
   131  141  119 2
   132  142  105 1
   133  143  142 1
   134  144  142 1
   135   22   30 ar
   136   28   45 ar
   137   32   47 ar
   138   39   53 ar
   139   43   49 1
   140   52   77 1
   141   56   71 ar
   142   63   82 1
   143   73   93 1
   144   83   91 1
   145   93  128 1
   146   99  105 1
   147  101  105 1
   148  106  120 1
   149  118  123 1
   150  119  126 1
   151  126  131 1
   152  134  142 1
@<TRIPOS>SUBSTRUCTURE
     1 RES1 1
     2 RES2 5

@<TRIPOS>CRYSIN
  11.1590   15.1120   20.9150 108.2320  90.6600  95.1370   2 1

