# MOL2 file generated by ConQuest
# Please check atom types

@<TRIPOS>MOLECULE
VETLIQ
    21    21     1
SMALL
NO_CHARGES
****
Generated from CSD

@<TRIPOS>ATOM
      1 O1         1.5540    1.1117    5.3238 O.2       1 RES1    0.0000
      2 O2         3.1500    2.3122    6.1657 O.2       1 RES1    0.0000
      3 O3         5.3347    5.6677    3.6322 O.2       1 RES1    0.0000
      4 O4         4.9097    5.8883    1.5178 O.2       1 RES1    0.0000
      5 N1         2.4701    1.9469    5.2154 N.pl3     1 RES1    0.0000
      6 N2         4.7654    5.3199    2.6016 N.pl3     1 RES1    0.0000
      7 N3         1.3685    0.8549    2.7197 N.3       1 RES1    0.0000
      8 N4         0.9320    0.3361    1.5160 N.2       1 RES1    0.0000
      9 C1         2.7388    2.4965    3.9025 C.ar      1 RES1    0.0000
     10 C2         3.5937    3.5966    3.8657 C.ar      1 RES1    0.0000
     11 H1         3.9627    3.9379    4.6481 H         1 RES1    0.0000
     12 C3         3.8808    4.1669    2.6486 C.ar      1 RES1    0.0000
     13 C4         3.3574    3.6523    1.4585 C.ar      1 RES1    0.0000
     14 H2         3.5682    4.0512    0.6452 H         1 RES1    0.0000
     15 C5         2.5355    2.5614    1.4938 C.ar      1 RES1    0.0000
     16 H3         2.1998    2.2197    0.6966 H         1 RES1    0.0000
     17 C6         2.1804    1.9348    2.7221 C.ar      1 RES1    0.0000
     18 C7         0.2720   -0.7489    1.6071 C.2       1 RES1    0.0000
     19 H4         0.1034   -1.1678    2.4617 H         1 RES1    0.0000
     20 H5        -0.0384   -1.1369    0.7808 H         1 RES1    0.0000
     21 H6         1.1583    0.4620    3.4419 H         1 RES1    0.0000
@<TRIPOS>BOND
     1    1    5 2
     2    2    5 2
     3    3    6 2
     4    4    6 2
     5    5    9 1
     6    6   12 1
     7    7    8 1
     8    8   18 2
     9    9   10 ar
    10   10   11 1
    11   12   10 ar
    12   13   12 ar
    13   14   13 1
    14   15   13 ar
    15   16   15 1
    16   17    7 1
    17   18   19 1
    18   20   18 1
    19   21    7 1
    20    9   17 ar
    21   15   17 ar
@<TRIPOS>SUBSTRUCTURE
     1 RES1 1

@<TRIPOS>CRYSIN
   4.2482    9.7774   10.3407  86.8250  83.9660  82.4130   2 1

