# MOL2 file generated by ConQuest
# Please check atom types

@<TRIPOS>MOLECULE
VETQET
    72    78     2
SMALL
NO_CHARGES
****
Generated from CSD

@<TRIPOS>ATOM
      1 N1         0.9298    2.4235    5.3387 N.pl3     1 RES1    0.0000
      2 O1         1.0749    1.5442    6.1764 O.2       1 RES1    0.0000
      3 O2        -0.1054    2.5938    4.7025 O.2       1 RES1    0.0000
      4 O3         2.6964    5.4866    4.1628 O.3       1 RES1    0.0000
      5 C1         1.6622    3.9340    2.6128 C.ar      1 RES1    0.0000
      6 C2         0.5836    4.3517    1.8055 C.ar      1 RES1    0.0000
      7 H1        -0.0860    4.8834    2.1705 H         1 RES1    0.0000
      8 C3         0.5143    3.9835    0.4977 C.ar      1 RES1    0.0000
      9 H2        -0.2114    4.2585   -0.0140 H         1 RES1    0.0000
     10 C4         1.5136    3.1986   -0.0940 C.ar      1 RES1    0.0000
     11 C5         1.4764    2.8097   -1.4603 C.ar      1 RES1    0.0000
     12 H3         0.7616    3.0752   -1.9925 H         1 RES1    0.0000
     13 C6         2.4654    2.0597   -1.9973 C.ar      1 RES1    0.0000
     14 H4         2.4294    1.8234   -2.8963 H         1 RES1    0.0000
     15 C7         3.5378    1.6406   -1.2151 C.ar      1 RES1    0.0000
     16 H5         4.2130    1.1263   -1.5960 H         1 RES1    0.0000
     17 C8         3.6069    1.9782    0.1066 C.ar      1 RES1    0.0000
     18 H6         4.3247    1.6838    0.6207 H         1 RES1    0.0000
     19 C9         2.6011    2.7681    0.6993 C.ar      1 RES1    0.0000
     20 C10        2.6340    3.1505    2.0629 C.ar      1 RES1    0.0000
     21 H7         3.3373    2.8597    2.5978 H         1 RES1    0.0000
     22 C11        1.7243    4.4108    4.0436 C.3       1 RES1    0.0000
     23 H8         0.8457    4.7841    4.2667 H         1 RES1    0.0000
     24 C12        2.0252    3.3379    5.0525 C.2       1 RES1    0.0000
     25 C13        3.2019    3.1709    5.6393 C.2       1 RES1    0.0000
     26 H9         3.3324    2.4777    6.2452 H         1 RES1    0.0000
     27 C14        4.2828    4.0844    5.3230 C.ar      1 RES1    0.0000
     28 C15        5.5898    3.9060    5.7759 C.ar      1 RES1    0.0000
     29 H10        5.8028    3.1663    6.2984 H         1 RES1    0.0000
     30 C16        6.5686    4.8235    5.4521 C.ar      1 RES1    0.0000
     31 H11        7.4391    4.7050    5.7576 H         1 RES1    0.0000
     32 C17        6.2507    5.9208    4.6706 C.ar      1 RES1    0.0000
     33 H12        6.9132    6.5361    4.4544 H         1 RES1    0.0000
     34 C18        4.9652    6.1159    4.2070 C.ar      1 RES1    0.0000
     35 H13        4.7635    6.8511    3.6740 H         1 RES1    0.0000
     36 C19        3.9812    5.2061    4.5445 C.ar      1 RES1    0.0000
     37 N2         0.6159    7.8675    5.3722 N.pl3     2 RES2    0.0000
     38 O4        -0.4319    8.0779    4.7649 O.2       2 RES2    0.0000
     39 O5         0.7751    6.9291    6.1442 O.2       2 RES2    0.0000
     40 O6         2.3608   11.0042    4.4083 O.3       2 RES2    0.0000
     41 C20        1.4611    9.5434    2.7094 C.ar      2 RES2    0.0000
     42 C21        0.9621   10.4948    1.7846 C.ar      2 RES2    0.0000
     43 H14        0.5776   11.2825    2.0948 H         2 RES2    0.0000
     44 C22        1.0422   10.2646    0.4468 C.ar      2 RES2    0.0000
     45 H15        0.7163   10.9021   -0.1457 H         2 RES2    0.0000
     46 C23        1.6099    9.0774   -0.0582 C.ar      2 RES2    0.0000
     47 C24        1.7299    8.8130   -1.4477 C.ar      2 RES2    0.0000
     48 H16        1.4281    9.4430   -2.0612 H         2 RES2    0.0000
     49 C25        2.2777    7.6568   -1.8942 C.ar      2 RES2    0.0000
     50 H17        2.3525    7.5055   -2.8094 H         2 RES2    0.0000
     51 C26        2.7338    6.6877   -0.9925 C.ar      2 RES2    0.0000
     52 H18        3.1006    5.8950   -1.3101 H         2 RES2    0.0000
     53 C27        2.6399    6.9047    0.3583 C.ar      2 RES2    0.0000
     54 H19        2.9447    6.2567    0.9514 H         2 RES2    0.0000
     55 C28        2.0841    8.1051    0.8570 C.ar      2 RES2    0.0000
     56 C29        1.9956    8.3756    2.2473 C.ar      2 RES2    0.0000
     57 H20        2.3077    7.7446    2.8557 H         2 RES2    0.0000
     58 C30        1.4219    9.9147    4.1736 C.3       2 RES2    0.0000
     59 H21        0.5219   10.2493    4.3718 H         2 RES2    0.0000
     60 C31        1.7106    8.7877    5.1260 C.2       2 RES2    0.0000
     61 C32        2.8966    8.5862    5.6819 C.2       2 RES2    0.0000
     62 H22        3.0361    7.8593    6.2438 H         2 RES2    0.0000
     63 C33        3.9734    9.5140    5.4021 C.ar      2 RES2    0.0000
     64 C34        5.2896    9.3072    5.8139 C.ar      2 RES2    0.0000
     65 H23        5.5140    8.5280    6.2704 H         2 RES2    0.0000
     66 C35        6.2621   10.2537    5.5482 C.ar      2 RES2    0.0000
     67 H24        7.1386   10.1138    5.8262 H         2 RES2    0.0000
     68 C36        5.9273   11.4104    4.8663 C.ar      2 RES2    0.0000
     69 H25        6.5831   12.0465    4.6926 H         2 RES2    0.0000
     70 C37        4.6343   11.6325    4.4410 C.ar      2 RES2    0.0000
     71 H26        4.4216   12.4055    3.9710 H         2 RES2    0.0000
     72 C38        3.6563   10.6931    4.7205 C.ar      2 RES2    0.0000
@<TRIPOS>BOND
     1    1    2 2
     2    3    1 2
     3    4   22 1
     4    5    6 ar
     5    6    7 1
     6    8    6 ar
     7    9    8 1
     8   10    8 ar
     9   11   10 ar
    10   12   11 1
    11   13   11 ar
    12   14   13 1
    13   15   13 ar
    14   16   15 1
    15   17   15 ar
    16   18   17 1
    17   19   10 ar
    18   20    5 ar
    19   21   20 1
    20   22    5 1
    21   23   22 1
    22   24    1 1
    23   25   24 2
    24   26   25 1
    25   27   25 1
    26   28   27 ar
    27   29   28 1
    28   30   28 ar
    29   31   30 1
    30   32   30 ar
    31   33   32 1
    32   34   32 ar
    33   35   34 1
    34   36    4 1
    35   37   38 2
    36   39   37 2
    37   40   58 1
    38   41   42 ar
    39   42   43 1
    40   44   42 ar
    41   45   44 1
    42   46   44 ar
    43   47   46 ar
    44   48   47 1
    45   49   47 ar
    46   50   49 1
    47   51   49 ar
    48   52   51 1
    49   53   51 ar
    50   54   53 1
    51   55   46 ar
    52   56   41 ar
    53   57   56 1
    54   58   41 1
    55   59   58 1
    56   60   37 1
    57   61   60 2
    58   62   61 1
    59   63   61 1
    60   64   63 ar
    61   65   64 1
    62   66   64 ar
    63   67   66 1
    64   68   66 ar
    65   69   68 1
    66   70   68 ar
    67   71   70 1
    68   72   40 1
    69   17   19 ar
    70   19   20 ar
    71   22   24 1
    72   27   36 ar
    73   34   36 ar
    74   53   55 ar
    75   55   56 ar
    76   58   60 1
    77   63   72 ar
    78   70   72 ar
@<TRIPOS>SUBSTRUCTURE
     1 RES1 1
     2 RES2 37

@<TRIPOS>CRYSIN
   9.4457   11.0520   14.6746 100.7790 102.7380  93.0650   2 1

