# MOL2 file generated by ConQuest
# Please check atom types

@<TRIPOS>MOLECULE
VETRAQ
    39    41     1
SMALL
NO_CHARGES
****
Generated from CSD

@<TRIPOS>ATOM
      1 O1         2.7056    0.6294    4.2192 O.3       1 RES1    0.0000
      2 O2         9.9572    1.7468   10.4825 O.3       1 RES1    0.0000
      3 H1        10.4072    1.0622   10.5123 H         1 RES1    0.0000
      4 N1         3.4783    1.7321    6.3748 N.2       1 RES1    0.0000
      5 N2         8.8784    1.5598    9.5982 N.2       1 RES1    0.0000
      6 C1         1.1683    1.3728    5.8817 C.ar      1 RES1    0.0000
      7 C2        -0.2160    1.4575    6.3112 C.ar      1 RES1    0.0000
      8 C3        -0.6268    2.0633    7.5014 C.ar      1 RES1    0.0000
      9 H2         0.0127    2.4409    8.0609 H         1 RES1    0.0000
     10 C4        -1.9549    2.1148    7.8706 C.ar      1 RES1    0.0000
     11 H3        -2.1923    2.5226    8.6723 H         1 RES1    0.0000
     12 C5        -2.9305    1.5716    7.0702 C.ar      1 RES1    0.0000
     13 H4        -3.8248    1.6158    7.3240 H         1 RES1    0.0000
     14 C6        -2.5738    0.9658    5.8979 C.ar      1 RES1    0.0000
     15 H5        -3.2323    0.5962    5.3557 H         1 RES1    0.0000
     16 C7        -1.2277    0.8914    5.4970 C.ar      1 RES1    0.0000
     17 C8        -0.8532    0.2532    4.2799 C.ar      1 RES1    0.0000
     18 H6        -1.5173   -0.1215    3.7478 H         1 RES1    0.0000
     19 C9         0.4298    0.1730    3.8689 C.ar      1 RES1    0.0000
     20 H7         0.6276   -0.2547    3.0672 H         1 RES1    0.0000
     21 C10        1.4927    0.7332    4.6448 C.ar      1 RES1    0.0000
     22 C11        2.2037    1.8233    6.7112 C.2       1 RES1    0.0000
     23 H8         1.9844    2.2017    7.5317 H         1 RES1    0.0000
     24 C12        4.5827    2.0346    7.2159 C.ar      1 RES1    0.0000
     25 C13        4.5071    2.7589    8.3926 C.ar      1 RES1    0.0000
     26 H9         3.6916    3.1115    8.6694 H         1 RES1    0.0000
     27 C14        5.6389    2.9592    9.1568 C.ar      1 RES1    0.0000
     28 H10        5.5772    3.4575    9.9399 H         1 RES1    0.0000
     29 C15        6.8699    2.4314    8.7790 C.ar      1 RES1    0.0000
     30 C16        6.9410    1.7453    7.5735 C.ar      1 RES1    0.0000
     31 H11        7.7593    1.4155    7.2793 H         1 RES1    0.0000
     32 C17        5.8180    1.5473    6.8078 C.ar      1 RES1    0.0000
     33 H12        5.8850    1.0806    6.0060 H         1 RES1    0.0000
     34 C18        8.0543    2.5359    9.6731 C.2       1 RES1    0.0000
     35 C19        8.2124    3.6820   10.6046 C.3       1 RES1    0.0000
     36 H13        8.0786    3.3824   11.5073 H         1 RES1    0.0000
     37 H14        7.5658    4.3585   10.3927 H         1 RES1    0.0000
     38 H15        9.0963    4.0464   10.5167 H         1 RES1    0.0000
     39 H16        3.2740    0.9128    4.8452 H         1 RES1    0.0000
@<TRIPOS>BOND
     1    1   21 1
     2    2    3 1
     3    4   22 2
     4    5    2 1
     5    6    7 ar
     6    7    8 ar
     7    8    9 1
     8   10    8 ar
     9   11   10 1
    10   12   10 ar
    11   13   12 1
    12   14   12 ar
    13   15   14 1
    14   16    7 ar
    15   17   16 ar
    16   18   17 1
    17   19   17 ar
    18   20   19 1
    19   21    6 ar
    20   22    6 1
    21   23   22 1
    22   24    4 1
    23   25   24 ar
    24   26   25 1
    25   27   25 ar
    26   28   27 1
    27   29   27 ar
    28   30   29 ar
    29   31   30 1
    30   32   24 ar
    31   33   32 1
    32   34    5 2
    33   35   34 1
    34   36   35 1
    35   37   35 1
    36   38   35 1
    37   39    1 1
    38   14   16 ar
    39   19   21 ar
    40   29   34 1
    41   30   32 ar
@<TRIPOS>SUBSTRUCTURE
     1 RES1 1

@<TRIPOS>CRYSIN
  14.1712    7.3611   14.4212  90.0000  90.6650  90.0000  14 1

