# MOL2 file generated by ConQuest
# Please check atom types

@<TRIPOS>MOLECULE
VETRET
    35    38     1
SMALL
NO_CHARGES
****
Generated from CSD

@<TRIPOS>ATOM
      1 O1         0.8994    8.4121    3.3899 O.2       1 RES1    0.0000
      2 N1         2.6810   10.3711    2.0349 N.pl3     1 RES1    0.0000
      3 N2         0.8636    9.3298    4.3067 N.pl3     1 RES1    0.0000
      4 N3         3.9793   10.1570    3.9421 N.ar      1 RES1    0.0000
      5 C1         2.7850   10.8751    0.7416 C.ar      1 RES1    0.0000
      6 C2         1.7015   11.7386    0.5290 C.ar      1 RES1    0.0000
      7 C3         1.5849   12.3994   -0.6954 C.ar      1 RES1    0.0000
      8 H1         0.8608   12.9577   -0.8652 H         1 RES1    0.0000
      9 C4         2.5559   12.2100   -1.6428 C.ar      1 RES1    0.0000
     10 H2         2.4939   12.6560   -2.4563 H         1 RES1    0.0000
     11 C5         3.6311   11.3617   -1.4085 C.ar      1 RES1    0.0000
     12 H3         4.2758   11.2557   -2.0698 H         1 RES1    0.0000
     13 C6         3.7676   10.6759   -0.2269 C.ar      1 RES1    0.0000
     14 H4         4.4854   10.1029   -0.0794 H         1 RES1    0.0000
     15 C7         0.9405   11.7604    1.7396 C.2       1 RES1    0.0000
     16 H5         0.1664   12.2537    1.8903 H         1 RES1    0.0000
     17 C8         1.5440   10.9375    2.6270 C.2       1 RES1    0.0000
     18 C9         1.1448   10.6344    3.9930 C.ar      1 RES1    0.0000
     19 C10        1.0287   11.5926    4.9617 C.ar      1 RES1    0.0000
     20 H6         1.1921   12.4814    4.7424 H         1 RES1    0.0000
     21 C11        0.6788   11.2756    6.2450 C.ar      1 RES1    0.0000
     22 H7         0.5901   11.9409    6.8893 H         1 RES1    0.0000
     23 C12        0.4606    9.9581    6.5639 C.ar      1 RES1    0.0000
     24 H8         0.2522    9.7150    7.4369 H         1 RES1    0.0000
     25 C13        0.5523    9.0109    5.5895 C.ar      1 RES1    0.0000
     26 H9         0.3976    8.1201    5.8089 H         1 RES1    0.0000
     27 C14        3.6841    9.6573    2.7512 C.ar      1 RES1    0.0000
     28 C15        4.2905    8.5420    2.2162 C.ar      1 RES1    0.0000
     29 H10        4.0463    8.2196    1.3783 H         1 RES1    0.0000
     30 C16        5.2680    7.9193    2.9579 C.ar      1 RES1    0.0000
     31 H11        5.7111    7.1752    2.6209 H         1 RES1    0.0000
     32 C17        5.5801    8.4087    4.1987 C.ar      1 RES1    0.0000
     33 H12        6.2315    7.9997    4.7217 H         1 RES1    0.0000
     34 C18        4.9125    9.5124    4.6505 C.ar      1 RES1    0.0000
     35 H13        5.1190    9.8332    5.4983 H         1 RES1    0.0000
@<TRIPOS>BOND
     1    1    3 1
     2    2    5 1
     3    3   18 ar
     4    4   27 ar
     5    5    6 ar
     6    6    7 ar
     7    7    8 1
     8    9    7 ar
     9   10    9 1
    10   11    9 ar
    11   12   11 1
    12   13    5 ar
    13   14   13 1
    14   15    6 1
    15   16   15 1
    16   17    2 1
    17   18   17 1
    18   19   18 ar
    19   20   19 1
    20   21   19 ar
    21   22   21 1
    22   23   21 ar
    23   24   23 1
    24   25    3 ar
    25   26   25 1
    26   27    2 1
    27   28   27 ar
    28   29   28 1
    29   30   28 ar
    30   31   30 1
    31   32   30 ar
    32   33   32 1
    33   34    4 ar
    34   35   34 1
    35   11   13 ar
    36   15   17 2
    37   23   25 ar
    38   32   34 ar
@<TRIPOS>SUBSTRUCTURE
     1 RES1 1

@<TRIPOS>CRYSIN
  11.0433   11.0523   11.6809  90.0000  99.9520  90.0000  14 1

