# MOL2 file generated by ConQuest
# Please check atom types

@<TRIPOS>MOLECULE
VETYUP
    67    71     1
SMALL
NO_CHARGES
****
Generated from CSD

@<TRIPOS>ATOM
      1 O1         6.5422    4.7283   -0.1331 O.3       1 RES1    0.0000
      2 O2         5.3486    1.8539   -1.7931 O.2       1 RES1    0.0000
      3 O3         4.4601    2.9169   -0.0661 O.3       1 RES1    0.0000
      4 N1         7.6033    3.9799    0.4718 N.3       1 RES1    0.0000
      5 N2         8.9931    3.0190    3.5998 N.2       1 RES1    0.0000
      6 C1         7.3270    3.6086    1.9108 C.3       1 RES1    0.0000
      7 C2         8.7702    3.5859    2.4859 C.2       1 RES1    0.0000
      8 C3         9.6105    4.3371    1.5495 C.ar      1 RES1    0.0000
      9 C4        10.9202    4.8162    1.6554 C.ar      1 RES1    0.0000
     10 C5        11.3937    5.6666    0.6810 C.ar      1 RES1    0.0000
     11 C6        10.5853    6.0578   -0.3686 C.ar      1 RES1    0.0000
     12 C7         9.2869    5.5730   -0.5044 C.ar      1 RES1    0.0000
     13 C8         8.8288    4.6858    0.4537 C.ar      1 RES1    0.0000
     14 C9         6.0379    4.1131   -1.3566 C.3       1 RES1    0.0000
     15 C10        5.2788    2.8234   -1.0976 C.2       1 RES1    0.0000
     16 C11        3.6589    1.7462    0.3106 C.3       1 RES1    0.0000
     17 C12        2.3143    1.8737   -0.0516 C.3       1 RES1    0.0000
     18 C13       10.3213    2.9084    4.0861 C.ar      1 RES1    0.0000
     19 C14       11.1729    1.9701    3.5617 C.ar      1 RES1    0.0000
     20 C15       12.4661    1.8397    4.0707 C.ar      1 RES1    0.0000
     21 C16       12.8811    2.6419    5.0958 C.ar      1 RES1    0.0000
     22 C17       12.0213    3.5547    5.6455 C.ar      1 RES1    0.0000
     23 C18       10.7332    3.6823    5.1556 C.ar      1 RES1    0.0000
     24 C19        6.5063    4.7028    2.6000 C.ar      1 RES1    0.0000
     25 C20        7.1082    5.7771    3.2167 C.ar      1 RES1    0.0000
     26 C21        6.3697    6.7834    3.8153 C.ar      1 RES1    0.0000
     27 C22        4.9973    6.7296    3.8035 C.ar      1 RES1    0.0000
     28 C23        4.3790    5.6836    3.1805 C.ar      1 RES1    0.0000
     29 C24        5.1165    4.6801    2.5764 C.ar      1 RES1    0.0000
     30 C25        6.7713    2.1912    2.0385 C.ar      1 RES1    0.0000
     31 C26        6.1231    1.7972    3.2113 C.ar      1 RES1    0.0000
     32 C27        5.7523    0.4677    3.3842 C.ar      1 RES1    0.0000
     33 C28        6.0307   -0.4649    2.4170 C.ar      1 RES1    0.0000
     34 C29        6.6973   -0.0879    1.2724 C.ar      1 RES1    0.0000
     35 C30        7.0795    1.2331    1.0912 C.ar      1 RES1    0.0000
     36 C31        7.1380    3.8750   -2.3754 C.3       1 RES1    0.0000
     37 C32        5.0353    5.1563   -1.8411 C.3       1 RES1    0.0000
     38 H1        11.4605    4.5667    2.3700 H         1 RES1    0.0000
     39 H2        12.2678    5.9784    0.7290 H         1 RES1    0.0000
     40 H3        10.9150    6.6559   -0.9980 H         1 RES1    0.0000
     41 H4         8.7466    5.8366   -1.2135 H         1 RES1    0.0000
     42 H5         4.0297    0.9581   -0.1168 H         1 RES1    0.0000
     43 H6         3.7174    1.6186    1.2706 H         1 RES1    0.0000
     44 H7         1.8356    1.0857    0.2164 H         1 RES1    0.0000
     45 H8         2.2485    1.9815   -1.0034 H         1 RES1    0.0000
     46 H9         1.9373    2.6419    0.3840 H         1 RES1    0.0000
     47 H10       10.8893    1.4174    2.8680 H         1 RES1    0.0000
     48 H11       13.0454    1.2104    3.7111 H         1 RES1    0.0000
     49 H12       13.7491    2.5654    5.4218 H         1 RES1    0.0000
     50 H13       12.3048    4.0933    6.3492 H         1 RES1    0.0000
     51 H14       10.1436    4.2861    5.5468 H         1 RES1    0.0000
     52 H15        8.0368    5.8281    3.2312 H         1 RES1    0.0000
     53 H16        6.8031    7.4978    4.2264 H         1 RES1    0.0000
     54 H17        4.4971    7.3957    4.2147 H         1 RES1    0.0000
     55 H18        3.4493    5.6439    3.1614 H         1 RES1    0.0000
     56 H19        4.6768    3.9828    2.1481 H         1 RES1    0.0000
     57 H20        5.9393    2.4208    3.8751 H         1 RES1    0.0000
     58 H21        5.3137    0.2098    4.1621 H         1 RES1    0.0000
     59 H22        5.7688   -1.3493    2.5339 H         1 RES1    0.0000
     60 H23        6.8915   -0.7200    0.6194 H         1 RES1    0.0000
     61 H24        7.5479    1.4769    0.3251 H         1 RES1    0.0000
     62 H25        7.6116    4.6971   -2.5321 H         1 RES1    0.0000
     63 H26        6.7497    3.5689   -3.1977 H         1 RES1    0.0000
     64 H27        7.7461    3.2145   -2.0403 H         1 RES1    0.0000
     65 H28        4.3553    5.2810   -1.1746 H         1 RES1    0.0000
     66 H29        4.6296    4.8558   -2.6579 H         1 RES1    0.0000
     67 H30        5.4883    5.9897   -1.9968 H         1 RES1    0.0000
@<TRIPOS>BOND
     1    1    4 1
     2    2   15 2
     3    3   15 1
     4    4    6 1
     5    5    7 2
     6    6    7 1
     7    7    8 1
     8    8    9 ar
     9    9   10 ar
    10   10   11 ar
    11   11   12 ar
    12   12   13 ar
    13   13    4 1
    14   14    1 1
    15   15   14 1
    16   16    3 1
    17   17   16 1
    18   18    5 1
    19   19   18 ar
    20   20   19 ar
    21   21   20 ar
    22   22   21 ar
    23   23   18 ar
    24   24    6 1
    25   25   24 ar
    26   26   25 ar
    27   27   26 ar
    28   28   27 ar
    29   29   24 ar
    30   30    6 1
    31   31   30 ar
    32   32   31 ar
    33   33   32 ar
    34   34   33 ar
    35   35   30 ar
    36   36   14 1
    37   37   14 1
    38   38    9 1
    39   39   10 1
    40   40   11 1
    41   41   12 1
    42   42   16 1
    43   43   16 1
    44   44   17 1
    45   45   17 1
    46   46   17 1
    47   47   19 1
    48   48   20 1
    49   49   21 1
    50   50   22 1
    51   51   23 1
    52   52   25 1
    53   53   26 1
    54   54   27 1
    55   55   28 1
    56   56   29 1
    57   57   31 1
    58   58   32 1
    59   59   33 1
    60   60   34 1
    61   61   35 1
    62   62   36 1
    63   63   36 1
    64   64   36 1
    65   65   37 1
    66   66   37 1
    67   67   37 1
    68    8   13 ar
    69   22   23 ar
    70   28   29 ar
    71   34   35 ar
@<TRIPOS>SUBSTRUCTURE
     1 RES1 1

@<TRIPOS>CRYSIN
  10.2720   28.3470    9.0560  90.0000  90.0000  90.0000  19 1

