# MOL2 file generated by ConQuest
# Please check atom types

@<TRIPOS>MOLECULE
VEVCUV
    72    74     2
SMALL
NO_CHARGES
****
Generated from CSD

@<TRIPOS>ATOM
      1 C1         0.0974    2.1514   11.4571 C.ar      1 RES1    0.0000
      2 C2         0.8738    1.2392   12.1753 C.ar      1 RES1    0.0000
      3 N1         1.0315   -0.1388   11.6896 N.pl3     1 RES1    0.0000
      4 O1         0.0986   -0.6541   11.0820 O.2       1 RES1    0.0000
      5 O2         2.0916   -0.7207   11.9398 O.2       1 RES1    0.0000
      6 C3         1.5195    1.5563   13.3650 C.ar      1 RES1    0.0000
      7 H1         2.0551    0.9101   13.8096 H         1 RES1    0.0000
      8 C4         1.3711    2.8264   13.8941 C.ar      1 RES1    0.0000
      9 H2         1.7958    3.0604   14.7117 H         1 RES1    0.0000
     10 C5         0.5930    3.7565   13.2146 C.ar      1 RES1    0.0000
     11 H3         0.4801    4.6276   13.5757 H         1 RES1    0.0000
     12 C6        -0.0229    3.4272   12.0119 C.ar      1 RES1    0.0000
     13 H4        -0.5363    4.0850   11.5573 H         1 RES1    0.0000
     14 C7        -0.6091    1.8698   10.1636 C.3       1 RES1    0.0000
     15 C8         0.1257    1.4164    8.8870 C.3       1 RES1    0.0000
     16 H5        -0.3933    0.8174    8.2782 H         1 RES1    0.0000
     17 C9        -0.3830    2.8176    9.0060 C.3       1 RES1    0.0000
     18 H6        -1.1682    3.0685    8.4589 H         1 RES1    0.0000
     19 H7         0.2838    3.5395    9.1270 H         1 RES1    0.0000
     20 C10       -1.9932    1.2995   10.2444 C.2       1 RES1    0.0000
     21 O3        -2.6379    0.9590    9.2835 O.2       1 RES1    0.0000
     22 O4        -2.4413    1.2390   11.5080 O.3       1 RES1    0.0000
     23 C11       -3.7625    0.6677   11.6445 C.3       1 RES1    0.0000
     24 H8        -3.7319   -0.2842   11.4144 H         1 RES1    0.0000
     25 H9        -4.3820    1.1298   11.0418 H         1 RES1    0.0000
     26 H10       -4.0686    0.7700   12.5700 H         1 RES1    0.0000
     27 C12        1.5786    1.1391    8.9777 C.2       1 RES1    0.0000
     28 O5         2.3823    1.8291    9.5688 O.2       1 RES1    0.0000
     29 O6         1.8789   -0.0047    8.3492 O.3       1 RES1    0.0000
     30 C13        3.2648   -0.4533    8.4813 C.3       1 RES1    0.0000
     31 H11        3.4752   -0.6386    9.4310 H         1 RES1    0.0000
     32 H12        3.8833    0.2468    8.1535 H         1 RES1    0.0000
     33 C14        3.4167   -1.7008    7.6653 C.3       1 RES1    0.0000
     34 H13        3.2696   -1.4918    6.7192 H         1 RES1    0.0000
     35 H14        2.7592   -2.3655    7.9588 H         1 RES1    0.0000
     36 H15        4.3207   -2.0606    7.7838 H         1 RES1    0.0000
     37 C15        4.4360    6.7330    2.4977 C.ar      2 RES2    0.0000
     38 C16        3.6425    5.7423    1.8984 C.ar      2 RES2    0.0000
     39 N2         3.4971    4.4238    2.5241 N.pl3     2 RES2    0.0000
     40 O7         4.4098    4.0017    3.2270 O.2       2 RES2    0.0000
     41 O8         2.4634    3.7916    2.2889 O.2       2 RES2    0.0000
     42 C17        2.9805    5.9302    0.6927 C.ar      2 RES2    0.0000
     43 H16        2.4382    5.2401    0.3292 H         2 RES2    0.0000
     44 C18        3.1208    7.1390    0.0247 C.ar      2 RES2    0.0000
     45 H17        2.6809    7.2832   -0.8054 H         2 RES2    0.0000
     46 C19        3.9107    8.1349    0.5816 C.ar      2 RES2    0.0000
     47 H18        4.0184    8.9609    0.1247 H         2 RES2    0.0000
     48 C20        4.5449    7.9339    1.7995 C.ar      2 RES2    0.0000
     49 H19        5.0683    8.6351    2.1683 H         2 RES2    0.0000
     50 C21        5.1468    6.6102    3.8123 C.3       2 RES2    0.0000
     51 C22        4.4157    6.3495    5.1378 C.3       2 RES2    0.0000
     52 H20        4.9310    5.8277    5.8186 H         2 RES2    0.0000
     53 C23        4.9492    7.7132    4.8334 C.3       2 RES2    0.0000
     54 H21        5.7433    8.0184    5.3381 H         2 RES2    0.0000
     55 H22        4.2946    8.4251    4.6195 H         2 RES2    0.0000
     56 C24        6.5243    6.0126    3.8106 C.2       2 RES2    0.0000
     57 O9         7.1651    5.8062    4.8130 O.2       2 RES2    0.0000
     58 O10        6.9715    5.7633    2.5714 O.3       2 RES2    0.0000
     59 C25        8.2873    5.1481    2.5249 C.3       2 RES2    0.0000
     60 H23        8.2499    4.2632    2.9457 H         2 RES2    0.0000
     61 H24        8.9284    5.7117    3.0059 H         2 RES2    0.0000
     62 H25        8.5714    5.0539    1.5912 H         2 RES2    0.0000
     63 C26        2.9489    6.1112    5.1256 C.2       2 RES2    0.0000
     64 O11        2.1530    6.6829    4.4115 O.2       2 RES2    0.0000
     65 O12        2.6449    5.1660    6.0179 O.3       2 RES2    0.0000
     66 C27        1.2515    4.7416    6.1343 C.3       2 RES2    0.0000
     67 H26        0.6796    5.2889    5.5398 H         2 RES2    0.0000
     68 H27        0.9378    4.8611    7.0652 H         2 RES2    0.0000
     69 C28        1.1605    3.2958    5.7439 C.3       2 RES2    0.0000
     70 H28        1.7532    2.7656    6.3158 H         2 RES2    0.0000
     71 H29        1.4321    3.1924    4.8072 H         2 RES2    0.0000
     72 H30        0.2371    2.9856    5.8522 H         2 RES2    0.0000
@<TRIPOS>BOND
     1    1    2 ar
     2    2    3 1
     3    3    4 2
     4    5    3 2
     5    6    2 ar
     6    7    6 1
     7    8    6 ar
     8    9    8 1
     9   10    8 ar
    10   11   10 1
    11   12    1 ar
    12   13   12 1
    13   14    1 1
    14   15   14 1
    15   16   15 1
    16   17   14 1
    17   18   17 1
    18   19   17 1
    19   20   14 1
    20   21   20 2
    21   22   20 1
    22   23   22 1
    23   24   23 1
    24   25   23 1
    25   26   23 1
    26   27   15 1
    27   28   27 2
    28   29   27 1
    29   30   29 1
    30   31   30 1
    31   32   30 1
    32   33   30 1
    33   34   33 1
    34   35   33 1
    35   36   33 1
    36   37   38 ar
    37   38   39 1
    38   39   40 2
    39   41   39 2
    40   42   38 ar
    41   43   42 1
    42   44   42 ar
    43   45   44 1
    44   46   44 ar
    45   47   46 1
    46   48   37 ar
    47   49   48 1
    48   50   37 1
    49   51   50 1
    50   52   51 1
    51   53   50 1
    52   54   53 1
    53   55   53 1
    54   56   50 1
    55   57   56 2
    56   58   56 1
    57   59   58 1
    58   60   59 1
    59   61   59 1
    60   62   59 1
    61   63   51 1
    62   64   63 2
    63   65   63 1
    64   66   65 1
    65   67   66 1
    66   68   66 1
    67   69   66 1
    68   70   69 1
    69   71   69 1
    70   72   69 1
    71   10   12 ar
    72   15   17 1
    73   46   48 ar
    74   51   53 1
@<TRIPOS>SUBSTRUCTURE
     1 RES1 1
     2 RES2 37

@<TRIPOS>CRYSIN
   8.7520   11.1170   14.0460  85.7400  89.7500  89.2000   2 1

