# MOL2 file generated by ConQuest
# Please check atom types

@<TRIPOS>MOLECULE
VEVDIK
    41    43     1
SMALL
NO_CHARGES
****
Generated from CSD

@<TRIPOS>ATOM
      1 C1         0.2480   21.1701    8.1685 C.ar      1 RES1    0.0000
      2 C2         0.2842   22.2120    7.2419 C.ar      1 RES1    0.0000
      3 N1        -0.9625   22.7094    6.6445 N.pl3     1 RES1    0.0000
      4 O1        -1.9876   22.6988    7.3182 O.2       1 RES1    0.0000
      5 O2        -0.9105   23.1519    5.4942 O.2       1 RES1    0.0000
      6 C3         1.4571   22.8504    6.8758 C.ar      1 RES1    0.0000
      7 H1         1.4471   23.5381    6.2198 H         1 RES1    0.0000
      8 C4         2.6406   22.4751    7.4739 C.ar      1 RES1    0.0000
      9 H2         3.4533   22.9004    7.2285 H         1 RES1    0.0000
     10 C5         2.6439   21.4726    8.4374 C.ar      1 RES1    0.0000
     11 H3         3.4559   21.2261    8.8647 H         1 RES1    0.0000
     12 C6         1.4612   20.8331    8.7750 C.ar      1 RES1    0.0000
     13 H4         1.4758   20.1492    9.4344 H         1 RES1    0.0000
     14 C7        -0.9897   20.3917    8.5044 C.3       1 RES1    0.0000
     15 C8        -0.9769   18.8593    8.3084 C.3       1 RES1    0.0000
     16 H5        -1.4660   18.3189    8.9929 H         1 RES1    0.0000
     17 C9        -1.8100   19.7236    7.4304 C.3       1 RES1    0.0000
     18 H6        -2.7911   19.6934    7.5560 H         1 RES1    0.0000
     19 H7        -1.5170   19.8398    6.4921 H         1 RES1    0.0000
     20 C10        0.2607   18.2547    7.7546 C.2       1 RES1    0.0000
     21 O3         0.7161   18.6059    6.6603 O.2       1 RES1    0.0000
     22 N2         0.8277   17.3398    8.5631 N.am      1 RES1    0.0000
     23 H8         0.4062   17.1759    9.3188 H         1 RES1    0.0000
     24 C11        2.0232   16.6082    8.3411 C.ar      1 RES1    0.0000
     25 C12        2.1045   15.3294    8.8605 C.ar      1 RES1    0.0000
     26 H9         1.3736   14.9725    9.3523 H         1 RES1    0.0000
     27 C13        3.2446   14.5666    8.6686 C.ar      1 RES1    0.0000
     28 H10        3.2942   13.6878    9.0280 H         1 RES1    0.0000
     29 C14        4.3120   15.0824    7.9532 C.ar      1 RES1    0.0000
     30 H11        5.0853   14.5522    7.7973 H         1 RES1    0.0000
     31 C15        4.2460   16.3723    7.4672 C.ar      1 RES1    0.0000
     32 H12        4.9890   16.7343    6.9972 H         1 RES1    0.0000
     33 C16        3.1118   17.1497    7.6541 C.ar      1 RES1    0.0000
     34 H13        3.0766   18.0379    7.3190 H         1 RES1    0.0000
     35 C17       -1.7560   20.7908    9.7351 C.2       1 RES1    0.0000
     36 O4        -2.7874   20.2739   10.0778 O.2       1 RES1    0.0000
     37 O5        -1.1525   21.7749   10.4038 O.3       1 RES1    0.0000
     38 C18       -1.8569   22.2189   11.5909 C.3       1 RES1    0.0000
     39 H14       -2.0083   21.4551   12.1865 H         1 RES1    0.0000
     40 H15       -2.7192   22.6076   11.3337 H         1 RES1    0.0000
     41 H16       -1.3198   22.8934   12.0558 H         1 RES1    0.0000
@<TRIPOS>BOND
     1    1    2 ar
     2    2    3 1
     3    3    4 2
     4    5    3 2
     5    6    2 ar
     6    7    6 1
     7    8    6 ar
     8    9    8 1
     9   10    8 ar
    10   11   10 1
    11   12    1 ar
    12   13   12 1
    13   14    1 1
    14   15   14 1
    15   16   15 1
    16   17   14 1
    17   18   17 1
    18   19   17 1
    19   20   15 1
    20   21   20 2
    21   22   20 1
    22   23   22 1
    23   24   22 1
    24   25   24 ar
    25   26   25 1
    26   27   25 ar
    27   28   27 1
    28   29   27 ar
    29   30   29 1
    30   31   29 ar
    31   32   31 1
    32   33   24 ar
    33   34   33 1
    34   35   14 1
    35   36   35 2
    36   37   35 1
    37   38   37 1
    38   39   38 1
    39   40   38 1
    40   41   38 1
    41   10   12 ar
    42   15   17 1
    43   31   33 ar
@<TRIPOS>SUBSTRUCTURE
     1 RES1 1

@<TRIPOS>CRYSIN
   8.1790   23.6160    8.8730  90.0000 109.2300  90.0000  14 1

