# MOL2 file generated by ConQuest
# Please check atom types

@<TRIPOS>MOLECULE
VEVJIQ
    22    23     1
SMALL
NO_CHARGES
****
Generated from CSD

@<TRIPOS>ATOM
      1 O1         4.8850    2.3708    4.4056 O.3       1 RES1    0.0000
      2 H1         4.1499    2.3708    4.0431 H         1 RES1    0.0000
      3 N1         4.7179    2.3708    5.8047 N.2       1 RES1    0.0000
      4 C1         6.0092    2.3708    7.8563 C.3       1 RES1    0.0000
      5 H2         5.1310    2.3708    8.2926 H         1 RES1    0.0000
      6 N2         8.2992    2.3708    6.6538 N.3       1 RES1    0.0000
      7 C2         8.1710    3.5675    7.5056 C.3       1 RES1    0.0000
      8 H3         8.2610    4.3622    6.9556 H         1 RES1    0.0000
      9 H4         8.8884    3.5741    8.1574 H         1 RES1    0.0000
     10 C3         7.2000    2.3708    5.6649 C.3       1 RES1    0.0000
     11 H5         7.2705    1.5856    5.1006 H         1 RES1    0.0000
     12 H6         7.2705    3.1559    5.1006 H         1 RES1    0.0000
     13 C4         6.8139    3.6104    8.2424 C.3       1 RES1    0.0000
     14 H7         6.9580    3.6263    9.2012 H         1 RES1    0.0000
     15 H8         6.3271    4.4115    7.9935 H         1 RES1    0.0000
     16 C5         5.8700    2.3708    6.3658 C.2       1 RES1    0.0000
     17 C2G        8.1710    1.1740    7.5056 C.3       1 RES1    0.0000
     18 H3G        8.2610    0.3793    6.9556 H         1 RES1    0.0000
     19 H4G        8.8884    1.1674    8.1574 H         1 RES1    0.0000
     20 C4G        6.8139    1.1311    8.2424 C.3       1 RES1    0.0000
     21 H7G        6.9580    1.1152    9.2012 H         1 RES1    0.0000
     22 H8G        6.3271    0.3300    7.9935 H         1 RES1    0.0000
@<TRIPOS>BOND
     1    1    2 1
     2    3    1 1
     3    4    5 1
     4    6    7 1
     5    7    8 1
     6    9    7 1
     7   10    6 1
     8   11   10 1
     9   12   10 1
    10   13    4 1
    11   14   13 1
    12   15   13 1
    13   16    3 2
    14   17    6 1
    15   18   17 1
    16   19   17 1
    17   20    4 1
    18   21   20 1
    19   22   20 1
    20    4   16 1
    21    7   13 1
    22   10   16 1
    23   17   20 1
@<TRIPOS>SUBSTRUCTURE
     1 RES1 1

@<TRIPOS>CRYSIN
  11.7494    9.4830    6.5317  90.0000  90.0000  90.0000  62 1

