# MOL2 file generated by ConQuest
# Please check atom types

@<TRIPOS>MOLECULE
VEVJOW
    32    32     2
SMALL
NO_CHARGES
****
Generated from CSD

@<TRIPOS>ATOM
      1 O1         4.2059    4.5724   -0.3838 O.3       1 RES1    0.0000
      2 N1         4.0760    3.9657    0.8546 N.2       1 RES1    0.0000
      3 C1         2.9448    4.2095    1.3706 C.2       1 RES1    0.0000
      4 C2         4.5061    2.2318    3.2447 C.3       1 RES1    0.0000
      5 H1         4.7335    1.6809    3.9962 H         1 RES1    0.0000
      6 H2         5.1722    2.9150    3.1359 H         1 RES1    0.0000
      7 H3         4.4689    1.6926    2.4510 H         1 RES1    0.0000
      8 N2         3.2033    2.8533    3.4717 N.pl3     1 RES1    0.0000
      9 C3         2.5281    3.6977    2.6522 C.2       1 RES1    0.0000
     10 N3         1.3627    4.0430    3.1733 N.2       1 RES1    0.0000
     11 C4         1.3002    3.3871    4.3695 C.2       1 RES1    0.0000
     12 C5         2.4121    2.6561    4.5667 C.2       1 RES1    0.0000
     13 O2        -0.5441    5.6486    2.0774 O.3       2 RES2    0.0000
     14 N4         0.1223    6.3214    1.0541 N.2       2 RES2    0.0000
     15 C6        -0.6403    7.1528    0.4760 C.2       2 RES2    0.0000
     16 C7         2.1810    7.2277   -0.8638 C.3       2 RES2    0.0000
     17 H4         2.9019    7.4584   -1.4541 H         2 RES2    0.0000
     18 H5         1.9916    6.2904   -0.9396 H         2 RES2    0.0000
     19 H6         2.4314    7.4321    0.0405 H         2 RES2    0.0000
     20 N5         0.9938    7.9938   -1.2245 N.pl3     2 RES2    0.0000
     21 C8        -0.2256    7.9642   -0.6383 C.2       2 RES2    0.0000
     22 N6        -1.0628    8.7968   -1.2427 N.2       2 RES2    0.0000
     23 C9        -0.3442    9.3631   -2.2493 C.2       2 RES2    0.0000
     24 C10        0.9192    8.8804   -2.2462 C.2       2 RES2    0.0000
     25 H7         5.0827    4.3312   -0.7186 H         1 RES1    0.0000
     26 H8         0.5232    3.5039    4.9239 H         1 RES1    0.0000
     27 H9         2.7122    2.1510    5.3136 H         1 RES1    0.0000
     28 H10        2.3304    4.7984    0.8940 H         1 RES1    0.0000
     29 H11        0.1182    5.1293    2.4375 H         2 RES2    0.0000
     30 H12       -0.7509    9.9861   -2.8508 H         2 RES2    0.0000
     31 H13        1.7408    9.0809   -2.8002 H         2 RES2    0.0000
     32 H14       -1.5143    7.2608    0.7827 H         2 RES2    0.0000
@<TRIPOS>BOND
     1    1    2 1
     2    2    3 2
     3    3    9 1
     4    4    5 1
     5    6    4 1
     6    7    4 1
     7    8    4 1
     8    9    8 1
     9   10    9 2
    10   11   10 1
    11   12    8 1
    12   13   14 1
    13   14   15 2
    14   15   21 1
    15   16   17 1
    16   18   16 1
    17   19   16 1
    18   20   16 1
    19   21   20 1
    20   22   21 2
    21   23   22 1
    22   24   20 1
    23   25    1 1
    24   26   11 1
    25   27   12 1
    26   28    3 1
    27   29   13 1
    28   30   23 1
    29   31   24 1
    30   32   15 1
    31   11   12 2
    32   23   24 2
@<TRIPOS>SUBSTRUCTURE
     1 RES1 1
     2 RES2 13

@<TRIPOS>CRYSIN
  15.5320    9.7330   17.7600  90.0000 108.2300  90.0000  15 1

