# MOL2 file generated by ConQuest
# Please check atom types

@<TRIPOS>MOLECULE
VEVPOE
    81    85     1
SMALL
NO_CHARGES
****
Generated from CSD

@<TRIPOS>ATOM
      1 O1         9.1754   -0.8778   18.3048 O.2       1 RES1    0.0000
      2 O2         5.7426   -0.5808   10.3997 O.2       1 RES1    0.0000
      3 O3         2.7250    0.3418   11.8193 O.3       1 RES1    0.0000
      4 N1         1.6392   -0.6042   12.0502 N.3       1 RES1    0.0000
      5 C1         8.3925   -0.7731   14.7882 C.3       1 RES1    0.0000
      6 H1         7.5773   -1.3093   14.9546 H         1 RES1    0.0000
      7 H2         8.8060   -1.1046   13.9518 H         1 RES1    0.0000
      8 C2         9.3688   -0.9880   15.9405 C.3       1 RES1    0.0000
      9 H3         9.5266   -1.9577   16.0591 H         1 RES1    0.0000
     10 H4        10.2345   -0.5627   15.7193 H         1 RES1    0.0000
     11 C3         8.8494   -0.4124   17.2204 C.2       1 RES1    0.0000
     12 C4         7.9939    0.7583   17.1020 C.2       1 RES1    0.0000
     13 H5         7.6708    1.1586   17.9010 H         1 RES1    0.0000
     14 C5         7.6345    1.3051   15.9372 C.2       1 RES1    0.0000
     15 C6         6.9160    2.6221   15.9083 C.3       1 RES1    0.0000
     16 H6         7.5633    3.3319   15.6692 H         1 RES1    0.0000
     17 H7         6.5773    2.8190   16.8177 H         1 RES1    0.0000
     18 C7         5.7498    2.6735   14.9305 C.3       1 RES1    0.0000
     19 H8         5.4194    3.6043   14.8636 H         1 RES1    0.0000
     20 H9         5.0111    2.1097   15.2717 H         1 RES1    0.0000
     21 C8         6.1603    2.1826   13.5420 C.3       1 RES1    0.0000
     22 H10        6.8567    2.7927   13.1644 H         1 RES1    0.0000
     23 C9         6.7369    0.7641   13.6689 C.3       1 RES1    0.0000
     24 H11        6.0299    0.2198   14.1202 H         1 RES1    0.0000
     25 C10        7.9927    0.6906   14.5967 C.3       1 RES1    0.0000
     26 C11        6.9848    0.0904   12.3034 C.3       1 RES1    0.0000
     27 H12        7.8490    0.4217   11.9522 H         1 RES1    0.0000
     28 H13        7.0842   -0.8821   12.4574 H         1 RES1    0.0000
     29 C12        5.9348    0.2876   11.2220 C.2       1 RES1    0.0000
     30 C13        5.2974    1.6571   11.1733 C.3       1 RES1    0.0000
     31 C14        4.9644    2.1339   12.6015 C.3       1 RES1    0.0000
     32 H14        4.3284    1.4641   12.9839 H         1 RES1    0.0000
     33 C15        4.1628    3.4143   12.3729 C.3       1 RES1    0.0000
     34 H15        4.7645    4.1932   12.2662 H         1 RES1    0.0000
     35 H16        3.5472    3.5849   13.1295 H         1 RES1    0.0000
     36 C16        3.3770    3.1443   11.0725 C.3       1 RES1    0.0000
     37 H17        3.4776    3.9070   10.4487 H         1 RES1    0.0000
     38 H18        2.4145    3.0305   11.2740 H         1 RES1    0.0000
     39 C17        3.9441    1.8480   10.4268 C.3       1 RES1    0.0000
     40 H19        4.1578    2.0600    9.4731 H         1 RES1    0.0000
     41 C18        6.3500    2.5658   10.4834 C.3       1 RES1    0.0000
     42 H20        6.4800    2.2715    9.5581 H         1 RES1    0.0000
     43 H21        7.2005    2.5065   10.9675 H         1 RES1    0.0000
     44 H22        6.0350    3.4937   10.4896 H         1 RES1    0.0000
     45 C19        9.1820    1.4935   14.0246 C.3       1 RES1    0.0000
     46 H23        9.9437    1.4323   14.6391 H         1 RES1    0.0000
     47 H24        8.9223    2.4319   13.9199 H         1 RES1    0.0000
     48 H25        9.4355    1.1254   13.1523 H         1 RES1    0.0000
     49 C20        2.9706    0.6610   10.4218 C.3       1 RES1    0.0000
     50 H26        3.4321   -0.1189    9.9996 H         1 RES1    0.0000
     51 C21        1.7082    0.9567    9.6235 C.3       1 RES1    0.0000
     52 H27        1.2679    1.7517    9.9905 H         1 RES1    0.0000
     53 H28        1.0998    0.1908    9.6795 H         1 RES1    0.0000
     54 H29        1.9442    1.1171    8.6857 H         1 RES1    0.0000
     55 C22        0.8383    0.0071   13.1591 C.3       1 RES1    0.0000
     56 C23       -0.2537   -0.9996   13.5473 C.3       1 RES1    0.0000
     57 H30       -0.7421   -0.6512   14.3341 H         1 RES1    0.0000
     58 H31       -0.9001   -1.0728   12.8003 H         1 RES1    0.0000
     59 C24        0.2731   -2.3799   13.8720 C.3       1 RES1    0.0000
     60 H32       -0.4804   -2.9946   14.0595 H         1 RES1    0.0000
     61 H33        0.8533   -2.3420   14.6725 H         1 RES1    0.0000
     62 C25        1.0639   -2.8761   12.6783 C.3       1 RES1    0.0000
     63 H34        0.4526   -2.9641   11.9052 H         1 RES1    0.0000
     64 H35        1.4209   -3.7757   12.8837 H         1 RES1    0.0000
     65 C26        2.2273   -1.9622   12.2857 C.3       1 RES1    0.0000
     66 C27        0.1468    1.2382   12.5927 C.3       1 RES1    0.0000
     67 H36       -0.3451    0.9927   11.7807 H         1 RES1    0.0000
     68 H37        0.8179    1.9190   12.3740 H         1 RES1    0.0000
     69 H38       -0.4778    1.5968   13.2569 H         1 RES1    0.0000
     70 C28        1.6387    0.4313   14.4030 C.3       1 RES1    0.0000
     71 H39        2.3993    0.9857   14.1293 H         1 RES1    0.0000
     72 H40        1.9670   -0.3664   14.8682 H         1 RES1    0.0000
     73 H41        1.0593    0.9443   15.0047 H         1 RES1    0.0000
     74 C29        2.7798   -2.4818   10.9560 C.3       1 RES1    0.0000
     75 H42        3.6382   -2.0475   10.7673 H         1 RES1    0.0000
     76 H43        2.1465   -2.2784   10.2363 H         1 RES1    0.0000
     77 H44        2.9101   -3.4522   11.0131 H         1 RES1    0.0000
     78 C30        3.3617   -2.0229   13.3158 C.3       1 RES1    0.0000
     79 H45        2.9834   -1.9991   14.2203 H         1 RES1    0.0000
     80 H46        3.9580   -1.2553   13.1917 H         1 RES1    0.0000
     81 H47        3.8683   -2.8522   13.1947 H         1 RES1    0.0000
@<TRIPOS>BOND
     1    1   11 2
     2    2   29 2
     3    3    4 1
     4    4   55 1
     5    5    6 1
     6    7    5 1
     7    8    5 1
     8    9    8 1
     9   10    8 1
    10   11    8 1
    11   12   11 1
    12   13   12 1
    13   14   12 2
    14   15   14 1
    15   16   15 1
    16   17   15 1
    17   18   15 1
    18   19   18 1
    19   20   18 1
    20   21   18 1
    21   22   21 1
    22   23   21 1
    23   24   23 1
    24   25    5 1
    25   26   23 1
    26   27   26 1
    27   28   26 1
    28   29   26 1
    29   30   29 1
    30   31   21 1
    31   32   31 1
    32   33   31 1
    33   34   33 1
    34   35   33 1
    35   36   33 1
    36   37   36 1
    37   38   36 1
    38   39   30 1
    39   40   39 1
    40   41   30 1
    41   42   41 1
    42   43   41 1
    43   44   41 1
    44   45   25 1
    45   46   45 1
    46   47   45 1
    47   48   45 1
    48   49    3 1
    49   50   49 1
    50   51   49 1
    51   52   51 1
    52   53   51 1
    53   54   51 1
    54   55   56 1
    55   56   57 1
    56   58   56 1
    57   59   56 1
    58   60   59 1
    59   61   59 1
    60   62   59 1
    61   63   62 1
    62   64   62 1
    63   65    4 1
    64   66   55 1
    65   67   66 1
    66   68   66 1
    67   69   66 1
    68   70   55 1
    69   71   70 1
    70   72   70 1
    71   73   70 1
    72   74   65 1
    73   75   74 1
    74   76   74 1
    75   77   74 1
    76   78   65 1
    77   79   78 1
    78   80   78 1
    79   81   78 1
    80   14   25 1
    81   23   25 1
    82   30   31 1
    83   36   39 1
    84   39   49 1
    85   62   65 1
@<TRIPOS>SUBSTRUCTURE
     1 RES1 1

@<TRIPOS>CRYSIN
  12.6414   13.8253   15.1716  90.0000  90.0000  90.0000  19 1

