# MOL2 file generated by ConQuest
# Please check atom types

@<TRIPOS>MOLECULE
VEWXED
   125    98     3
SMALL
NO_CHARGES
****
Generated from CSD

@<TRIPOS>ATOM
      1 O1         0.1341   10.0663   17.6150 O.3       1 RES1    0.0000
      2 O2         3.1219    7.5884   14.0312 O.3       1 RES1    0.0000
      3 O3         2.6808    9.6396   13.1642 O.2       1 RES1    0.0000
      4 O4         1.9014    8.8556    5.7503 O.2       1 RES1    0.0000
      5 O5         1.0801   10.6874    6.5627 O.2       1 RES1    0.0000
      6 N1         2.8169    7.7506   11.8568 N.am      1 RES1    0.0000
      7 N2         1.6144    9.5852    6.7006 N.pl3     1 RES1    0.0000
      8 C1         0.9968    9.1337   18.2983 C.3       1 RES1    0.0000
      9 C2         1.3026    9.6714   19.6835 C.3       1 RES1    0.0000
     10 C3         0.1264    9.7789   20.6372 C.3       1 RES1    0.0000
     11 C4        -1.1571   10.4074   20.1333 C.3       1 RES1    0.0000
     12 C5        -1.8200    9.5722   19.0476 C.3       1 RES1    0.0000
     13 C6        -1.2538    9.7177   17.6539 C.3       1 RES1    0.0000
     14 C7        -2.1358   10.6206   21.2900 C.3       1 RES1    0.0000
     15 C8         2.2338    8.9511   17.4554 C.3       1 RES1    0.0000
     16 C9         1.9699    8.5024   16.0278 C.3       1 RES1    0.0000
     17 C10        3.2817    8.1557   15.3593 C.3       1 RES1    0.0000
     18 C11        2.8563    8.4431   13.0297 C.2       1 RES1    0.0000
     19 C12        2.4934    8.2549   10.5933 C.ar      1 RES1    0.0000
     20 C13        1.7909    9.4508   10.4110 C.ar      1 RES1    0.0000
     21 C14        1.4933    9.8744    9.1356 C.ar      1 RES1    0.0000
     22 C15        1.8979    9.1217    8.0499 C.ar      1 RES1    0.0000
     23 C16        2.5828    7.9221    8.2139 C.ar      1 RES1    0.0000
     24 C17        2.8700    7.4948    9.4834 C.ar      1 RES1    0.0000
     25 H1         3.1216    6.9729   11.8918 H         1 RES1    0.0000
     26 H2         0.5268    8.2559   18.3845 H         1 RES1    0.0000
     27 H3         1.7036   10.5715   19.5865 H         1 RES1    0.0000
     28 H4         1.9855    9.0874   20.0988 H         1 RES1    0.0000
     29 H5        -0.0897    8.8649   20.9510 H         1 RES1    0.0000
     30 H6         0.4251   10.2953   21.4289 H         1 RES1    0.0000
     31 H7        -0.9343   11.3020   19.7441 H         1 RES1    0.0000
     32 H8        -1.7583    8.6192   19.3106 H         1 RES1    0.0000
     33 H9        -2.7813    9.8086   19.0200 H         1 RES1    0.0000
     34 H10       -1.3798    8.8640   17.1677 H         1 RES1    0.0000
     35 H11       -1.7692   10.4139   17.1727 H         1 RES1    0.0000
     36 H12       -2.3987    9.7511   21.6604 H         1 RES1    0.0000
     37 H13       -2.9312   11.0897   20.9609 H         1 RES1    0.0000
     38 H14       -1.7050   11.1555   21.9905 H         1 RES1    0.0000
     39 H15        2.8183    8.2827   17.8919 H         1 RES1    0.0000
     40 H16        2.7277    9.8086   17.4288 H         1 RES1    0.0000
     41 H17        1.3751    7.7117   16.0298 H         1 RES1    0.0000
     42 H18        1.5190    9.2283   15.5273 H         1 RES1    0.0000
     43 H19        3.8333    8.9752   15.2909 H         1 RES1    0.0000
     44 H20        3.7691    7.5087   15.9263 H         1 RES1    0.0000
     45 H21        1.5224    9.9671   11.1627 H         1 RES1    0.0000
     46 H22        1.0107   10.6827    9.0051 H         1 RES1    0.0000
     47 H23        2.8469    7.4086    7.4582 H         1 RES1    0.0000
     48 H24        3.3301    6.6735    9.6110 H         1 RES1    0.0000
     49 O6         1.3186    3.9249   19.0727 O.3       2 RES2    0.0000
     50 O7         1.8577    5.5333   17.5756 O.2       2 RES2    0.0000
     51 O8        -0.1061    2.9442   10.7745 O.2       2 RES2    0.0000
     52 O9         0.9827    4.8176   10.7672 O.2       2 RES2    0.0000
     53 N3         0.8556    3.5550   16.9485 N.am      2 RES2    0.0000
     54 N4         0.4816    3.8554   11.3608 N.pl3     2 RES2    0.0000
     55 O10       -0.9677    7.0795   22.4516 O.3       2 RES2    0.0000
     56 C18       -1.4194    5.9180   21.8235 C.3       2 RES2    0.0000
     57 C19       -2.5097    5.1912   22.6161 C.3       2 RES2    0.0000
     58 C20       -3.1011    6.5446   24.6245 C.3       2 RES2    0.0000
     59 C21       -1.9974    7.6236   24.4900 C.3       2 RES2    0.0000
     60 C22       -4.1421    7.2584   25.4831 C.3       2 RES2    0.0000
     61 C23        0.8138    5.6686   20.6865 C.3       2 RES2    0.0000
     62 C24       -3.4273    5.7900   23.6604 C.3       2 RES2    0.0000
     63 C25       -0.5568    7.1954   23.8476 C.3       2 RES2    0.0000
     64 C26       -0.3858    5.1634   21.3008 C.3       2 RES2    0.0000
     65 C27        1.8540    4.7453   20.1431 C.3       2 RES2    0.0000
     66 C28        1.3857    4.4487   17.8362 C.2       2 RES2    0.0000
     67 C29        0.7817    3.6876   15.5643 C.ar      2 RES2    0.0000
     68 C30        0.2266    2.6216   14.8401 C.ar      2 RES2    0.0000
     69 C31        0.1333    2.6753   13.4756 C.ar      2 RES2    0.0000
     70 C32        0.5816    3.8072   12.8066 C.ar      2 RES2    0.0000
     71 C33        1.1301    4.8732   13.4977 C.ar      2 RES2    0.0000
     72 C34        1.2256    4.8185   14.8672 C.ar      2 RES2    0.0000
     73 H25        0.5967    2.8134   17.2367 H         2 RES2    0.0000
     74 H26       -1.8481    6.2128   20.9707 H         2 RES2    0.0000
     75 H27       -2.0936    4.6869   23.3599 H         2 RES2    0.0000
     76 H28       -2.9685    4.5423   22.0249 H         2 RES2    0.0000
     77 H29       -4.4548    5.7771   23.2122 H         2 RES2    0.0000
     78 H30       -2.7487    5.7344   25.0940 H         2 RES2    0.0000
     79 H31       -2.3221    8.3671   23.9215 H         2 RES2    0.0000
     80 H32       -1.7731    7.9880   25.3846 H         2 RES2    0.0000
     81 H33       -0.6570    6.0459   24.1383 H         2 RES2    0.0000
     82 H34       -4.1743    8.2058   25.2417 H         2 RES2    0.0000
     83 H35       -3.9028    7.1685   26.4290 H         2 RES2    0.0000
     84 H36        0.0926    4.5256   22.2318 H         2 RES2    0.0000
     85 H37        0.4189    6.1868   19.9412 H         2 RES2    0.0000
     86 H38        1.2462    6.3092   21.3057 H         2 RES2    0.0000
     87 H39       -3.3234    5.0549   24.3156 H         2 RES2    0.0000
     88 H40        0.2772    7.5569   24.2467 H         2 RES2    0.0000
     89 H41       -4.8300    6.5576   25.5275 H         2 RES2    0.0000
     90 H42       -0.8979    4.6508   20.6259 H         2 RES2    0.0000
     91 H43        2.6174    5.2756   19.8032 H         2 RES2    0.0000
     92 H44        2.1886    4.1622   20.8673 H         2 RES2    0.0000
     93 H45       -0.0885    1.8540   15.3007 H         2 RES2    0.0000
     94 H46       -0.2345    1.9458   12.9903 H         2 RES2    0.0000
     95 H47        1.4387    5.6389   13.0297 H         2 RES2    0.0000
     96 H48        1.5950    5.5527   15.3450 H         2 RES2    0.0000
     97 C35        1.0075    4.6035   21.3594 Du        3 SUP3    0.0000
     98 C36       -0.2808    4.9502   21.4190 Du        3 SUP3    0.0000
     99 H49        1.8696    5.6946   19.8624 Du        3 SUP3    0.0000
    100 H50        2.7832    4.4709   20.3451 Du        3 SUP3    0.0000
    101 H51       -0.6474    4.2336   20.8427 Du        3 SUP3    0.0000
    102 H52       -0.3292    6.0987   20.9806 Du        3 SUP3    0.0000
    103 H53        1.4805    5.0382   22.1136 Du        3 SUP3    0.0000
    104 C37       -3.5562    6.1914   23.1944 Du        3 SUP3    0.0000
    105 C38       -0.7520    6.9905   23.8565 Du        3 SUP3    0.0000
    106 O11       -0.4248    5.7919   23.6043 Du        3 SUP3    0.0000
    107 C39       -1.1900    5.1615   22.6166 Du        3 SUP3    0.0000
    108 C40       -2.6695    5.3581   22.4141 Du        3 SUP3    0.0000
    109 C41       -3.1592    7.0712   24.4191 Du        3 SUP3    0.0000
    110 C42       -1.7169    7.3474   24.8181 Du        3 SUP3    0.0000
    111 H54        0.0648    7.4846   24.1186 Du        3 SUP3    0.0000
    112 H55       -3.0592    4.5089   22.0890 Du        3 SUP3    0.0000
    113 H56       -2.8051    6.0403   21.7097 Du        3 SUP3    0.0000
    114 H57       -1.6882    8.2790   25.1531 Du        3 SUP3    0.0000
    115 H58       -0.7396    7.6793   23.0053 Du        3 SUP3    0.0000
    116 H59       -1.5201    6.7634   25.5915 Du        3 SUP3    0.0000
    117 H60        0.9405    3.6394   21.5717 Du        3 SUP3    0.0000
    118 H61       -3.5959    7.0081   22.6358 Du        3 SUP3    0.0000
    119 H62       -3.2705    7.7386   23.6801 Du        3 SUP3    0.0000
    120 C43       -4.3917    7.3882   25.2614 Du        3 SUP3    0.0000
    121 H63       -5.0240    6.8524   25.3353 Du        3 SUP3    0.0000
    122 H64       -4.3838    5.8104   23.4141 Du        3 SUP3    0.0000
    123 H65       -4.1151    7.8851   26.0644 Du        3 SUP3    0.0000
    124 H66       -5.0106    7.9388   24.7393 Du        3 SUP3    0.0000
    125 H67       -1.1399    4.2012   22.8920 Du        3 SUP3    0.0000
@<TRIPOS>BOND
     1    1    8 1
     2    2   17 1
     3    3   18 2
     4    4    7 2
     5    5    7 2
     6    6   18 1
     7    7   22 1
     8    8    9 1
     9    9   10 1
    10   10   11 1
    11   11   12 1
    12   12   13 1
    13   13    1 1
    14   14   11 1
    15   15    8 1
    16   16   15 1
    17   17   16 1
    18   18    2 1
    19   19    6 1
    20   20   19 ar
    21   21   20 ar
    22   22   21 ar
    23   23   22 ar
    24   24   19 ar
    25   25    6 1
    26   26    8 1
    27   27    9 1
    28   28    9 1
    29   29   10 1
    30   30   10 1
    31   31   11 1
    32   32   12 1
    33   33   12 1
    34   34   13 1
    35   35   13 1
    36   36   14 1
    37   37   14 1
    38   38   14 1
    39   39   15 1
    40   40   15 1
    41   41   16 1
    42   42   16 1
    43   43   17 1
    44   44   17 1
    45   45   20 1
    46   46   21 1
    47   47   23 1
    48   48   24 1
    49   49   65 1
    50   50   66 2
    51   51   54 2
    52   52   54 2
    53   53   66 1
    54   54   70 1
    55   55   56 1
    56   56   57 1
    57   57   62 1
    58   58   59 1
    59   59   63 1
    60   60   58 1
    61   61   64 1
    62   62   58 1
    63   63   55 1
    64   64   56 1
    65   65   61 1
    66   66   49 1
    67   67   53 1
    68   68   67 ar
    69   69   68 ar
    70   70   69 ar
    71   71   70 ar
    72   72   67 ar
    73   73   53 1
    74   74   56 1
    75   75   57 1
    76   76   57 1
    77   77   62 1
    78   78   58 1
    79   79   59 1
    80   80   59 1
    81   81   63 1
    82   82   60 1
    83   83   60 1
    84   84   64 1
    85   85   61 1
    86   86   61 1
    87   87   62 1
    88   88   63 1
    89   89   60 1
    90   90   64 1
    91   91   65 1
    92   92   65 1
    93   93   68 1
    94   94   69 1
    95   95   71 1
    96   96   72 1
    97   23   24 ar
    98   71   72 ar
@<TRIPOS>SUBSTRUCTURE
     1 RES1 1
     2 RES2 49
     3 SUP3 97

@<TRIPOS>CRYSIN
   7.5284    9.2700   49.2821  90.0000  91.6448  90.0000  14 1

