# MOL2 file generated by ConQuest
# Please check atom types

@<TRIPOS>MOLECULE
VEXDEJ
    44    46     1
SMALL
NO_CHARGES
****
Generated from CSD

@<TRIPOS>ATOM
      1 C1         3.4935    3.2244   33.1056 C.3       1 RES1    0.0000
      2 C2         2.8913    1.9916   33.7858 C.3       1 RES1    0.0000
      3 H1         2.0081    2.1896   34.1357 H         1 RES1    0.0000
      4 H2         2.8221    1.2531   33.1610 H         1 RES1    0.0000
      5 C3         3.8461    1.6570   34.9046 C.3       1 RES1    0.0000
      6 H3         3.5015    1.9697   35.7555 H         1 RES1    0.0000
      7 H4         3.9905    0.6995   34.9566 H         1 RES1    0.0000
      8 C4         5.0977    2.3557   34.5590 C.2       1 RES1    0.0000
      9 C5         3.3277    3.1074   31.5969 C.2       1 RES1    0.0000
     10 C6         4.5603    2.9788   29.4458 C.ar      1 RES1    0.0000
     11 C7         3.5584    2.4306   28.6711 C.ar      1 RES1    0.0000
     12 H5         2.7658    2.1397   29.0603 H         1 RES1    0.0000
     13 C8         3.7500    2.3191   27.3016 C.ar      1 RES1    0.0000
     14 H6         3.0877    1.9362   26.7736 H         1 RES1    0.0000
     15 C9         4.9043    2.7674   26.7215 C.ar      1 RES1    0.0000
     16 H7         5.0175    2.7043   25.7988 H         1 RES1    0.0000
     17 C10        5.8915    3.3078   27.4992 C.ar      1 RES1    0.0000
     18 H8         6.6780    3.6104   27.1070 H         1 RES1    0.0000
     19 C11        5.7262    3.4069   28.8613 C.ar      1 RES1    0.0000
     20 H9         6.4056    3.7640   29.3864 H         1 RES1    0.0000
     21 C12        2.9396    4.6124   33.5311 C.3       1 RES1    0.0000
     22 H10        2.0087    4.6553   33.2269 H         1 RES1    0.0000
     23 C13        3.6906    5.7314   32.8253 C.ar      1 RES1    0.0000
     24 C14        3.1795    6.2671   31.6559 C.ar      1 RES1    0.0000
     25 H11        2.3490    5.9856   31.3470 H         1 RES1    0.0000
     26 C15        3.8932    7.2200   30.9406 C.ar      1 RES1    0.0000
     27 H12        3.5370    7.5732   30.1560 H         1 RES1    0.0000
     28 C16        5.1173    7.6395   31.3814 C.ar      1 RES1    0.0000
     29 H13        5.6026    8.2618   30.8889 H         1 RES1    0.0000
     30 C17        5.6216    7.1436   32.5457 C.ar      1 RES1    0.0000
     31 H14        6.4429    7.4477   32.8568 H         1 RES1    0.0000
     32 C18        4.9220    6.1907   33.2672 C.ar      1 RES1    0.0000
     33 H15        5.2819    5.8546   34.0551 H         1 RES1    0.0000
     34 C19        2.9170    4.7340   35.0464 C.3       1 RES1    0.0000
     35 H16        2.3264    4.0572   35.4110 H         1 RES1    0.0000
     36 H17        3.8081    4.5711   35.3927 H         1 RES1    0.0000
     37 N1         4.4520    3.0934   30.8633 N.am      1 RES1    0.0000
     38 H18        5.1913    3.1620   31.2993 H         1 RES1    0.0000
     39 N2         2.4549    6.0831   35.4920 N.pl3     1 RES1    0.0000
     40 O1         4.9049    3.1799   33.4754 O.3       1 RES1    0.0000
     41 O2         6.1620    2.3261   35.0973 O.2       1 RES1    0.0000
     42 O3         2.1972    3.0450   31.1557 O.2       1 RES1    0.0000
     43 O4         1.6458    6.6890   34.8247 O.2       1 RES1    0.0000
     44 O5         2.8907    6.5096   36.5478 O.2       1 RES1    0.0000
@<TRIPOS>BOND
     1    1    2 1
     2    2    3 1
     3    4    2 1
     4    5    2 1
     5    6    5 1
     6    7    5 1
     7    8    5 1
     8    9    1 1
     9   10   11 ar
    10   11   12 1
    11   13   11 ar
    12   14   13 1
    13   15   13 ar
    14   16   15 1
    15   17   15 ar
    16   18   17 1
    17   19   10 ar
    18   20   19 1
    19   21    1 1
    20   22   21 1
    21   23   21 1
    22   24   23 ar
    23   25   24 1
    24   26   24 ar
    25   27   26 1
    26   28   26 ar
    27   29   28 1
    28   30   28 ar
    29   31   30 1
    30   32   23 ar
    31   33   32 1
    32   34   21 1
    33   35   34 1
    34   36   34 1
    35   37    9 1
    36   38   37 1
    37   39   34 1
    38   40    1 1
    39   41    8 2
    40   42    9 2
    41   43   39 2
    42   44   39 2
    43    8   40 1
    44   10   37 1
    45   17   19 ar
    46   30   32 ar
@<TRIPOS>SUBSTRUCTURE
     1 RES1 1

@<TRIPOS>CRYSIN
   6.1204    7.7978   36.6460  90.0000  90.0000  90.0000  19 1

