# MOL2 file generated by ConQuest
# Please check atom types

@<TRIPOS>MOLECULE
VEXFEJ
    74    78     2
SMALL
NO_CHARGES
****
Generated from CSD

@<TRIPOS>ATOM
      1 O1         3.0232    4.5580   -1.4617 O.2       1 RES1    0.0000
      2 O2         5.8527    8.0085    2.7291 O.2       1 RES1    0.0000
      3 O3         4.6755    9.9259    2.8567 O.3       1 RES1    0.0000
      4 O4         1.9794    9.6571   -2.7414 O.2       1 RES1    0.0000
      5 O5         2.6018   11.1206   -1.3411 O.2       1 RES1    0.0000
      6 O6         3.3939    7.2193    4.0733 O.2       1 RES1    0.0000
      7 O7         5.0697    6.2220    5.0231 O.2       1 RES1    0.0000
      8 O8         4.5053    0.8031    1.9921 O.2       1 RES1    0.0000
      9 O9         4.6545    1.4024    4.0584 O.2       1 RES1    0.0000
     10 N1         2.4793    9.9860   -1.6867 N.pl3     1 RES1    0.0000
     11 N2         4.2583    6.3460    4.1123 N.pl3     1 RES1    0.0000
     12 N3         4.5200    1.6445    2.8730 N.pl3     1 RES1    0.0000
     13 C1         2.8452    7.6152   -1.1811 C.ar      1 RES1    0.0000
     14 C2         2.9457    8.9228   -0.7761 C.ar      1 RES1    0.0000
     15 C3         3.5183    9.2910    0.4232 C.ar      1 RES1    0.0000
     16 C4         3.9855    8.3108    1.2996 C.ar      1 RES1    0.0000
     17 C5         4.2657    5.3542    3.0340 C.ar      1 RES1    0.0000
     18 C6         4.4493    4.0423    3.4134 C.ar      1 RES1    0.0000
     19 C7         4.3473    3.0507    2.4612 C.ar      1 RES1    0.0000
     20 C8         4.0145    3.3327    1.1503 C.ar      1 RES1    0.0000
     21 C9         3.3224    5.1957   -0.4768 C.2       1 RES1    0.0000
     22 C10        3.2340    6.6626   -0.2742 C.ar      1 RES1    0.0000
     23 C11        3.7451    6.9778    0.9919 C.ar      1 RES1    0.0000
     24 C12        3.9936    5.6990    1.7228 C.ar      1 RES1    0.0000
     25 C13        3.8399    4.6451    0.8161 C.ar      1 RES1    0.0000
     26 C14        4.9304    8.7141    2.4002 C.2       1 RES1    0.0000
     27 C15        5.6566   10.5082    3.7831 C.3       1 RES1    0.0000
     28 C16        5.4613   10.0030    5.1576 C.3       1 RES1    0.0000
     29 H1         2.5644    7.3851   -1.9904 H         1 RES1    0.0000
     30 H2         3.6533   10.1640    0.6362 H         1 RES1    0.0000
     31 H3         4.6330    3.8102    4.3104 H         1 RES1    0.0000
     32 H4         3.9654    2.6444    0.5647 H         1 RES1    0.0000
     33 H5         5.5528   11.5026    3.7837 H         1 RES1    0.0000
     34 H6         6.5780   10.2675    3.4760 H         1 RES1    0.0000
     35 H7         5.5721    8.9583    5.1667 H         1 RES1    0.0000
     36 H8         4.4983   10.2550    5.4906 H         1 RES1    0.0000
     37 H9         6.1753   10.4348    5.7960 H         1 RES1    0.0000
     38 O10        7.7018    6.6797    7.2833 O.2       2 RES2    0.0000
     39 O11        9.4730    3.0397    2.5179 O.2       2 RES2    0.0000
     40 O12        7.8184    1.5145    2.4591 O.3       2 RES2    0.0000
     41 O13        6.2462    1.6867    8.4696 O.2       2 RES2    0.0000
     42 O14        6.4267    0.2137    6.9109 O.2       2 RES2    0.0000
     43 O15        7.0896    4.4735    1.6325 O.2       2 RES2    0.0000
     44 O16        8.7528    5.2699    0.4996 O.2       2 RES2    0.0000
     45 O17        9.6988   10.3377    3.9412 O.2       2 RES2    0.0000
     46 O18        9.7849    9.7903    1.8529 O.2       2 RES2    0.0000
     47 N4         6.5034    1.3558    7.3323 N.pl3     2 RES2    0.0000
     48 N5         8.0844    5.1780    1.5143 N.pl3     2 RES2    0.0000
     49 N6         9.5506    9.5576    3.0296 N.pl3     2 RES2    0.0000
     50 C17        7.1059    3.6953    6.8830 C.ar      2 RES2    0.0000
     51 C18        6.9958    2.4038    6.4150 C.ar      2 RES2    0.0000
     52 C19        7.3784    2.0428    5.1424 C.ar      2 RES2    0.0000
     53 C20        7.8471    3.0020    4.2468 C.ar      2 RES2    0.0000
     54 C21        8.4411    6.0227    2.6673 C.ar      2 RES2    0.0000
     55 C22        8.8644    7.2973    2.3587 C.ar      2 RES2    0.0000
     56 C23        9.0408    8.2055    3.3719 C.ar      2 RES2    0.0000
     57 C24        8.7206    7.9127    4.6778 C.ar      2 RES2    0.0000
     58 C25        7.8268    6.0790    6.2463 C.2       2 RES2    0.0000
     59 C26        7.5371    4.6415    5.9883 C.ar      2 RES2    0.0000
     60 C27        7.8631    4.3417    4.6536 C.ar      2 RES2    0.0000
     61 C28        8.2232    5.6209    3.9773 C.ar      2 RES2    0.0000
     62 C29        8.3136    6.6229    4.9525 C.ar      2 RES2    0.0000
     63 C30        8.4863    2.5486    2.9658 C.2       2 RES2    0.0000
     64 C31        8.4618    0.8334    1.2812 C.3       2 RES2    0.0000
     65 C32        8.0136    1.5337    0.1292 C.3       2 RES2    0.0000
     66 H10        6.9067    3.9471    7.8348 H         2 RES2    0.0000
     67 H11        7.3424    1.1202    4.8705 H         2 RES2    0.0000
     68 H12        9.0045    7.5198    1.4775 H         2 RES2    0.0000
     69 H13        8.7738    8.6450    5.3638 H         2 RES2    0.0000
     70 H14        8.1786   -0.1240    1.2366 H         2 RES2    0.0000
     71 H15        9.4578    0.8848    1.3530 H         2 RES2    0.0000
     72 H16        8.3091    2.5395    0.1925 H         2 RES2    0.0000
     73 H17        6.9672    1.4808    0.0715 H         2 RES2    0.0000
     74 H18        8.4327    1.1002   -0.7307 H         2 RES2    0.0000
@<TRIPOS>BOND
     1    1   21 2
     2    2   26 2
     3    3   26 1
     4    4   10 2
     5    5   10 2
     6    6   11 2
     7    7   11 2
     8    8   12 2
     9    9   12 2
    10   10   14 1
    11   11   17 1
    12   12   19 1
    13   13   14 ar
    14   14   15 ar
    15   15   16 ar
    16   16   23 ar
    17   17   18 ar
    18   18   19 ar
    19   19   20 ar
    20   20   25 ar
    21   21   22 1
    22   22   13 ar
    23   23   22 ar
    24   24   17 ar
    25   25   21 1
    26   26   16 1
    27   27    3 1
    28   28   27 1
    29   29   13 1
    30   30   15 1
    31   31   18 1
    32   32   20 1
    33   33   27 1
    34   34   27 1
    35   35   28 1
    36   36   28 1
    37   37   28 1
    38   38   58 2
    39   39   63 2
    40   40   63 1
    41   41   47 2
    42   42   47 2
    43   43   48 2
    44   44   48 2
    45   45   49 2
    46   46   49 2
    47   47   51 1
    48   48   54 1
    49   49   56 1
    50   50   51 ar
    51   51   52 ar
    52   52   53 ar
    53   53   60 ar
    54   54   55 ar
    55   55   56 ar
    56   56   57 ar
    57   57   62 ar
    58   58   59 1
    59   59   50 ar
    60   60   59 ar
    61   61   54 ar
    62   62   58 1
    63   63   53 1
    64   64   40 1
    65   65   64 1
    66   66   50 1
    67   67   52 1
    68   68   55 1
    69   69   57 1
    70   70   64 1
    71   71   64 1
    72   72   65 1
    73   73   65 1
    74   74   65 1
    75   23   24 1
    76   24   25 ar
    77   60   61 1
    78   61   62 ar
@<TRIPOS>SUBSTRUCTURE
     1 RES1 1
     2 RES2 38

@<TRIPOS>CRYSIN
  11.7890   12.3080   12.3360  84.5900  69.1100  74.4400   2 1

