# MOL2 file generated by ConQuest
# Please check atom types

@<TRIPOS>MOLECULE
VEXHIP
    30    33     1
SMALL
NO_CHARGES
****
Generated from CSD

@<TRIPOS>ATOM
      1 O1         1.6355    6.8895   10.4752 O.3       1 RES1    0.0000
      2 C1         0.9695    8.1200   10.7808 C.3       1 RES1    0.0000
      3 C2        -0.0583    7.7447   11.8268 C.3       1 RES1    0.0000
      4 C3         0.6452    6.6731   12.5870 C.2       1 RES1    0.0000
      5 C4         1.6552    6.0413   11.6434 C.3       1 RES1    0.0000
      6 C5         3.0678    6.1040   12.2441 C.3       1 RES1    0.0000
      7 C6         4.1165    5.7389   11.2247 C.3       1 RES1    0.0000
      8 C7         3.8332    4.4464   10.5031 C.3       1 RES1    0.0000
      9 C8         2.3879    4.1992   10.1283 C.2       1 RES1    0.0000
     10 C9         1.3190    4.6054   11.1357 C.3       1 RES1    0.0000
     11 C10        1.3329    3.5534   12.2786 C.3       1 RES1    0.0000
     12 C11        0.5450    2.3650   11.7390 C.3       1 RES1    0.0000
     13 C12       -0.4828    2.9563   10.7848 C.3       1 RES1    0.0000
     14 C13       -0.1600    4.4572   10.6599 C.3       1 RES1    0.0000
     15 C14        0.5257    6.4373   13.8907 C.2       1 RES1    0.0000
     16 C15       -0.5951    5.0538    9.3349 C.3       1 RES1    0.0000
     17 N1         2.0085    3.5418    9.1036 N.2       1 RES1    0.0000
     18 N2         3.0073    3.0650    8.2690 N.pl3     1 RES1    0.0000
     19 C16        2.6967    2.1707    7.3015 C.ar      1 RES1    0.0000
     20 C17        3.6969    1.5309    6.5280 C.ar      1 RES1    0.0000
     21 C18        3.3727    0.5755    5.5778 C.ar      1 RES1    0.0000
     22 C19        2.0644    0.2670    5.3665 C.ar      1 RES1    0.0000
     23 C20        1.0460    0.8862    6.0842 C.ar      1 RES1    0.0000
     24 C21        1.3584    1.8109    7.0344 C.ar      1 RES1    0.0000
     25 N3         5.1110    1.7858    6.7367 N.pl3     1 RES1    0.0000
     26 O2         5.9180    1.0101    6.2436 O.2       1 RES1    0.0000
     27 O3         5.4568    2.7569    7.3999 O.2       1 RES1    0.0000
     28 N4         1.7354   -0.7484    4.3737 N.pl3     1 RES1    0.0000
     29 O4         2.6520   -1.4173    3.9006 O.2       1 RES1    0.0000
     30 O5         0.5628   -0.8909    4.0601 O.2       1 RES1    0.0000
@<TRIPOS>BOND
     1    1    2 1
     2    2    3 1
     3    3    4 1
     4    4    5 1
     5    5    1 1
     6    6    5 1
     7    7    6 1
     8    8    7 1
     9    9    8 1
    10   10    5 1
    11   11   10 1
    12   12   11 1
    13   13   12 1
    14   14   10 1
    15   15    4 2
    16   16   14 1
    17   17    9 2
    18   18   17 1
    19   19   18 1
    20   20   19 ar
    21   21   20 ar
    22   22   21 ar
    23   23   22 ar
    24   24   19 ar
    25   25   20 1
    26   26   25 2
    27   27   25 2
    28   28   22 1
    29   29   28 2
    30   30   28 2
    31    9   10 1
    32   13   14 1
    33   23   24 ar
@<TRIPOS>SUBSTRUCTURE
     1 RES1 1

@<TRIPOS>CRYSIN
   8.1860    9.3640   13.3570  95.2900  91.5600  97.0500   2 1

