# MOL2 file generated by ConQuest
# Please check atom types

@<TRIPOS>MOLECULE
VEXMOA
    25    26     1
SMALL
NO_CHARGES
****
Generated from CSD

@<TRIPOS>ATOM
      1 N1         4.1410    2.9927    7.6312 N.2       1 RES1    0.0000
      2 C1         4.0972    2.1453    8.5829 C.2       1 RES1    0.0000
      3 C2         2.7616    1.5229    8.7680 C.ar      1 RES1    0.0000
      4 C3         2.6401    0.1786    9.1190 C.ar      1 RES1    0.0000
      5 C4         1.3927   -0.3698    9.2570 C.ar      1 RES1    0.0000
      6 C5         0.2741    0.4279    9.0661 C.ar      1 RES1    0.0000
      7 C6         0.4770    1.7410    8.7430 C.ar      1 RES1    0.0000
      8 N2         1.6780    2.3045    8.5858 N.ar      1 RES1    0.0000
      9 C7         5.1989    1.7410    9.5038 C.ar      1 RES1    0.0000
     10 C8         4.9617    1.7495   10.8740 C.ar      1 RES1    0.0000
     11 C9         5.9436    1.3300   11.7582 C.ar      1 RES1    0.0000
     12 C10        7.1459    0.8945   11.2911 C.ar      1 RES1    0.0000
     13 C11        7.4019    0.8869    9.9400 C.ar      1 RES1    0.0000
     14 C12        6.4292    1.3249    9.0411 C.ar      1 RES1    0.0000
     15 O1         5.3860    3.6185    7.4917 O.3       1 RES1    0.0000
     16 H1         3.4903   -0.3117    9.0617 H         1 RES1    0.0000
     17 H2         1.1667   -1.3308    9.4729 H         1 RES1    0.0000
     18 H3        -0.6990    0.0168    9.2379 H         1 RES1    0.0000
     19 H4        -0.2482    2.3584    8.6798 H         1 RES1    0.0000
     20 H5         4.0451    2.0552   11.1619 H         1 RES1    0.0000
     21 H6         5.7632    1.2887   12.7334 H         1 RES1    0.0000
     22 H7         7.8713    0.5643   11.9697 H         1 RES1    0.0000
     23 H8         8.2870    0.5812    9.5170 H         1 RES1    0.0000
     24 H9         6.6105    1.3477    8.1364 H         1 RES1    0.0000
     25 H10        5.1798    4.4558    6.9321 H         1 RES1    0.0000
@<TRIPOS>BOND
     1    1    2 2
     2    2    3 1
     3    3    4 ar
     4    4    5 ar
     5    5    6 ar
     6    6    7 ar
     7    7    8 ar
     8    8    3 ar
     9    9    2 1
    10   10    9 ar
    11   11   10 ar
    12   12   11 ar
    13   13   12 ar
    14   14    9 ar
    15   15    1 1
    16   16    4 1
    17   17    5 1
    18   18    6 1
    19   19    7 1
    20   20   10 1
    21   21   11 1
    22   22   12 1
    23   23   13 1
    24   24   14 1
    25   25   15 1
    26   13   14 ar
@<TRIPOS>SUBSTRUCTURE
     1 RES1 1

@<TRIPOS>CRYSIN
  16.2460    8.4230   17.3830  90.0000 122.3400  90.0000  15 1

