# MOL2 file generated by ConQuest
# Please check atom types

@<TRIPOS>MOLECULE
VEXMOA01
    25    26     1
SMALL
NO_CHARGES
****
Generated from CSD

@<TRIPOS>ATOM
      1 O1        -0.9611    1.1729    6.2781 O.3       1 RES1    0.0000
      2 N1         2.6793    3.1185    8.4418 N.ar      1 RES1    0.0000
      3 N2        -0.0414    1.1352    7.3347 N.2       1 RES1    0.0000
      4 C1         0.8438    3.1590    6.2740 C.ar      1 RES1    0.0000
      5 C2        -0.2248    4.0418    6.1801 C.ar      1 RES1    0.0000
      6 H1        -0.9632    3.9560    6.7708 H         1 RES1    0.0000
      7 C3        -0.2174    5.0461    5.2291 C.ar      1 RES1    0.0000
      8 H2        -0.9421    5.6584    5.1804 H         1 RES1    0.0000
      9 C4         0.8430    5.1612    4.3482 C.ar      1 RES1    0.0000
     10 H3         0.8424    5.8445    3.6889 H         1 RES1    0.0000
     11 C5         1.9026    4.2781    4.4324 C.ar      1 RES1    0.0000
     12 H4         2.6267    4.3514    3.8218 H         1 RES1    0.0000
     13 C6         1.9164    3.2881    5.3989 C.ar      1 RES1    0.0000
     14 H5         2.6576    2.6978    5.4639 H         1 RES1    0.0000
     15 C7         0.8252    2.0810    7.2996 C.2       1 RES1    0.0000
     16 C8         1.8432    2.0643    8.3950 C.ar      1 RES1    0.0000
     17 C9         1.9126    1.0249    9.3034 C.ar      1 RES1    0.0000
     18 H6         1.3235    0.2814    9.2421 H         1 RES1    0.0000
     19 C10        2.8674    1.0970   10.3091 C.ar      1 RES1    0.0000
     20 H7         2.9278    0.4023   10.9537 H         1 RES1    0.0000
     21 C11        3.7224    2.1655   10.3755 C.ar      1 RES1    0.0000
     22 H8         4.3788    2.2280   11.0592 H         1 RES1    0.0000
     23 C12        3.5999    3.1367    9.4275 C.ar      1 RES1    0.0000
     24 H9         4.1999    3.8723    9.4629 H         1 RES1    0.0000
     25 H10       -1.4318    0.4558    6.4829 H         1 RES1    0.0000
@<TRIPOS>BOND
     1    1    3 1
     2    2   16 ar
     3    3   15 2
     4    4    5 ar
     5    5    6 1
     6    7    5 ar
     7    8    7 1
     8    9    7 ar
     9   10    9 1
    10   11    9 ar
    11   12   11 1
    12   13    4 ar
    13   14   13 1
    14   15    4 1
    15   16   15 1
    16   17   16 ar
    17   18   17 1
    18   19   17 ar
    19   20   19 1
    20   21   19 ar
    21   22   21 1
    22   23    2 ar
    23   24   23 1
    24   25    1 1
    25   11   13 ar
    26   21   23 ar
@<TRIPOS>SUBSTRUCTURE
     1 RES1 1

@<TRIPOS>CRYSIN
   5.6732   23.2570    7.4516  90.0000  97.7430  90.0000 231 1

