# MOL2 file generated by ConQuest
# Please check atom types

@<TRIPOS>MOLECULE
VEXNEU
    31    32     1
SMALL
NO_CHARGES
****
Generated from CSD

@<TRIPOS>ATOM
      1 O1         5.4882    7.7730    6.7003 O.2       1 RES1    0.0000
      2 O2         3.9170    7.0552    7.9862 O.2       1 RES1    0.0000
      3 O3         0.4279    9.1539    3.2963 O.3       1 RES1    0.0000
      4 O4        -0.8113    9.6146    6.7613 O.2       1 RES1    0.0000
      5 O5        -0.4284    5.7591    4.3821 O.2       1 RES1    0.0000
      6 N1         4.3034    7.5635    6.9409 N.pl3     1 RES1    0.0000
      7 N2        -0.3424    7.7631    5.5112 N.am      1 RES1    0.0000
      8 C1         3.3125    7.9465    5.9464 C.ar      1 RES1    0.0000
      9 C2         3.7192    8.6149    4.8018 C.ar      1 RES1    0.0000
     10 H1         4.6201    8.7929    4.6541 H         1 RES1    0.0000
     11 C3         2.7678    9.0118    3.8871 C.ar      1 RES1    0.0000
     12 H2         3.0279    9.4511    3.1094 H         1 RES1    0.0000
     13 C4         1.4070    8.7572    4.1232 C.ar      1 RES1    0.0000
     14 C5         1.0380    8.0541    5.2753 C.ar      1 RES1    0.0000
     15 C6         1.9811    7.6474    6.1931 C.ar      1 RES1    0.0000
     16 H3         1.7310    7.1836    6.9590 H         1 RES1    0.0000
     17 C7        -0.9749    6.5786    5.0622 C.2       1 RES1    0.0000
     18 C8        -2.4041    6.5752    5.6052 C.3       1 RES1    0.0000
     19 C9        -2.5362    7.9501    6.2821 C.3       1 RES1    0.0000
     20 H4        -3.1713    8.5040    5.8027 H         1 RES1    0.0000
     21 H5        -2.8407    7.8498    7.1980 H         1 RES1    0.0000
     22 C10       -1.1690    8.5686    6.2476 C.2       1 RES1    0.0000
     23 C11       -2.5195    5.4459    6.6238 C.3       1 RES1    0.0000
     24 H6        -2.3103    4.6092    6.1999 H         1 RES1    0.0000
     25 H7        -3.4159    5.4158    6.9679 H         1 RES1    0.0000
     26 H8        -1.9048    5.6004    7.3452 H         1 RES1    0.0000
     27 C12       -3.3725    6.3639    4.4450 C.3       1 RES1    0.0000
     28 H9        -3.2851    7.0873    3.8198 H         1 RES1    0.0000
     29 H10       -4.2712    6.3368    4.7791 H         1 RES1    0.0000
     30 H11       -3.1698    5.5342    4.0057 H         1 RES1    0.0000
     31 H12        0.7640    9.6477    2.6004 H         1 RES1    0.0000
@<TRIPOS>BOND
     1    1    6 2
     2    2    6 2
     3    3   13 1
     4    4   22 2
     5    5   17 2
     6    6    8 1
     7    7   14 1
     8    8    9 ar
     9    9   10 1
    10   11    9 ar
    11   12   11 1
    12   13   11 ar
    13   14   13 ar
    14   15    8 ar
    15   16   15 1
    16   17    7 1
    17   18   17 1
    18   19   18 1
    19   20   19 1
    20   21   19 1
    21   22    7 1
    22   23   18 1
    23   24   23 1
    24   25   23 1
    25   26   23 1
    26   27   18 1
    27   28   27 1
    28   29   27 1
    29   30   27 1
    30   31    3 1
    31   14   15 ar
    32   19   22 1
@<TRIPOS>SUBSTRUCTURE
     1 RES1 1

@<TRIPOS>CRYSIN
  11.0390   20.0660   12.0730  90.0000 113.5750  90.0000  15 1

