# MOL2 file generated by ConQuest
# Please check atom types

@<TRIPOS>MOLECULE
VEZFOW
    68    73     1
SMALL
USER_CHARGES
****
Generated from CSD

@<TRIPOS>ATOM
      1 O1        11.9507    6.8255    6.2026 O.3       1 RES1    0.0000
      2 O2        13.2273    8.5744    6.8948 O.2       1 RES1   -1.0000
      3 O3         6.6842    8.3452    1.0056 O.3       1 RES1    0.0000
      4 N1        10.7087    7.7580    4.7612 N.pl3     1 RES1    1.0000
      5 N2        10.9176    6.5935    5.3257 N.2       1 RES1    0.0000
      6 N3        10.2082   10.7534    4.7797 N.2       1 RES1    0.0000
      7 N4        12.3691   10.8999    4.2682 N.3       1 RES1    0.0000
      8 C1        11.5286    8.7428    5.1796 C.2       1 RES1    0.0000
      9 C2        12.3544    8.1691    6.1609 C.2       1 RES1    0.0000
     10 C3        11.3670   10.1306    4.7761 C.2       1 RES1    0.0000
     11 C4        11.7900   12.1069    3.9187 C.2       1 RES1    0.0000
     12 C5        10.4557   11.9922    4.2382 C.2       1 RES1    0.0000
     13 C6         9.3409   12.9526    4.1066 C.ar      1 RES1    0.0000
     14 C7         9.5325   14.3285    4.1166 C.ar      1 RES1    0.0000
     15 H1        10.3933   14.6758    4.1870 H         1 RES1    0.0000
     16 C8         8.4505   15.1857    4.0224 C.ar      1 RES1    0.0000
     17 H2         8.5898   16.1054    4.0279 H         1 RES1    0.0000
     18 C9         7.1824   14.6943    3.9214 C.ar      1 RES1    0.0000
     19 H3         6.4615   15.2781    3.8562 H         1 RES1    0.0000
     20 C10        6.9738   13.3375    3.9162 C.ar      1 RES1    0.0000
     21 H4         6.1090   13.0009    3.8539 H         1 RES1    0.0000
     22 C11        8.0509   12.4689    4.0044 C.ar      1 RES1    0.0000
     23 H5         7.9035   11.5502    3.9945 H         1 RES1    0.0000
     24 C12       12.5514   13.2020    3.2866 C.ar      1 RES1    0.0000
     25 C13       12.1586   13.6713    2.0384 C.ar      1 RES1    0.0000
     26 H6        11.4270   13.2875    1.6128 H         1 RES1    0.0000
     27 C14       12.8393   14.6969    1.4259 C.ar      1 RES1    0.0000
     28 H7        12.5614   15.0053    0.5937 H         1 RES1    0.0000
     29 C15       13.9160   15.2611    2.0321 C.ar      1 RES1    0.0000
     30 H8        14.3741   15.9537    1.6139 H         1 RES1    0.0000
     31 C16       14.3308   14.8068    3.2693 C.ar      1 RES1    0.0000
     32 H9        15.0729   15.1885    3.6786 H         1 RES1    0.0000
     33 C17       13.6439   13.7844    3.9011 C.ar      1 RES1    0.0000
     34 H10       13.9180   13.4895    4.7392 H         1 RES1    0.0000
     35 C18       13.7679   10.4944    4.1119 C.3       1 RES1    0.0000
     36 H11       13.8990    9.6459    4.5640 H         1 RES1    0.0000
     37 H12       14.3333   11.1509    4.5479 H         1 RES1    0.0000
     38 C19       14.2140   10.3499    2.6675 C.3       1 RES1    0.0000
     39 H13       14.1060   11.2092    2.2307 H         1 RES1    0.0000
     40 H14       15.1613   10.1406    2.6630 H         1 RES1    0.0000
     41 C20       13.5019    9.3123    1.8451 C.ar      1 RES1    0.0000
     42 C21       12.9378    9.6510    0.6324 C.ar      1 RES1    0.0000
     43 H15       12.9556   10.5387    0.3574 H         1 RES1    0.0000
     44 C22       12.3534    8.7177   -0.1741 C.ar      1 RES1    0.0000
     45 H16       11.9879    8.9736   -0.9903 H         1 RES1    0.0000
     46 C23       12.3042    7.4160    0.2087 C.ar      1 RES1    0.0000
     47 H17       11.9010    6.7836   -0.3401 H         1 RES1    0.0000
     48 C24       12.8507    7.0371    1.4110 C.ar      1 RES1    0.0000
     49 H18       12.8206    6.1471    1.6773 H         1 RES1    0.0000
     50 C25       13.4456    7.9842    2.2247 C.ar      1 RES1    0.0000
     51 H19       13.8127    7.7245    3.0388 H         1 RES1    0.0000
     52 C26        9.6430    7.8496    3.7928 C.ar      1 RES1    0.0000
     53 C27        9.8731    8.5311    2.6130 C.ar      1 RES1    0.0000
     54 H20       10.7074    8.9018    2.4371 H         1 RES1    0.0000
     55 C28        8.8598    8.6519    1.7122 C.ar      1 RES1    0.0000
     56 H21        9.0083    9.1000    0.9107 H         1 RES1    0.0000
     57 C29        7.6152    8.1175    1.9721 C.ar      1 RES1    0.0000
     58 C30        7.4013    7.4120    3.1450 C.ar      1 RES1    0.0000
     59 H22        6.5725    7.0264    3.3132 H         1 RES1    0.0000
     60 C31        8.4300    7.2832    4.0674 C.ar      1 RES1    0.0000
     61 H23        8.2955    6.8179    4.8614 H         1 RES1    0.0000
     62 C32        5.4219    7.7134    1.0894 C.3       1 RES1    0.0000
     63 H24        4.9586    7.9875    1.8964 H         1 RES1    0.0000
     64 H25        5.5248    6.7483    1.1032 H         1 RES1    0.0000
     65 C33        4.6452    8.1440   -0.1395 C.3       1 RES1    0.0000
     66 H26        4.4516    9.0828   -0.0830 H         1 RES1    0.0000
     67 H27        3.8227    7.6501   -0.1879 H         1 RES1    0.0000
     68 H28        5.1692    7.9722   -0.9257 H         1 RES1    0.0000
@<TRIPOS>BOND
     1    1    5 1
     2    2    9 1
     3    3   57 1
     4    4    5 2
     5    6   10 2
     6    7   10 1
     7    8    4 1
     8    9    1 1
     9   10    8 1
    10   11    7 1
    11   12    6 1
    12   13   12 1
    13   14   13 ar
    14   15   14 1
    15   16   14 ar
    16   17   16 1
    17   18   16 ar
    18   19   18 1
    19   20   18 ar
    20   21   20 1
    21   22   13 ar
    22   23   22 1
    23   24   11 1
    24   25   24 ar
    25   26   25 1
    26   27   25 ar
    27   28   27 1
    28   29   27 ar
    29   30   29 1
    30   31   29 ar
    31   32   31 1
    32   33   24 ar
    33   34   33 1
    34   35    7 1
    35   36   35 1
    36   37   35 1
    37   38   35 1
    38   39   38 1
    39   40   38 1
    40   41   38 1
    41   42   41 ar
    42   43   42 1
    43   44   42 ar
    44   45   44 1
    45   46   44 ar
    46   47   46 1
    47   48   46 ar
    48   49   48 1
    49   50   41 ar
    50   51   50 1
    51   52    4 1
    52   53   52 ar
    53   54   53 1
    54   55   53 ar
    55   56   55 1
    56   57   55 ar
    57   58   57 ar
    58   59   58 1
    59   60   52 ar
    60   61   60 1
    61   62    3 1
    62   63   62 1
    63   64   62 1
    64   65   62 1
    65   66   65 1
    66   67   65 1
    67   68   65 1
    68    8    9 2
    69   11   12 2
    70   20   22 ar
    71   31   33 ar
    72   48   50 ar
    73   58   60 ar
@<TRIPOS>SUBSTRUCTURE
     1 RES1 1

@<TRIPOS>CRYSIN
  11.6064   11.6574   12.9543  63.7090  85.4930  66.2590   2 1

