# MOL2 file generated by ConQuest
# Please check atom types

@<TRIPOS>MOLECULE
VEZSUO
    23    24     1
SMALL
NO_CHARGES
****
Generated from CSD

@<TRIPOS>ATOM
      1 N1        10.0429    1.0216    1.3132 N.pl3     1 RES1    0.0000
      2 C1         9.2389    1.5462    2.2946 C.ar      1 RES1    0.0000
      3 C2         7.8779    1.6215    2.0055 C.ar      1 RES1    0.0000
      4 C3         7.3664    1.2059    0.8001 C.ar      1 RES1    0.0000
      5 C4         8.2217    0.7151   -0.1649 C.ar      1 RES1    0.0000
      6 C5         9.5488    0.6345    0.0977 C.ar      1 RES1    0.0000
      7 O1        11.3502    0.8372    1.5331 O.2       1 RES1    0.0000
      8 C6         9.7853    1.9625    3.6017 C.ar      1 RES1    0.0000
      9 C7        10.9820    2.6576    3.7788 C.ar      1 RES1    0.0000
     10 C8        11.3444    3.1024    5.0350 C.ar      1 RES1    0.0000
     11 C9        10.5509    2.8681    6.1223 C.ar      1 RES1    0.0000
     12 C10        9.3740    2.1530    5.9858 C.ar      1 RES1    0.0000
     13 C11        8.9942    1.7221    4.7317 C.ar      1 RES1    0.0000
     14 O2        11.8128    2.9533    2.7466 O.3       1 RES1    0.0000
     15 H1         7.2825    1.9817    2.7079 H         1 RES1    0.0000
     16 H2         6.4319    1.2981    0.6312 H         1 RES1    0.0000
     17 H3         7.9117    0.4225   -1.0180 H         1 RES1    0.0000
     18 H4        10.2654    0.2996   -0.4886 H         1 RES1    0.0000
     19 H5        12.1763    3.5870    5.0900 H         1 RES1    0.0000
     20 H6        10.8247    3.2030    6.9224 H         1 RES1    0.0000
     21 H7         8.7856    1.9971    6.7595 H         1 RES1    0.0000
     22 H8         8.1681    1.1906    4.6217 H         1 RES1    0.0000
     23 H9        11.7103    2.1200    2.2396 H         1 RES1    0.0000
@<TRIPOS>BOND
     1    1    2 ar
     2    2    3 ar
     3    3    4 ar
     4    4    5 ar
     5    5    6 ar
     6    6    1 ar
     7    7    1 1
     8    8    2 1
     9    9    8 ar
    10   10    9 ar
    11   11   10 ar
    12   12   11 ar
    13   13    8 ar
    14   14    9 1
    15   15    3 1
    16   16    4 1
    17   17    5 1
    18   18    6 1
    19   19   10 1
    20   20   11 1
    21   21   12 1
    22   22   13 1
    23   23   14 1
    24   12   13 ar
@<TRIPOS>SUBSTRUCTURE
     1 RES1 1

@<TRIPOS>CRYSIN
  11.6520    7.6810   20.3600  90.0000  90.0000  90.0000  61 1

