# MOL2 file generated by ConQuest
# Please check atom types

@<TRIPOS>MOLECULE
VEZWIH
    42    45     1
SMALL
NO_CHARGES
****
Generated from CSD

@<TRIPOS>ATOM
      1 O1         7.7880    7.6297    3.2227 O.3       1 RES1    0.0000
      2 O2         9.4475    7.0237    4.6322 O.2       1 RES1    0.0000
      3 O3        12.2421   11.0307   -0.7419 O.2       1 RES1    0.0000
      4 O4        13.9027   10.1053    0.2739 O.2       1 RES1    0.0000
      5 N1         5.3123    5.7447    5.0216 N.pl3     1 RES1    0.0000
      6 N2        12.7063   10.3197    0.1334 N.pl3     1 RES1    0.0000
      7 C1         4.4650    4.5685    5.2170 C.3       1 RES1    0.0000
      8 H1         5.0261    3.8216    5.4896 H         1 RES1    0.0000
      9 H2         3.8659    4.7547    5.9811 H         1 RES1    0.0000
     10 C2         3.6111    4.2240    4.0340 C.2       1 RES1    0.0000
     11 H3         2.7521    3.8945    4.2604 H         1 RES1    0.0000
     12 C3         3.9162    4.2608    2.7395 C.2       1 RES1    0.0000
     13 H4         3.1647    4.0705    2.0696 H         1 RES1    0.0000
     14 C4         5.2037    4.6328    2.0709 C.3       1 RES1    0.0000
     15 H5         5.3899    3.9839    1.3185 H         1 RES1    0.0000
     16 H6         5.0980    5.5083    1.5529 H         1 RES1    0.0000
     17 C5         6.4209    4.7688    2.9928 C.3       1 RES1    0.0000
     18 H7         6.5518    3.8740    3.5093 H         1 RES1    0.0000
     19 H8         7.2136    4.9294    2.4918 H         1 RES1    0.0000
     20 C6         6.2496    5.8572    3.9988 C.2       1 RES1    0.0000
     21 C7         6.8303    7.0895    4.1146 C.2       1 RES1    0.0000
     22 C8         6.2774    7.7911    5.2266 C.ar      1 RES1    0.0000
     23 C9         5.3269    6.8926    5.7905 C.ar      1 RES1    0.0000
     24 C10        4.5942    7.2356    6.9353 C.ar      1 RES1    0.0000
     25 H9         3.9909    6.6413    7.3195 H         1 RES1    0.0000
     26 C11        4.8071    8.4966    7.4697 C.ar      1 RES1    0.0000
     27 H10        4.3326    8.7493    8.2291 H         1 RES1    0.0000
     28 C12        5.7132    9.4028    6.9036 C.ar      1 RES1    0.0000
     29 H11        5.8183   10.2457    7.2822 H         1 RES1    0.0000
     30 C13        6.4522    9.0587    5.7926 C.ar      1 RES1    0.0000
     31 H12        7.0577    9.6601    5.4244 H         1 RES1    0.0000
     32 C14        9.0853    7.5878    3.6387 C.2       1 RES1    0.0000
     33 C15        9.9885    8.3359    2.7069 C.ar      1 RES1    0.0000
     34 C16       11.3550    8.1880    2.8845 C.ar      1 RES1    0.0000
     35 H13       11.6739    7.6460    3.5705 H         1 RES1    0.0000
     36 C17       12.2550    8.8405    2.0476 C.ar      1 RES1    0.0000
     37 H14       13.1726    8.7363    2.1588 H         1 RES1    0.0000
     38 C18       11.7516    9.6452    1.0520 C.ar      1 RES1    0.0000
     39 C19       10.3989    9.8272    0.8613 C.ar      1 RES1    0.0000
     40 H15       10.0866   10.3839    0.1851 H         1 RES1    0.0000
     41 C20        9.5115    9.1638    1.6972 C.ar      1 RES1    0.0000
     42 H16        8.5953    9.2733    1.5808 H         1 RES1    0.0000
@<TRIPOS>BOND
     1    1   21 1
     2    2   32 2
     3    3    6 2
     4    4    6 2
     5    5    7 1
     6    6   38 1
     7    7    8 1
     8    9    7 1
     9   10    7 1
    10   11   10 1
    11   12   10 2
    12   13   12 1
    13   14   12 1
    14   15   14 1
    15   16   14 1
    16   17   14 1
    17   18   17 1
    18   19   17 1
    19   20    5 1
    20   21   20 2
    21   22   21 1
    22   23    5 1
    23   24   23 ar
    24   25   24 1
    25   26   24 ar
    26   27   26 1
    27   28   26 ar
    28   29   28 1
    29   30   22 ar
    30   31   30 1
    31   32    1 1
    32   33   32 1
    33   34   33 ar
    34   35   34 1
    35   36   34 ar
    36   37   36 1
    37   38   36 ar
    38   39   38 ar
    39   40   39 1
    40   41   33 ar
    41   42   41 1
    42   17   20 1
    43   22   23 ar
    44   28   30 ar
    45   39   41 ar
@<TRIPOS>SUBSTRUCTURE
     1 RES1 1

@<TRIPOS>CRYSIN
   7.7980    8.7260   13.8540  74.6100  81.0180  71.0480   2 1

