# MOL2 file generated by ConQuest
# Please check atom types

@<TRIPOS>MOLECULE
VIBBUF
    54    58     1
SMALL
NO_CHARGES
****
Generated from CSD

@<TRIPOS>ATOM
      1 C1         6.3488    4.3231    4.3817 C.3       1 RES1    0.0000
      2 O1         7.1222    0.7963    1.5009 O.3       1 RES1    0.0000
      3 C2         5.8077    6.7590    5.0149 C.3       1 RES1    0.0000
      4 C3         4.6001    2.8905    3.1104 C.3       1 RES1    0.0000
      5 C4         5.1604    4.3150    3.3792 C.3       1 RES1    0.0000
      6 O2         4.6163   -0.6354    0.7319 O.3       1 RES1    0.0000
      7 C5         5.8285    1.1822    1.7008 C.2       1 RES1    0.0000
      8 C6         5.7885    2.0987    2.6823 C.2       1 RES1    0.0000
      9 C7         7.1215    2.3075    3.0684 C.2       1 RES1    0.0000
     10 N1         7.9473    1.5320    2.4047 N.2       1 RES1    0.0000
     11 C8         4.7294    0.8126    0.8057 C.3       1 RES1    0.0000
     12 C9         6.8652    5.7485    4.5817 C.3       1 RES1    0.0000
     13 C10        4.0922    5.3183    3.8144 C.3       1 RES1    0.0000
     14 H1         3.3872    5.3390    3.1479 H         1 RES1    0.0000
     15 H2         3.7012    5.0218    4.6499 H         1 RES1    0.0000
     16 C11        3.6212    2.8254    1.9163 C.3       1 RES1    0.0000
     17 H3         2.7561    3.1608    2.1982 H         1 RES1    0.0000
     18 H4         3.9475    3.4039    1.2090 H         1 RES1    0.0000
     19 C12        7.5278    3.3858    4.0052 C.3       1 RES1    0.0000
     20 H5         8.2328    3.9128    3.5960 H         1 RES1    0.0000
     21 H6         7.8857    2.9863    4.8134 H         1 RES1    0.0000
     22 C13        3.9382    2.2813    4.3611 C.3       1 RES1    0.0000
     23 H7         3.6927    1.3702    4.1821 H         1 RES1    0.0000
     24 H8         3.1532    2.7857    4.5851 H         1 RES1    0.0000
     25 H9         4.5563    2.3075    5.0952 H         1 RES1    0.0000
     26 O3         7.6502    8.2494    5.7747 O.3       1 RES1    0.0000
     27 C14        8.0551    5.8371    5.5546 C.3       1 RES1    0.0000
     28 H10        7.8365    5.3237    6.3493 H         1 RES1    0.0000
     29 H11        8.8201    5.4123    5.1375 H         1 RES1    0.0000
     30 C15        3.4488    1.3983    1.3583 C.3       1 RES1    0.0000
     31 H12        3.1186    0.8216    2.0657 H         1 RES1    0.0000
     32 H13        2.7807    1.4136    0.6538 H         1 RES1    0.0000
     33 C16        4.6455    6.7265    3.9961 C.3       1 RES1    0.0000
     34 H14        3.9359    7.3131    4.3005 H         1 RES1    0.0000
     35 H15        4.9603    7.0600    3.1422 H         1 RES1    0.0000
     36 O4         9.4804    7.4134    6.5747 O.2       1 RES1    0.0000
     37 C17        4.6794   -1.2446   -0.3974 C.2       1 RES1    0.0000
     38 C18        6.4634    8.1247    4.9650 C.3       1 RES1    0.0000
     39 H16        6.6951    8.3236    4.0440 H         1 RES1    0.0000
     40 H17        5.8192    8.7890    5.2558 H         1 RES1    0.0000
     41 C19        8.4591    7.2055    5.9824 C.2       1 RES1    0.0000
     42 C20        4.6332   -2.7197   -0.3337 C.3       1 RES1    0.0000
     43 H18        3.7989   -2.9972    0.0535 H         1 RES1    0.0000
     44 H19        5.3582   -3.0396    0.2085 H         1 RES1    0.0000
     45 H20        4.7117   -3.0812   -1.2203 H         1 RES1    0.0000
     46 C21        5.2720    6.4978    6.4420 C.3       1 RES1    0.0000
     47 H21        5.9870    6.5990    7.0764 H         1 RES1    0.0000
     48 H22        4.9226    5.6048    6.4930 H         1 RES1    0.0000
     49 H23        4.5755    7.1269    6.6424 H         1 RES1    0.0000
     50 O5         4.7879   -0.6526   -1.3893 O.2       1 RES1    0.0000
     51 H24        5.9185    4.0041    5.2530 H         1 RES1    0.0000
     52 H25        5.4644    4.6639    2.5166 H         1 RES1    0.0000
     53 H26        4.9103    1.0937   -0.0648 H         1 RES1    0.0000
     54 H27        7.2115    6.0468    3.6580 H         1 RES1    0.0000
@<TRIPOS>BOND
     1    1    5 1
     2    2    7 1
     3    3   12 1
     4    4    5 1
     5    5   13 1
     6    6   11 1
     7    7    8 2
     8    8    4 1
     9    9    8 1
    10   10    2 1
    11   11    7 1
    12   12    1 1
    13   13   14 1
    14   15   13 1
    15   16    4 1
    16   17   16 1
    17   18   16 1
    18   19    1 1
    19   20   19 1
    20   21   19 1
    21   22    4 1
    22   23   22 1
    23   24   22 1
    24   25   22 1
    25   26   38 1
    26   27   12 1
    27   28   27 1
    28   29   27 1
    29   30   11 1
    30   31   30 1
    31   32   30 1
    32   33    3 1
    33   34   33 1
    34   35   33 1
    35   36   41 2
    36   37    6 1
    37   38    3 1
    38   39   38 1
    39   40   38 1
    40   41   26 1
    41   42   37 1
    42   43   42 1
    43   44   42 1
    44   45   42 1
    45   46    3 1
    46   47   46 1
    47   48   46 1
    48   49   46 1
    49   50   37 2
    50   51    1 1
    51   52    5 1
    52   53   11 1
    53   54   12 1
    54    9   10 2
    55    9   19 1
    56   13   33 1
    57   16   30 1
    58   27   41 1
@<TRIPOS>SUBSTRUCTURE
     1 RES1 1

@<TRIPOS>CRYSIN
   7.6964    9.0385   28.1815  90.0000  90.0000  90.0000  19 1

