# MOL2 file generated by ConQuest
# Please check atom types

@<TRIPOS>MOLECULE
VIBBEQ
    31    32     1
SMALL
NO_CHARGES
****
Generated from CSD

@<TRIPOS>ATOM
      1 C1        10.5080    0.8208    0.5558 C.3       1 RES1    0.0000
      2 H1        10.6078    0.1246   -0.1405 H         1 RES1    0.0000
      3 H2        11.1603    1.5408    0.3663 H         1 RES1    0.0000
      4 C2         8.1789    0.9022    1.2861 C.2       1 RES1    0.0000
      5 C3         9.7558   -0.7254    2.1601 C.3       1 RES1    0.0000
      6 H3         9.9020   -1.0860    3.0709 H         1 RES1    0.0000
      7 H4         9.8152   -1.4785    1.5203 H         1 RES1    0.0000
      8 C4        11.1166    1.1914    2.8873 C.ar      1 RES1    0.0000
      9 C5        10.3901    1.3315    4.0547 C.ar      1 RES1    0.0000
     10 H5         9.6087    0.8080    4.1877 H         1 RES1    0.0000
     11 C6        10.7908    2.2284    5.0371 C.ar      1 RES1    0.0000
     12 H6        10.2903    2.2998    5.8416 H         1 RES1    0.0000
     13 C7        11.9061    3.0162    4.8574 C.ar      1 RES1    0.0000
     14 C8        12.6410    2.8862    3.6866 C.ar      1 RES1    0.0000
     15 H7        13.4110    3.4252    3.5460 H         1 RES1    0.0000
     16 C9        12.2529    1.9744    2.7268 C.ar      1 RES1    0.0000
     17 H8        12.7740    1.8796    1.9389 H         1 RES1    0.0000
     18 C10       11.5479    4.1331    6.9332 C.3       1 RES1    0.0000
     19 H9        10.6577    4.4366    6.6569 H         1 RES1    0.0000
     20 H10       11.9619    4.8127    7.5052 H         1 RES1    0.0000
     21 H11       11.4660    3.2926    7.4308 H         1 RES1    0.0000
     22 N1        10.7886    0.2455    1.8570 N.3       1 RES1    0.0000
     23 N2         9.1503    1.3677    0.5080 N.3       1 RES1    0.0000
     24 H12        8.9728    2.0234   -0.0523 H         1 RES1    0.0000
     25 N3         8.4141   -0.1230    2.0823 N.3       1 RES1    0.0000
     26 H13        7.7621   -0.4511    2.5724 H         1 RES1    0.0000
     27 N4         7.0026    1.5936    1.1127 N.2       1 RES1    0.0000
     28 N5         5.9669    1.3273    1.9020 N.pl3     1 RES1    0.0000
     29 O1        12.3651    3.9237    5.7718 O.3       1 RES1    0.0000
     30 O2         5.9808    0.5065    2.8356 O.2       1 RES1    0.0000
     31 O3         4.9350    1.9840    1.6509 O.2       1 RES1    0.0000
@<TRIPOS>BOND
     1    1    2 1
     2    3    1 1
     3    4   23 1
     4    5    6 1
     5    7    5 1
     6    8    9 ar
     7    9   10 1
     8   11    9 ar
     9   12   11 1
    10   13   11 ar
    11   14   13 ar
    12   15   14 1
    13   16    8 ar
    14   17   16 1
    15   18   19 1
    16   20   18 1
    17   21   18 1
    18   22    1 1
    19   23    1 1
    20   24   23 1
    21   25    4 1
    22   26   25 1
    23   27    4 2
    24   28   27 1
    25   29   13 1
    26   30   28 2
    27   31   28 2
    28    5   22 1
    29    5   25 1
    30    8   22 1
    31   14   16 ar
    32   18   29 1
@<TRIPOS>SUBSTRUCTURE
     1 RES1 1

@<TRIPOS>CRYSIN
  15.4268    5.3261   14.6589  90.0000 110.0450  90.0000  14 1

