# MOL2 file generated by ConQuest
# Please check atom types

@<TRIPOS>MOLECULE
VIBKUN
    26    26     1
SMALL
NO_CHARGES
****
Generated from CSD

@<TRIPOS>ATOM
      1 N1         0.1608    1.4110    8.6927 N.2       1 RES1    0.0000
      2 C1         0.5793    1.7760    7.5395 C.2       1 RES1    0.0000
      3 C2         1.8076    1.0654    7.0634 C.2       1 RES1    0.0000
      4 C3         2.3343   -0.0478    7.8358 C.2       1 RES1    0.0000
      5 H1         1.8783   -0.3383    8.6045 H         1 RES1    0.0000
      6 C4         3.4624   -0.6622    7.4618 C.2       1 RES1    0.0000
      7 H2         3.8757   -0.3382    6.6816 H         1 RES1    0.0000
      8 C5        -0.0403    2.8326    6.6891 C.3       1 RES1    0.0000
      9 H3        -0.9689    2.6079    6.5192 H         1 RES1    0.0000
     10 H4         0.4368    2.8914    5.8464 H         1 RES1    0.0000
     11 H5         0.0073    3.6864    7.1476 H         1 RES1    0.0000
     12 O1        -0.9748    2.1338    9.0652 O.3       1 RES1    0.0000
     13 C6        -1.4233    1.6776   10.3462 C.3       1 RES1    0.0000
     14 H6        -1.4553    0.7081   10.3516 H         1 RES1    0.0000
     15 H7        -2.3088    2.0316   10.5229 H         1 RES1    0.0000
     16 H8        -0.8096    1.9852   11.0311 H         1 RES1    0.0000
     17 O2         2.3364    1.4483    6.0198 O.2       1 RES1    0.0000
     18 C7         4.1084   -1.7547    8.1144 C.2       1 RES1    0.0000
     19 C8         3.8000   -2.4925    9.2334 C.2       1 RES1    0.0000
     20 H9         3.0464   -2.3722    9.7822 H         1 RES1    0.0000
     21 C9         4.7993   -3.4510    9.4138 C.2       1 RES1    0.0000
     22 H10        4.8405   -4.0880   10.1036 H         1 RES1    0.0000
     23 C10        5.7054   -3.2932    8.4067 C.2       1 RES1    0.0000
     24 H11        6.4863   -3.8018    8.2831 H         1 RES1    0.0000
     25 N2         5.2883   -2.2804    7.6178 N.pl3     1 RES1    0.0000
     26 H12        5.7046   -1.9751    6.8407 H         1 RES1    0.0000
@<TRIPOS>BOND
     1    1    2 2
     2    2    3 1
     3    3    4 1
     4    4    5 1
     5    6    4 2
     6    7    6 1
     7    8    2 1
     8    9    8 1
     9   10    8 1
    10   11    8 1
    11   12    1 1
    12   13   12 1
    13   14   13 1
    14   15   13 1
    15   16   13 1
    16   17    3 2
    17   18    6 1
    18   19   18 2
    19   20   19 1
    20   21   19 1
    21   22   21 1
    22   23   21 2
    23   24   23 1
    24   25   18 1
    25   26   25 1
    26   23   25 1
@<TRIPOS>SUBSTRUCTURE
     1 RES1 1

@<TRIPOS>CRYSIN
   5.6450    8.4330   11.4340  84.2600  76.7200  73.0700   2 1

