# MOL2 file generated by ConQuest
# Please check atom types

@<TRIPOS>MOLECULE
VIBKAT
    42    43     1
SMALL
NO_CHARGES
****
Generated from CSD

@<TRIPOS>ATOM
      1 N1         8.7747    3.3318    4.2655 N.3       1 RES1    0.0000
      2 C1         7.6169    3.1457    4.9783 C.2       1 RES1    0.0000
      3 C2         8.0279    2.7573    6.2168 C.2       1 RES1    0.0000
      4 C3         9.4476    2.6902    6.2659 C.2       1 RES1    0.0000
      5 C4         9.9001    3.0706    4.9991 C.2       1 RES1    0.0000
      6 C5        11.2617    3.2471    4.5451 C.2       1 RES1    0.0000
      7 H1        11.9285    2.8988    5.1101 H         1 RES1    0.0000
      8 C6        11.6978    3.8384    3.4315 C.2       1 RES1    0.0000
      9 H2        11.0503    4.1628    2.8323 H         1 RES1    0.0000
     10 O1         7.1671    2.3858    7.2484 O.3       1 RES1    0.0000
     11 O2         8.7536    3.7209    2.9443 O.3       1 RES1    0.0000
     12 C7         6.2669    3.4013    4.4017 C.3       1 RES1    0.0000
     13 H3         5.6059    3.3958    5.1118 H         1 RES1    0.0000
     14 H4         6.0548    2.7094    3.7564 H         1 RES1    0.0000
     15 H5         6.2615    4.2659    3.9623 H         1 RES1    0.0000
     16 C8         8.8333    2.5560    2.0869 C.3       1 RES1    0.0000
     17 H6         9.6845    2.1118    2.2243 H         1 RES1    0.0000
     18 H7         8.7578    2.8309    1.1592 H         1 RES1    0.0000
     19 H8         8.1124    1.9448    2.3038 H         1 RES1    0.0000
     20 C9        13.1081    4.0238    3.0656 C.ar      1 RES1    0.0000
     21 C10       14.1632    3.5476    3.8368 C.ar      1 RES1    0.0000
     22 H9        13.9811    3.0849    4.6351 H         1 RES1    0.0000
     23 C11       15.4755    3.7433    3.4485 C.ar      1 RES1    0.0000
     24 H10       16.1732    3.4069    3.9801 H         1 RES1    0.0000
     25 C12       15.7686    4.4305    2.2876 C.ar      1 RES1    0.0000
     26 H11       16.6620    4.5695    2.0282 H         1 RES1    0.0000
     27 C13       14.7393    4.9051    1.5191 C.ar      1 RES1    0.0000
     28 H12       14.9265    5.3749    0.7263 H         1 RES1    0.0000
     29 C14       13.4223    4.6997    1.9004 C.ar      1 RES1    0.0000
     30 H13       12.7292    5.0257    1.3554 H         1 RES1    0.0000
     31 C15        6.5299    3.3726    7.9253 C.2       1 RES1    0.0000
     32 C16        5.7656    2.8588    9.0828 C.3       1 RES1    0.0000
     33 H14        5.5293    3.5955    9.6674 H         1 RES1    0.0000
     34 H15        6.3082    2.2196    9.5702 H         1 RES1    0.0000
     35 H16        4.9577    2.4226    8.7693 H         1 RES1    0.0000
     36 O3         6.5565    4.5104    7.5553 O.2       1 RES1    0.0000
     37 C17       10.2989    2.2700    7.3877 C.2       1 RES1    0.0000
     38 C18        9.6863    2.0694    8.7266 C.3       1 RES1    0.0000
     39 H17       10.3689    1.7906    9.3562 H         1 RES1    0.0000
     40 H18        9.0008    1.3855    8.6688 H         1 RES1    0.0000
     41 H19        9.2892    2.9012    9.0287 H         1 RES1    0.0000
     42 O4        11.4917    2.0942    7.2576 O.2       1 RES1    0.0000
@<TRIPOS>BOND
     1    1    2 1
     2    2    3 2
     3    3    4 1
     4    4    5 2
     5    5    1 1
     6    6    5 1
     7    7    6 1
     8    8    6 2
     9    9    8 1
    10   10    3 1
    11   11    1 1
    12   12    2 1
    13   13   12 1
    14   14   12 1
    15   15   12 1
    16   16   11 1
    17   17   16 1
    18   18   16 1
    19   19   16 1
    20   20    8 1
    21   21   20 ar
    22   22   21 1
    23   23   21 ar
    24   24   23 1
    25   25   23 ar
    26   26   25 1
    27   27   25 ar
    28   28   27 1
    29   29   20 ar
    30   30   29 1
    31   31   10 1
    32   32   31 1
    33   33   32 1
    34   34   32 1
    35   35   32 1
    36   36   31 2
    37   37    4 1
    38   38   37 1
    39   39   38 1
    40   40   38 1
    41   41   38 1
    42   42   37 2
    43   27   29 ar
@<TRIPOS>SUBSTRUCTURE
     1 RES1 1

@<TRIPOS>CRYSIN
  12.8630    7.9900   16.6950  90.0000 103.8100  90.0000 231 1

