# MOL2 file generated by ConQuest
# Please check atom types

@<TRIPOS>MOLECULE
VIBLAU
    72    66     2
SMALL
NO_CHARGES
****
Generated from CSD

@<TRIPOS>ATOM
      1 N1        -3.2021    1.1168   15.6445 N.3       1 RES1    0.0000
      2 C1        -2.7640    0.0624   16.4057 C.2       1 RES1    0.0000
      3 C2        -3.2339    0.3404   17.6531 C.2       1 RES1    0.0000
      4 C3        -3.9122    1.5891   17.6738 C.2       1 RES1    0.0000
      5 C4        -3.8990    2.0465   16.3565 C.2       1 RES1    0.0000
      6 C5        -1.9291   -1.0516   15.8750 C.3       1 RES1    0.0000
      7 H1        -2.2488   -1.3052   14.9948 H         1 RES1    0.0000
      8 H2        -1.9888   -1.8133   16.4723 H         1 RES1    0.0000
      9 H3        -1.0044   -0.7626   15.8111 H         1 RES1    0.0000
     10 O1        -3.2758   -0.6269   18.6864 O.3       1 RES1    0.0000
     11 C6        -2.3844   -0.3202   19.6712 C.2       1 RES1    0.0000
     12 O2        -1.6740    0.6168   19.6029 O.2       1 RES1    0.0000
     13 C7        -2.4537   -1.3953   20.7918 C.3       1 RES1    0.0000
     14 H4        -2.2360   -2.2641   20.4198 H         1 RES1    0.0000
     15 H5        -3.3479   -1.4164   21.1653 H         1 RES1    0.0000
     16 H6        -1.8176   -1.1754   21.4906 H         1 RES1    0.0000
     17 O3        -2.4312   -0.1306   18.8444 Du        2 SUP2    0.0000
     18 C8        -3.2366   -1.0718   19.4197 Du        2 SUP2    0.0000
     19 O4        -4.2492   -1.4316   18.9378 Du        2 SUP2    0.0000
     20 C9        -2.5903   -1.4661   20.6156 Du        2 SUP2    0.0000
     21 H7        -3.0650   -2.2118   21.0102 Du        2 SUP2    0.0000
     22 H8        -2.5834   -0.7204   21.2391 Du        2 SUP2    0.0000
     23 H9        -1.6780   -1.7282   20.4183 Du        2 SUP2    0.0000
     24 C10       -4.4066    2.2809   18.8750 C.2       1 RES1    0.0000
     25 O5        -4.9211    1.5613   19.7993 O.2       1 RES1    0.0000
     26 O6        -4.3418    1.8217   19.9649 Du        2 SUP2    0.0000
     27 C11       -4.4350    3.7639   18.9119 C.3       1 RES1    0.0000
     28 H10       -5.2155    4.0849   18.4317 H         1 RES1    0.0000
     29 H11       -3.6325    4.1136   18.4950 H         1 RES1    0.0000
     30 H12       -4.4778    4.0639   19.8339 H         1 RES1    0.0000
     31 O7        -2.9713    1.1973   14.2848 O.3       1 RES1    0.0000
     32 C12       -4.0829    0.6539   13.5424 C.3       1 RES1    0.0000
     33 H13       -4.2706   -0.2452   13.8547 H         1 RES1    0.0000
     34 H14       -3.8605    0.6286   12.5986 H         1 RES1    0.0000
     35 H15       -4.8655    1.2117   13.6754 H         1 RES1    0.0000
     36 C13       -4.5801    3.1662   15.7005 C.ar      1 RES1    0.0000
     37 C14       -3.9128    4.0092   14.8136 C.ar      1 RES1    0.0000
     38 H16       -2.9987    3.8726   14.6393 H         1 RES1    0.0000
     39 C15       -5.9368    3.3817   15.9332 C.ar      1 RES1    0.0000
     40 H17       -6.4028    2.8160   16.5220 H         1 RES1    0.0000
     41 N1D       -7.3170    7.3092   14.4776 N.3       1 RES1    0.0000
     42 C1D       -7.7551    8.3636   13.7164 C.2       1 RES1    0.0000
     43 C2D       -7.2852    8.0856   12.4690 C.2       1 RES1    0.0000
     44 C3D       -6.6069    6.8369   12.4483 C.2       1 RES1    0.0000
     45 C4D       -6.6202    6.3795   13.7657 C.2       1 RES1    0.0000
     46 C5D       -8.5900    9.4776   14.2472 C.3       1 RES1    0.0000
     47 H1D       -8.2703    9.7312   15.1273 H         1 RES1    0.0000
     48 H2D       -8.5303   10.2393   13.6498 H         1 RES1    0.0000
     49 H3D       -9.5148    9.1886   14.3110 H         1 RES1    0.0000
     50 O1D       -7.2433    9.0529   11.4357 O.3       1 RES1    0.0000
     51 C6D       -8.1347    8.7462   10.4509 C.2       1 RES1    0.0000
     52 O2D       -8.8451    7.8092   10.5192 O.2       1 RES1    0.0000
     53 C7D       -8.0654    9.8213    9.3303 C.3       1 RES1    0.0000
     54 H4D       -8.2831   10.6901    9.7023 H         1 RES1    0.0000
     55 H5D       -7.1712    9.8424    8.9568 H         1 RES1    0.0000
     56 H6D       -8.7015    9.6014    8.6315 H         1 RES1    0.0000
     57 C10D      -6.1125    6.1451   11.2471 C.2       1 RES1    0.0000
     58 O5D       -5.5980    6.8647   10.3228 O.2       1 RES1    0.0000
     59 C11D      -6.0841    4.6621   11.2102 C.3       1 RES1    0.0000
     60 H10D      -5.3036    4.3411   11.6904 H         1 RES1    0.0000
     61 H11D      -6.8866    4.3124   11.6271 H         1 RES1    0.0000
     62 H12D      -6.0413    4.3621   10.2882 H         1 RES1    0.0000
     63 O7D       -7.5478    7.2287   15.8373 O.3       1 RES1    0.0000
     64 C12D      -6.4362    7.7721   16.5797 C.3       1 RES1    0.0000
     65 H13D      -6.2485    8.6712   16.2674 H         1 RES1    0.0000
     66 H14D      -6.6586    7.7974   17.5235 H         1 RES1    0.0000
     67 H15D      -5.6536    7.2143   16.4467 H         1 RES1    0.0000
     68 C13D      -5.9390    5.2598   14.4216 C.ar      1 RES1    0.0000
     69 C14D      -6.6064    4.4168   15.3085 C.ar      1 RES1    0.0000
     70 H16D      -7.5204    4.5534   15.4828 H         1 RES1    0.0000
     71 C15D      -4.5823    5.0443   14.1889 C.ar      1 RES1    0.0000
     72 H17D      -4.1163    5.6100   13.6001 H         1 RES1    0.0000
@<TRIPOS>BOND
     1    1    2 1
     2    2    3 2
     3    3    4 1
     4    4    5 2
     5    5    1 1
     6    6    2 1
     7    7    6 1
     8    8    6 1
     9    9    6 1
    10   10    3 1
    11   11   10 1
    12   12   11 2
    13   13   11 1
    14   14   13 1
    15   15   13 1
    16   16   13 1
    17   24    4 1
    18   25   24 2
    19   27   24 1
    20   28   27 1
    21   29   27 1
    22   30   27 1
    23   31    1 1
    24   32   31 1
    25   33   32 1
    26   34   32 1
    27   35   32 1
    28   36    5 1
    29   37   36 ar
    30   38   37 1
    31   39   36 ar
    32   40   39 1
    33   41   42 1
    34   42   43 2
    35   43   44 1
    36   44   45 2
    37   45   41 1
    38   46   42 1
    39   47   46 1
    40   48   46 1
    41   49   46 1
    42   50   43 1
    43   51   50 1
    44   52   51 2
    45   53   51 1
    46   54   53 1
    47   55   53 1
    48   56   53 1
    49   57   44 1
    50   58   57 2
    51   59   57 1
    52   60   59 1
    53   61   59 1
    54   62   59 1
    55   63   41 1
    56   64   63 1
    57   65   64 1
    58   66   64 1
    59   67   64 1
    60   68   45 1
    61   69   39 ar
    62   70   69 1
    63   71   37 ar
    64   72   71 1
    65   68   69 ar
    66   68   71 ar
@<TRIPOS>SUBSTRUCTURE
     1 RES1 1
     2 SUP2 17

@<TRIPOS>CRYSIN
  20.4210    8.4260   15.9530  90.0000 109.2500  90.0000  15 1

