# MOL2 file generated by ConQuest
# Please check atom types

@<TRIPOS>MOLECULE
VIBPEE
   118   128     2
SMALL
NO_CHARGES
****
Generated from CSD

@<TRIPOS>ATOM
      1 O1        -2.1719    0.4643    4.3621 O.2       1 RES1    0.0000
      2 N1         2.0920    2.5591    0.3304 N.ar      1 RES1    0.0000
      3 N2        -0.9764    0.7038    4.5577 N.pl3     1 RES1    0.0000
      4 O2        -0.5664    1.2157    5.5873 O.2       1 RES1    0.0000
      5 C1         1.5708    6.3152    2.0736 C.ar      1 RES1    0.0000
      6 H1         1.4352    7.1478    2.4633 H         1 RES1    0.0000
      7 C2         0.4744    5.5922    1.5780 C.ar      1 RES1    0.0000
      8 H2        -0.3814    5.9486    1.6454 H         1 RES1    0.0000
      9 C3         0.6597    4.3661    0.9927 C.ar      1 RES1    0.0000
     10 H3        -0.0705    3.8986    0.6575 H         1 RES1    0.0000
     11 C4         1.9536    3.8076    0.8997 C.ar      1 RES1    0.0000
     12 C5         3.2888    2.0230    0.3207 C.ar      1 RES1    0.0000
     13 C6         3.4050    0.6485   -0.2357 C.ar      1 RES1    0.0000
     14 C7         2.6376   -0.4046    0.2806 C.ar      1 RES1    0.0000
     15 C8         2.7426   -1.6725   -0.2806 C.ar      1 RES1    0.0000
     16 H4         2.2129   -2.3582    0.0593 H         1 RES1    0.0000
     17 C9         3.6114   -1.9546   -1.3343 C.ar      1 RES1    0.0000
     18 C10        3.7072   -3.3062   -1.9244 C.ar      1 RES1    0.0000
     19 C11        3.7679   -3.4856   -3.2972 C.ar      1 RES1    0.0000
     20 H5         3.7532   -2.7414   -3.8537 H         1 RES1    0.0000
     21 C12        3.8518   -4.7504   -3.8569 C.ar      1 RES1    0.0000
     22 H6         3.8821   -4.8512   -4.7806 H         1 RES1    0.0000
     23 C13        3.8885   -5.8646   -3.0310 C.ar      1 RES1    0.0000
     24 H7         3.9536   -6.7166   -3.3966 H         1 RES1    0.0000
     25 C14        1.7183   -0.1948    1.4481 C.ar      1 RES1    0.0000
     26 C15        0.3984   -0.6408    1.3872 C.ar      1 RES1    0.0000
     27 H8         0.1188   -1.1428    0.6559 H         1 RES1    0.0000
     28 C16       -0.5024   -0.3485    2.3975 C.ar      1 RES1    0.0000
     29 H9        -1.3947   -0.6040    2.3334 H         1 RES1    0.0000
     30 C17       -0.0361    0.3321    3.5041 C.ar      1 RES1    0.0000
     31 C18        1.2903    0.7041    3.6532 C.ar      1 RES1    0.0000
     32 H10        1.5889    1.1115    4.4342 H         1 RES1    0.0000
     33 C19        2.1596    0.4480    2.6076 C.ar      1 RES1    0.0000
     34 H11        3.0499    0.7092    2.6766 H         1 RES1    0.0000
     35 C20        4.3683   -0.8983   -1.8426 C.ar      1 RES1    0.0000
     36 H12        4.9480   -1.0577   -2.5531 H         1 RES1    0.0000
     37 C21        4.2810    0.3894   -1.3166 C.ar      1 RES1    0.0000
     38 C22        5.1142    1.4653   -1.9260 C.ar      1 RES1    0.0000
     39 C23        4.5253    2.6172   -2.4569 C.ar      1 RES1    0.0000
     40 H13        3.6020    2.7229   -2.4232 H         1 RES1    0.0000
     41 C24        5.3077    3.5995   -3.0326 C.ar      1 RES1    0.0000
     42 H14        4.9078    4.3587   -3.3934 H         1 RES1    0.0000
     43 C25        6.6953    3.4571   -3.0727 C.ar      1 RES1    0.0000
     44 H15        7.2196    4.1215   -3.4592 H         1 RES1    0.0000
     45 C26        7.2844    2.3374   -2.5435 C.ar      1 RES1    0.0000
     46 H16        8.2098    2.2490   -2.5563 H         1 RES1    0.0000
     47 C27        6.4921    1.3303   -1.9854 C.ar      1 RES1    0.0000
     48 H17        6.8929    0.5619   -1.6502 H         1 RES1    0.0000
     49 C28        3.8282   -5.6997   -1.6598 C.ar      1 RES1    0.0000
     50 H18        3.8479   -6.4452   -1.1033 H         1 RES1    0.0000
     51 C29        3.7389   -4.4281   -1.1049 C.ar      1 RES1    0.0000
     52 H19        3.6990   -4.3285   -0.1812 H         1 RES1    0.0000
     53 C30        4.4538    2.6937    0.8179 C.ar      1 RES1    0.0000
     54 H20        5.2876    2.2833    0.7762 H         1 RES1    0.0000
     55 C31        4.3250    3.9373    1.3471 C.ar      1 RES1    0.0000
     56 H21        5.0733    4.3907    1.6630 H         1 RES1    0.0000
     57 C32        3.0543    4.5372    1.4177 C.ar      1 RES1    0.0000
     58 C33        2.8281    5.8109    1.9902 C.ar      1 RES1    0.0000
     59 H22        3.5462    6.3061    2.3125 H         1 RES1    0.0000
     60 N3         2.5973    7.5609    6.3806 N.ar      2 RES2    0.0000
     61 O3         5.1433    5.2327   11.5546 O.2       2 RES2    0.0000
     62 O4         6.7703    6.5331   11.0078 O.2       2 RES2    0.0000
     63 N4         5.5764    6.2512   11.0495 N.pl3     2 RES2    0.0000
     64 C34        3.2716    3.7241    4.8592 C.ar      2 RES2    0.0000
     65 H23        3.4432    2.8713    4.5321 H         2 RES2    0.0000
     66 C35        1.9971    4.0814    5.2024 C.ar      2 RES2    0.0000
     67 H24        1.3038    3.4722    5.0933 H         2 RES2    0.0000
     68 C36        1.7225    5.3722    5.7268 C.ar      2 RES2    0.0000
     69 C37        2.7781    6.2896    5.8711 C.ar      2 RES2    0.0000
     70 C38        1.3753    7.9020    6.7564 C.ar      2 RES2    0.0000
     71 C39        1.2214    9.2930    7.2728 C.ar      2 RES2    0.0000
     72 C40        0.3219   10.1748    6.6233 C.ar      2 RES2    0.0000
     73 C41        0.2647   11.5057    7.0194 C.ar      2 RES2    0.0000
     74 H25       -0.3449   12.0701    6.6040 H         2 RES2    0.0000
     75 C42        1.0812   12.0235    8.0105 C.ar      2 RES2    0.0000
     76 C43        1.0836   13.4761    8.2991 C.ar      2 RES2    0.0000
     77 C44       -0.0986   14.2041    8.2783 C.ar      2 RES2    0.0000
     78 H26       -0.9041   13.7751    8.1003 H         2 RES2    0.0000
     79 C45       -0.0827   15.5710    8.5237 C.ar      2 RES2    0.0000
     80 H27       -0.8806   16.0489    8.5205 H         2 RES2    0.0000
     81 C46        1.0890   16.2140    8.7690 C.ar      2 RES2    0.0000
     82 H28        1.0856   17.1309    8.9246 H         2 RES2    0.0000
     83 C47        4.0855    5.9015    5.4895 C.ar      2 RES2    0.0000
     84 H29        4.7877    6.5066    5.5696 H         2 RES2    0.0000
     85 C48        4.3265    4.6477    5.0035 C.ar      2 RES2    0.0000
     86 H30        5.1912    4.4020    4.7646 H         2 RES2    0.0000
     87 C49        0.2606    7.0404    6.6345 C.ar      2 RES2    0.0000
     88 H31       -0.5839    7.3224    6.9039 H         2 RES2    0.0000
     89 C50        0.4401    5.7944    6.1181 C.ar      2 RES2    0.0000
     90 H32       -0.2869    5.2220    6.0251 H         2 RES2    0.0000
     91 C51       -0.5126    9.7571    5.4622 C.ar      2 RES2    0.0000
     92 C52       -1.8920    9.7953    5.5440 C.ar      2 RES2    0.0000
     93 H33       -2.2960   10.0711    6.3362 H         2 RES2    0.0000
     94 C53       -2.6856    9.4284    4.4615 C.ar      2 RES2    0.0000
     95 H34       -3.6123    9.4332    4.5449 H         2 RES2    0.0000
     96 C54       -2.1057    9.0569    3.2651 C.ar      2 RES2    0.0000
     97 H35       -2.6379    8.8367    2.5354 H         2 RES2    0.0000
     98 C55       -0.7184    9.0127    3.1561 C.ar      2 RES2    0.0000
     99 H36       -0.3206    8.7520    2.3574 H         2 RES2    0.0000
    100 C56        0.0710    9.3577    4.2498 C.ar      2 RES2    0.0000
    101 H37        0.9968    9.3240    4.1760 H         2 RES2    0.0000
    102 C57        2.2896   15.5175    8.7899 C.ar      2 RES2    0.0000
    103 H38        3.0874   15.9635    8.9631 H         2 RES2    0.0000
    104 C58        2.2876   14.1545    8.5509 C.ar      2 RES2    0.0000
    105 H39        3.0893   13.6835    8.5589 H         2 RES2    0.0000
    106 C59        1.9268   11.1351    8.6872 C.ar      2 RES2    0.0000
    107 H40        2.4548   11.4526    9.3832 H         2 RES2    0.0000
    108 C60        1.9947    9.7853    8.3440 C.ar      2 RES2    0.0000
    109 C61        2.8934    8.8863    9.1379 C.ar      2 RES2    0.0000
    110 C62        2.4611    7.6440    9.5917 C.ar      2 RES2    0.0000
    111 H41        1.5840    7.3747    9.4346 H         2 RES2    0.0000
    112 C63        3.3228    6.8079   10.2701 C.ar      2 RES2    0.0000
    113 H42        3.0248    5.9916   10.6021 H         2 RES2    0.0000
    114 C64        4.6335    7.2004   10.4513 C.ar      2 RES2    0.0000
    115 C65        5.0862    8.4356   10.0760 C.ar      2 RES2    0.0000
    116 H43        5.9642    8.6936   10.2396 H         2 RES2    0.0000
    117 C66        4.1881    9.2999    9.4394 C.ar      2 RES2    0.0000
    118 H44        4.4598   10.1603    9.2132 H         2 RES2    0.0000
@<TRIPOS>BOND
     1    1    3 2
     2    2   11 ar
     3    3    4 2
     4    5    6 1
     5    7    5 ar
     6    8    7 1
     7    9    7 ar
     8   10    9 1
     9   11    9 ar
    10   12    2 ar
    11   13   12 1
    12   14   13 ar
    13   15   14 ar
    14   16   15 1
    15   17   15 ar
    16   18   17 1
    17   19   18 ar
    18   20   19 1
    19   21   19 ar
    20   22   21 1
    21   23   21 ar
    22   24   23 1
    23   25   14 1
    24   26   25 ar
    25   27   26 1
    26   28   26 ar
    27   29   28 1
    28   30    3 1
    29   31   30 ar
    30   32   31 1
    31   33   25 ar
    32   34   33 1
    33   35   17 ar
    34   36   35 1
    35   37   13 ar
    36   38   37 1
    37   39   38 ar
    38   40   39 1
    39   41   39 ar
    40   42   41 1
    41   43   41 ar
    42   44   43 1
    43   45   43 ar
    44   46   45 1
    45   47   38 ar
    46   48   47 1
    47   49   23 ar
    48   50   49 1
    49   51   18 ar
    50   52   51 1
    51   53   12 ar
    52   54   53 1
    53   55   53 ar
    54   56   55 1
    55   57   11 ar
    56   58    5 ar
    57   59   58 1
    58   60   69 ar
    59   61   63 2
    60   62   63 2
    61   63  114 1
    62   64   65 1
    63   66   64 ar
    64   67   66 1
    65   68   66 ar
    66   69   68 ar
    67   70   60 ar
    68   71   70 1
    69   72   71 ar
    70   73   72 ar
    71   74   73 1
    72   75   73 ar
    73   76   75 1
    74   77   76 ar
    75   78   77 1
    76   79   77 ar
    77   80   79 1
    78   81   79 ar
    79   82   81 1
    80   83   69 ar
    81   84   83 1
    82   85   64 ar
    83   86   85 1
    84   87   70 ar
    85   88   87 1
    86   89   68 ar
    87   90   89 1
    88   91   72 1
    89   92   91 ar
    90   93   92 1
    91   94   92 ar
    92   95   94 1
    93   96   94 ar
    94   97   96 1
    95   98   96 ar
    96   99   98 1
    97  100   91 ar
    98  101  100 1
    99  102   81 ar
   100  103  102 1
   101  104   76 ar
   102  105  104 1
   103  106   75 ar
   104  107  106 1
   105  108   71 ar
   106  109  108 1
   107  110  109 ar
   108  111  110 1
   109  112  110 ar
   110  113  112 1
   111  114  112 ar
   112  115  114 ar
   113  116  115 1
   114  117  109 ar
   115  118  117 1
   116   28   30 ar
   117   31   33 ar
   118   35   37 ar
   119   45   47 ar
   120   49   51 ar
   121   55   57 ar
   122   57   58 ar
   123   83   85 ar
   124   87   89 ar
   125   98  100 ar
   126  102  104 ar
   127  106  108 ar
   128  115  117 ar
@<TRIPOS>SUBSTRUCTURE
     1 RES1 1
     2 RES2 60

@<TRIPOS>CRYSIN
  12.1392   12.6841   17.1616 110.7170  90.1290  96.1420   2 1

