# MOL2 file generated by ConQuest
# Please check atom types

@<TRIPOS>MOLECULE
VICVAE
    23    24     1
SMALL
NO_CHARGES
****
Generated from CSD

@<TRIPOS>ATOM
      1 N1        -1.1409    1.3698    2.7624 N.ar      1 RES1    0.0000
      2 C1        -0.4086    0.6108    3.5694 C.ar      1 RES1    0.0000
      3 C2        -0.8585    0.1109    4.7830 C.ar      1 RES1    0.0000
      4 C3        -2.1463    0.4255    5.1554 C.ar      1 RES1    0.0000
      5 C4        -2.9351    1.2131    4.3536 C.ar      1 RES1    0.0000
      6 C5        -2.3935    1.6721    3.1762 C.ar      1 RES1    0.0000
      7 C6         1.3296    0.8870    1.9109 C.ar      1 RES1    0.0000
      8 C7         1.4158    2.2703    1.7112 C.ar      1 RES1    0.0000
      9 C8         1.8290    2.8616    0.5432 C.ar      1 RES1    0.0000
     10 C9         2.2727    2.0280   -0.4635 C.ar      1 RES1    0.0000
     11 C10        2.2679    0.6645   -0.3425 C.ar      1 RES1    0.0000
     12 C11        1.7664    0.1244    0.8184 C.ar      1 RES1    0.0000
     13 N2         1.5987   -1.3364    0.8163 N.pl3     1 RES1    0.0000
     14 O1         2.5069   -2.0020    0.3466 O.2       1 RES1    0.0000
     15 O2         0.5531   -1.7890    1.2395 O.2       1 RES1    0.0000
     16 N3         1.1241    3.1968    2.8193 N.pl3     1 RES1    0.0000
     17 O3         1.5869    2.9344    3.9056 O.2       1 RES1    0.0000
     18 O4         0.4727    4.1787    2.5617 O.2       1 RES1    0.0000
     19 N4         2.7435    2.6234   -1.7185 N.pl3     1 RES1    0.0000
     20 O5         3.0742    1.8693   -2.6165 O.2       1 RES1    0.0000
     21 O6         2.7937    3.8350   -1.7961 O.2       1 RES1    0.0000
     22 N5         0.8673    0.3093    3.0883 N.pl3     1 RES1    0.0000
     23 C12        1.7028   -0.6718    3.8073 C.3       1 RES1    0.0000
@<TRIPOS>BOND
     1    1    2 ar
     2    2    3 ar
     3    3    4 ar
     4    4    5 ar
     5    5    6 ar
     6    6    1 ar
     7    7    8 ar
     8    8    9 ar
     9    9   10 ar
    10   10   11 ar
    11   11   12 ar
    12   12    7 ar
    13   13   12 1
    14   14   13 2
    15   15   13 2
    16   16    8 1
    17   17   16 2
    18   18   16 2
    19   19   10 1
    20   20   19 2
    21   21   19 2
    22   22    2 1
    23   23   22 1
    24    7   22 1
@<TRIPOS>SUBSTRUCTURE
     1 RES1 1

@<TRIPOS>CRYSIN
   7.8320    8.4660   11.3520 106.0900 105.8600  96.0600   2 1

