# MOL2 file generated by ConQuest
# Please check atom types

@<TRIPOS>MOLECULE
VIDFIY
    49    52     1
SMALL
NO_CHARGES
****
Generated from CSD

@<TRIPOS>ATOM
      1 C1        11.7105   -0.5622    4.9073 C.ar      1 RES1    0.0000
      2 C2        10.4474   -0.9398    5.2550 C.ar      1 RES1    0.0000
      3 H1         9.7018   -0.5492    4.8595 H         1 RES1    0.0000
      4 C3        10.3180   -1.9208    6.2132 C.ar      1 RES1    0.0000
      5 C4        11.3776   -2.5175    6.8118 C.ar      1 RES1    0.0000
      6 H2        11.2543   -3.1787    7.4538 H         1 RES1    0.0000
      7 C5        12.6347   -2.1189    6.4433 C.ar      1 RES1    0.0000
      8 H3        13.3768   -2.5170    6.8368 H         1 RES1    0.0000
      9 C6        12.8133   -1.1368    5.4991 C.ar      1 RES1    0.0000
     10 H4        13.6697   -0.8636    5.2627 H         1 RES1    0.0000
     11 C7        12.3678    0.2571    2.7978 C.2       1 RES1    0.0000
     12 C8        13.2972    1.3477    0.8060 C.2       1 RES1    0.0000
     13 C9        13.4318    0.0008    0.3206 C.2       1 RES1    0.0000
     14 C10       13.0465   -1.0085    1.1513 C.2       1 RES1    0.0000
     15 C11       12.5216    2.6943    2.7078 C.ar      1 RES1    0.0000
     16 C12       11.5079    3.5067    2.2507 C.ar      1 RES1    0.0000
     17 H5        10.9382    3.2175    1.5741 H         1 RES1    0.0000
     18 C13       11.3534    4.7516    2.8129 C.ar      1 RES1    0.0000
     19 H6        10.6717    5.3114    2.5148 H         1 RES1    0.0000
     20 C14       12.1931    5.1733    3.8040 C.ar      1 RES1    0.0000
     21 H7        12.0739    6.0139    4.1849 H         1 RES1    0.0000
     22 C15       13.2064    4.3663    4.2395 C.ar      1 RES1    0.0000
     23 H8        13.7797    4.6613    4.9089 H         1 RES1    0.0000
     24 C16       13.3829    3.1133    3.6863 C.ar      1 RES1    0.0000
     25 H9        14.0756    2.5635    3.9737 H         1 RES1    0.0000
     26 C17       14.0134   -0.6509   -0.8400 C.2       1 RES1    0.0000
     27 C18       13.9248   -1.9858   -0.6083 C.2       1 RES1    0.0000
     28 C19       14.3421   -3.2030   -1.3435 C.3       1 RES1    0.0000
     29 H10       13.6882   -3.8928   -1.2176 H         1 RES1    0.0000
     30 H11       15.1911   -3.5028   -1.0092 H         1 RES1    0.0000
     31 H12       14.4195   -3.0021   -2.2789 H         1 RES1    0.0000
     32 C20       14.5689   -0.0798   -2.0727 C.2       1 RES1    0.0000
     33 C21       14.6209    1.8463   -3.4579 C.3       1 RES1    0.0000
     34 H13       13.8463    2.1094   -3.9792 H         1 RES1    0.0000
     35 H14       15.1663    1.2575   -4.0012 H         1 RES1    0.0000
     36 C22       15.3863    3.0231   -3.0923 C.3       1 RES1    0.0000
     37 H15       14.8657    3.5746   -2.5038 H         1 RES1    0.0000
     38 H16       15.6078    3.5202   -3.8832 H         1 RES1    0.0000
     39 H17       16.1935    2.7537   -2.6464 H         1 RES1    0.0000
     40 N1         8.9613   -2.3435    6.5840 N.pl3     1 RES1    0.0000
     41 N2        12.6911    1.3827    2.1100 N.am      1 RES1    0.0000
     42 N3        12.5046   -0.9585    2.3793 N.2       1 RES1    0.0000
     43 O1         8.0484   -1.6417    6.2305 O.2       1 RES1    0.0000
     44 O2         8.8187   -3.3258    7.2449 O.2       1 RES1    0.0000
     45 O3        11.8551    0.5106    4.0215 O.3       1 RES1    0.0000
     46 O4        13.6215    2.3873    0.2811 O.2       1 RES1    0.0000
     47 O5        13.3144   -2.2179    0.6063 O.3       1 RES1    0.0000
     48 O6        14.1947    1.1527   -2.2652 O.3       1 RES1    0.0000
     49 O7        15.2521   -0.6701   -2.8557 O.2       1 RES1    0.0000
@<TRIPOS>BOND
     1    1    2 ar
     2    2    3 1
     3    4    2 ar
     4    5    4 ar
     5    6    5 1
     6    7    5 ar
     7    8    7 1
     8    9    1 ar
     9   10    9 1
    10   11   41 1
    11   12   13 1
    12   13   14 2
    13   14   42 1
    14   15   16 ar
    15   16   17 1
    16   18   16 ar
    17   19   18 1
    18   20   18 ar
    19   21   20 1
    20   22   20 ar
    21   23   22 1
    22   24   15 ar
    23   25   24 1
    24   26   13 1
    25   27   26 2
    26   28   27 1
    27   29   28 1
    28   30   28 1
    29   31   28 1
    30   32   26 1
    31   33   34 1
    32   35   33 1
    33   36   33 1
    34   37   36 1
    35   38   36 1
    36   39   36 1
    37   40    4 1
    38   41   12 1
    39   42   11 2
    40   43   40 2
    41   44   40 2
    42   45    1 1
    43   46   12 2
    44   47   14 1
    45   48   32 1
    46   49   32 2
    47    7    9 ar
    48   11   45 1
    49   15   41 1
    50   22   24 ar
    51   27   47 1
    52   33   48 1
@<TRIPOS>SUBSTRUCTURE
     1 RES1 1

@<TRIPOS>CRYSIN
  15.4932   19.4060   27.4240  90.0000  90.0000  90.0000  73 1

