# MOL2 file generated by ConQuest
# Please check atom types

@<TRIPOS>MOLECULE
VIDSAF
    24    25     1
SMALL
NO_CHARGES
****
Generated from CSD

@<TRIPOS>ATOM
      1 O1        11.3066    1.0542    7.6268 O.3       1 RES1    0.0000
      2 O2        13.1582    0.5224    8.7132 O.2       1 RES1    0.0000
      3 O3        19.1670   -1.5643    7.6122 O.3       1 RES1    0.0000
      4 H1        19.7383   -1.7147    6.9900 H         1 RES1    0.0000
      5 N1        10.8564    1.1680    6.2609 N.2       1 RES1    0.0000
      6 C1        12.6085    0.6410    7.6471 C.2       1 RES1    0.0000
      7 C2        13.0151    0.4467    6.2561 C.2       1 RES1    0.0000
      8 C3        11.8392    0.8234    5.5064 C.2       1 RES1    0.0000
      9 C4        11.6821    0.8624    4.0265 C.3       1 RES1    0.0000
     10 H2        10.8880    1.3534    3.8019 H         1 RES1    0.0000
     11 H3        11.6110   -0.0330    3.6884 H         1 RES1    0.0000
     12 H4        12.4456    1.2930    3.6349 H         1 RES1    0.0000
     13 C5        14.1800    0.0268    5.7018 C.2       1 RES1    0.0000
     14 H5        14.1567    0.0043    4.7723 H         1 RES1    0.0000
     15 C6        15.4421   -0.3905    6.2473 C.ar      1 RES1    0.0000
     16 C7        16.4646   -0.7004    5.3403 C.ar      1 RES1    0.0000
     17 H6        16.2949   -0.6388    4.4280 H         1 RES1    0.0000
     18 C8        17.7106   -1.0911    5.7643 C.ar      1 RES1    0.0000
     19 H7        18.3747   -1.2888    5.1438 H         1 RES1    0.0000
     20 C9        17.9742   -1.1909    7.1247 C.ar      1 RES1    0.0000
     21 C10       16.9737   -0.9145    8.0401 C.ar      1 RES1    0.0000
     22 H8        17.1473   -0.9906    8.9505 H         1 RES1    0.0000
     23 C11       15.7314   -0.5296    7.6154 C.ar      1 RES1    0.0000
     24 H9        15.0670   -0.3569    8.2429 H         1 RES1    0.0000
@<TRIPOS>BOND
     1    1    5 1
     2    2    6 2
     3    3    4 1
     4    5    8 2
     5    6    1 1
     6    7    6 1
     7    8    7 1
     8    9    8 1
     9   10    9 1
    10   11    9 1
    11   12    9 1
    12   13    7 2
    13   14   13 1
    14   15   13 1
    15   16   15 ar
    16   17   16 1
    17   18   16 ar
    18   19   18 1
    19   20    3 1
    20   21   20 ar
    21   22   21 1
    22   23   15 ar
    23   24   23 1
    24   18   20 ar
    25   21   23 ar
@<TRIPOS>SUBSTRUCTURE
     1 RES1 1

@<TRIPOS>CRYSIN
  21.1910    7.2352   12.9569  90.0000 103.9200  90.0000  15 1

