# MOL2 file generated by ConQuest
# Please check atom types

@<TRIPOS>MOLECULE
VIDZUG
   116   130     1
SMALL
NO_CHARGES
****
Generated from CSD

@<TRIPOS>ATOM
      1 O1         5.9706   -3.0809    5.1124 O.3       1 RES1    0.0000
      2 O2         5.8274   -4.4710    9.6528 O.3       1 RES1    0.0000
      3 O3         4.7397   -4.0982   16.1144 O.3       1 RES1    0.0000
      4 O4         4.4267    4.9789   16.9884 O.3       1 RES1    0.0000
      5 O5         1.1968    5.4868   12.4842 O.3       1 RES1    0.0000
      6 O6         0.0838    6.2088    7.9564 O.3       1 RES1    0.0000
      7 C1         6.6624   -4.2647    4.7709 C.3       1 RES1    0.0000
      8 H1         6.8059   -4.2891    3.8223 H         1 RES1    0.0000
      9 H2         7.5087   -4.2833    5.2232 H         1 RES1    0.0000
     10 H3         6.1412   -5.0271    5.0339 H         1 RES1    0.0000
     11 C2         5.6535   -2.8297    6.4185 C.ar      1 RES1    0.0000
     12 C3         5.8831   -3.7660    7.3855 C.ar      1 RES1    0.0000
     13 H4         6.2806   -4.5743    7.1502 H         1 RES1    0.0000
     14 C4         5.5419   -3.5416    8.6984 C.ar      1 RES1    0.0000
     15 C5         6.4925   -5.6741    9.2875 C.3       1 RES1    0.0000
     16 H5         6.6193   -6.2179   10.0660 H         1 RES1    0.0000
     17 H6         5.9610   -6.1511    8.6458 H         1 RES1    0.0000
     18 H7         7.3461   -5.4621    8.9018 H         1 RES1    0.0000
     19 C6         5.6479    0.6343    3.6859 C.ar      1 RES1    0.0000
     20 H8         6.0687    0.5915    2.8580 H         1 RES1    0.0000
     21 C7         5.6420   -0.4663    4.5072 C.ar      1 RES1    0.0000
     22 H9         6.0842   -1.2357    4.2273 H         1 RES1    0.0000
     23 C8         4.9881   -0.4749    5.7621 C.ar      1 RES1    0.0000
     24 C9         5.0714   -1.5773    6.7229 C.ar      1 RES1    0.0000
     25 C10        4.6496   -1.3884    8.0705 C.ar      1 RES1    0.0000
     26 C11        4.8841   -2.3617    9.0978 C.ar      1 RES1    0.0000
     27 C12        4.3784   -2.1273   10.4607 C.ar      1 RES1    0.0000
     28 C13        4.4603   -3.0617   11.5239 C.ar      1 RES1    0.0000
     29 H10        4.9472   -3.8429   11.3916 H         1 RES1    0.0000
     30 C14        3.8521   -2.8636   12.7446 C.ar      1 RES1    0.0000
     31 C15        4.0021   -3.8536   13.8838 C.3       1 RES1    0.0000
     32 H11        4.5017   -4.6280   13.5832 H         1 RES1    0.0000
     33 H12        3.1272   -4.1517   14.1794 H         1 RES1    0.0000
     34 C16        4.7425   -3.1709   15.0473 C.3       1 RES1    0.0000
     35 H13        5.6519   -2.9525   14.7896 H         1 RES1    0.0000
     36 H14        4.2890   -2.3536   15.3050 H         1 RES1    0.0000
     37 C17        6.8763   -2.8952   18.5645 C.ar      1 RES1    0.0000
     38 C18        9.1897   -3.1589   18.3173 C.ar      1 RES1    0.0000
     39 H15       10.0683   -3.0335   18.5961 H         1 RES1    0.0000
     40 C19        8.9284   -3.7328   17.1040 C.ar      1 RES1    0.0000
     41 H16        9.6593   -3.9839   16.5850 H         1 RES1    0.0000
     42 C20        7.7148   -3.9642   16.5990 C.ar      1 RES1    0.0000
     43 H17        7.5646   -4.4091   15.7960 H         1 RES1    0.0000
     44 C21        6.7523   -3.4951   17.3687 C.ar      1 RES1    0.0000
     45 C22        5.0305    1.8021    4.0865 C.ar      1 RES1    0.0000
     46 H18        5.0599    2.5579    3.5470 H         1 RES1    0.0000
     47 C23        4.3748    1.8342    5.2881 C.ar      1 RES1    0.0000
     48 H19        3.9669    2.6247    5.5599 H         1 RES1    0.0000
     49 C24        4.3002    0.7069    6.1232 C.ar      1 RES1    0.0000
     50 C25        3.6449    0.8045    7.4160 C.ar      1 RES1    0.0000
     51 C26        3.9806   -0.1434    8.4207 C.ar      1 RES1    0.0000
     52 C27        3.6812    0.1589    9.7679 C.ar      1 RES1    0.0000
     53 C28        3.7321   -0.9074   10.7530 C.ar      1 RES1    0.0000
     54 C29        3.0377   -0.7656   11.9649 C.ar      1 RES1    0.0000
     55 H20        2.5293   -0.0006   12.1069 H         1 RES1    0.0000
     56 C30        3.0874   -1.7183   12.9378 C.ar      1 RES1    0.0000
     57 H21        2.6123   -1.6023   13.7288 H         1 RES1    0.0000
     58 C31        0.4726    2.1841    4.8142 C.ar      1 RES1    0.0000
     59 H22        0.2482    1.6968    4.0555 H         1 RES1    0.0000
     60 C32        1.4364    1.7318    5.6746 C.ar      1 RES1    0.0000
     61 H23        1.8627    0.9253    5.4915 H         1 RES1    0.0000
     62 C33        1.7991    2.4477    6.8258 C.ar      1 RES1    0.0000
     63 C34        2.7469    1.8521    7.7686 C.ar      1 RES1    0.0000
     64 C35        2.7141    2.2839    9.1036 C.ar      1 RES1    0.0000
     65 C36        3.3354    1.4872   10.1037 C.ar      1 RES1    0.0000
     66 C37        3.7135    2.1432   11.3560 C.ar      1 RES1    0.0000
     67 C38        4.8032    1.6790   12.1129 C.ar      1 RES1    0.0000
     68 H24        5.2146    0.8813   11.8702 H         1 RES1    0.0000
     69 C39        5.2803    2.3724   13.2040 C.ar      1 RES1    0.0000
     70 H25        5.9990    2.0382   13.6902 H         1 RES1    0.0000
     71 C40       -0.1656    3.3875    5.0986 C.ar      1 RES1    0.0000
     72 H26       -0.8051    3.7199    4.5114 H         1 RES1    0.0000
     73 C41        0.1392    4.0860    6.2318 C.ar      1 RES1    0.0000
     74 H27       -0.3027    4.8872    6.3980 H         1 RES1    0.0000
     75 C42        1.1043    3.6305    7.1600 C.ar      1 RES1    0.0000
     76 C43        1.2996    4.2324    8.4868 C.ar      1 RES1    0.0000
     77 C44        2.0378    3.5175    9.4664 C.ar      1 RES1    0.0000
     78 C45        2.1336    3.9722   10.8193 C.ar      1 RES1    0.0000
     79 C46        3.1290    3.3720   11.7108 C.ar      1 RES1    0.0000
     80 C47        3.6395    4.0617   12.8279 C.ar      1 RES1    0.0000
     81 H28        3.2547    4.8748   13.0660 H         1 RES1    0.0000
     82 C48        4.6853    3.5772   13.5790 C.ar      1 RES1    0.0000
     83 C49        5.1601    4.3418   14.7910 C.3       1 RES1    0.0000
     84 H29        5.1458    5.2949   14.6090 H         1 RES1    0.0000
     85 H30        6.0700    4.0876   15.0087 H         1 RES1    0.0000
     86 C50        4.2109    4.0129   15.9853 C.3       1 RES1    0.0000
     87 H31        3.2869    4.0365   15.6925 H         1 RES1    0.0000
     88 H32        4.4024    3.1262   16.3290 H         1 RES1    0.0000
     89 C51        1.9389    4.3665   19.3535 C.ar      1 RES1    0.0000
     90 C52       -0.2882    4.9716   18.8766 C.ar      1 RES1    0.0000
     91 H33       -1.1779    5.0883   19.1203 H         1 RES1    0.0000
     92 C53        0.1188    5.2898   17.5897 C.ar      1 RES1    0.0000
     93 H34       -0.5356    5.5474   16.9813 H         1 RES1    0.0000
     94 C54        1.3618    5.2523   17.1654 C.ar      1 RES1    0.0000
     95 H35        1.6193    5.5089   16.3097 H         1 RES1    0.0000
     96 C55        2.2061    4.8168   18.0771 C.ar      1 RES1    0.0000
     97 C56       -0.6152    7.3854    8.3572 C.3       1 RES1    0.0000
     98 H36       -0.9794    7.8211    7.5833 H         1 RES1    0.0000
     99 H37       -1.3274    7.1468    8.9544 H         1 RES1    0.0000
    100 H38       -0.0091    7.9809    8.8036 H         1 RES1    0.0000
    101 C57        0.6792    5.4384    8.9021 C.ar      1 RES1    0.0000
    102 C58        0.6485    5.7906   10.2370 C.ar      1 RES1    0.0000
    103 H39        0.1617    6.5370   10.5044 H         1 RES1    0.0000
    104 C59        1.3296    5.0519   11.1764 C.ar      1 RES1    0.0000
    105 C60        0.4426    4.6166   13.3132 C.3       1 RES1    0.0000
    106 H40        0.3937    4.9823   14.2004 H         1 RES1    0.0000
    107 H41       -0.4440    4.5238   12.9573 H         1 RES1    0.0000
    108 H42        0.8674    3.7560   13.3448 H         1 RES1    0.0000
    109 N1         5.4046   -3.5155   17.1594 N.pl3     1 RES1    0.0000
    110 N2         4.7559   -2.9311   18.1350 N.2       1 RES1    0.0000
    111 N3         5.6191   -2.5734   19.0274 N.2       1 RES1    0.0000
    112 N4         8.1663   -2.7724   19.1081 N.ar      1 RES1    0.0000
    113 N5         3.5730    4.6648   18.0105 N.pl3     1 RES1    0.0000
    114 N6         4.0667    4.0917   19.1116 N.2       1 RES1    0.0000
    115 N7         3.0953    3.9507   19.9374 N.2       1 RES1    0.0000
    116 N8         0.6261    4.4820   19.8042 N.ar      1 RES1    0.0000
@<TRIPOS>BOND
     1    1    7 1
     2    2   14 1
     3    3   34 1
     4    4   86 1
     5    5  104 1
     6    6   97 1
     7    7    8 1
     8    9    7 1
     9   10    7 1
    10   11    1 1
    11   12   11 ar
    12   13   12 1
    13   14   12 ar
    14   15    2 1
    15   16   15 1
    16   17   15 1
    17   18   15 1
    18   19   20 1
    19   21   19 ar
    20   22   21 1
    21   23   21 ar
    22   24   11 ar
    23   25   24 ar
    24   26   14 ar
    25   27   26 ar
    26   28   27 ar
    27   29   28 1
    28   30   28 ar
    29   31   30 1
    30   32   31 1
    31   33   31 1
    32   34   31 1
    33   35   34 1
    34   36   34 1
    35   37   44 ar
    36   38   39 1
    37   40   38 ar
    38   41   40 1
    39   42   40 ar
    40   43   42 1
    41   44   42 ar
    42   45   19 ar
    43   46   45 1
    44   47   45 ar
    45   48   47 1
    46   49   23 ar
    47   50   49 ar
    48   51   25 ar
    49   52   51 ar
    50   53   27 ar
    51   54   53 ar
    52   55   54 1
    53   56   30 ar
    54   57   56 1
    55   58   59 1
    56   60   58 ar
    57   61   60 1
    58   62   60 ar
    59   63   50 ar
    60   64   63 ar
    61   65   52 ar
    62   66   65 ar
    63   67   66 ar
    64   68   67 1
    65   69   67 ar
    66   70   69 1
    67   71   58 ar
    68   72   71 1
    69   73   71 ar
    70   74   73 1
    71   75   62 ar
    72   76   75 ar
    73   77   64 ar
    74   78   77 ar
    75   79   66 ar
    76   80   79 ar
    77   81   80 1
    78   82   69 ar
    79   83   82 1
    80   84   83 1
    81   85   83 1
    82   86   83 1
    83   87   86 1
    84   88   86 1
    85   89   96 ar
    86   90   91 1
    87   92   90 ar
    88   93   92 1
    89   94   92 ar
    90   95   94 1
    91   96   94 ar
    92   97   98 1
    93   99   97 1
    94  100   97 1
    95  101    6 1
    96  102  101 ar
    97  103  102 1
    98  104   78 ar
    99  105    5 1
   100  106  105 1
   101  107  105 1
   102  108  105 1
   103  109    3 1
   104  110  109 1
   105  111   37 1
   106  112   37 ar
   107  113    4 1
   108  114  113 1
   109  115   89 1
   110  116   89 ar
   111   23   24 ar
   112   25   26 ar
   113   38  112 ar
   114   44  109 1
   115   47   49 ar
   116   50   51 ar
   117   52   53 ar
   118   54   56 ar
   119   62   63 ar
   120   64   65 ar
   121   73   75 ar
   122   76   77 ar
   123   76  101 ar
   124   78   79 ar
   125   80   82 ar
   126   90  116 ar
   127   96  113 1
   128  102  104 ar
   129  110  111 2
   130  114  115 2
@<TRIPOS>SUBSTRUCTURE
     1 RES1 1

@<TRIPOS>CRYSIN
   8.2291   15.9151   18.4427 106.2595  97.2479  91.4508   2 1

