# MOL2 file generated by ConQuest
# Please check atom types

@<TRIPOS>MOLECULE
VIFBIY
    31    32     1
SMALL
USER_CHARGES
****
Generated from CSD

@<TRIPOS>ATOM
      1 C1         3.1751    6.0515   13.8396 C.ar      1 RES1    0.0000
      2 H1         3.6148    6.3543   13.0538 H         1 RES1    0.0000
      3 C2         1.8558    6.3842   14.0841 C.ar      1 RES1    0.0000
      4 H2         1.3863    6.9419   13.4754 H         1 RES1    0.0000
      5 C3         1.2229    5.9075   15.2067 C.ar      1 RES1    0.0000
      6 H3         0.3163    6.1381   15.3723 H         1 RES1    0.0000
      7 C4         1.9036    5.0914   16.1000 C.ar      1 RES1    0.0000
      8 H4         1.4503    4.7463   16.8600 H         1 RES1    0.0000
      9 C5         3.2306    4.7767   15.8963 C.ar      1 RES1    0.0000
     10 H5         3.7080    4.2388   16.5168 H         1 RES1    0.0000
     11 C6         3.8405    5.2678   14.7642 C.ar      1 RES1    0.0000
     12 C7         6.2509    5.8541   14.2819 C.2       1 RES1    0.0000
     13 C8         7.3147    5.0733   13.9297 C.2       1 RES1    0.0000
     14 C9         8.6843    5.4813   13.5510 C.2       1 RES1    0.0000
     15 C10       10.1576    7.3081   13.4870 C.3       1 RES1    0.0000
     16 H6        10.8612    6.8560   13.9979 H         1 RES1    0.0000
     17 H7        10.1778    8.2682   13.6822 H         1 RES1    0.0000
     18 H8        10.3073    7.1663   12.5289 H         1 RES1    0.0000
     19 C11        6.0557    7.3119   14.5376 C.2       1 RES1    0.0000
     20 C12        5.9771    9.4638   13.6328 C.3       1 RES1    0.0000
     21 H9         5.0137    9.6350   13.6990 H         1 RES1    0.0000
     22 H10        6.3432    9.9542   12.8674 H         1 RES1    0.0000
     23 H11        6.4185    9.7633   14.4546 H         1 RES1    0.0000
     24 N1         5.2357    4.9894   14.5322 N.pl3     1 RES1    0.0000
     25 N2         6.9740    3.7461   13.9563 N.2       1 RES1    0.0000
     26 N3         5.7213    3.7175   14.3085 N.pl3     1 RES1    1.0000
     27 O1         5.7406    7.7248   15.6079 O.2       1 RES1    0.0000
     28 O2         6.2049    8.0365   13.4501 O.3       1 RES1    0.0000
     29 O3         9.5009    4.7615   13.0455 O.2       1 RES1    0.0000
     30 O4         8.8633    6.7656   13.8604 O.3       1 RES1    0.0000
     31 O5         5.0013    2.7014   14.4286 O.2       1 RES1   -1.0000
@<TRIPOS>BOND
     1    1    2 1
     2    3    1 ar
     3    4    3 1
     4    5    3 ar
     5    6    5 1
     6    7    5 ar
     7    8    7 1
     8    9    7 ar
     9   10    9 1
    10   11    1 ar
    11   12   13 2
    12   13   14 1
    13   14   29 2
    14   15   16 1
    15   17   15 1
    16   18   15 1
    17   19   12 1
    18   20   21 1
    19   22   20 1
    20   23   20 1
    21   24   11 1
    22   25   13 1
    23   26   24 1
    24   27   19 2
    25   28   19 1
    26   30   14 1
    27   31   26 1
    28    9   11 ar
    29   12   24 1
    30   15   30 1
    31   20   28 1
    32   25   26 2
@<TRIPOS>SUBSTRUCTURE
     1 RES1 1

@<TRIPOS>CRYSIN
  16.3614    9.5344   24.4780  90.0000  93.9260  90.0000  15 1

