# MOL2 file generated by ConQuest
# Please check atom types

@<TRIPOS>MOLECULE
VIFBOE
    25    27     1
SMALL
USER_CHARGES
****
Generated from CSD

@<TRIPOS>ATOM
      1 C1         1.3744   10.4956    6.5096 C.ar      1 RES1    0.0000
      2 C2         0.8495   10.2692    7.8049 C.ar      1 RES1    0.0000
      3 H1         0.2239    9.5680    7.9432 H         1 RES1    0.0000
      4 C3         1.2337   11.0490    8.8584 C.ar      1 RES1    0.0000
      5 H2         0.8685   10.8868    9.7196 H         1 RES1    0.0000
      6 C4         2.1663   12.0928    8.6822 C.ar      1 RES1    0.0000
      7 H3         2.4190   12.6254    9.4271 H         1 RES1    0.0000
      8 C5         2.7107   12.3482    7.4565 C.ar      1 RES1    0.0000
      9 H4         3.3355   13.0545    7.3441 H         1 RES1    0.0000
     10 C6         2.3339   11.5513    6.3620 C.ar      1 RES1    0.0000
     11 C7         2.4636   11.0099    4.1402 C.ar      1 RES1    0.0000
     12 C8         1.5146   10.0121    4.3261 C.ar      1 RES1    0.0000
     13 C9         1.4034    9.4604    2.9815 C.2       1 RES1    0.0000
     14 N1         2.1734   10.0815    2.1371 N.2       1 RES1    0.0000
     15 C10        0.5455    8.3263    2.5579 C.2       1 RES1    0.0000
     16 C11        0.0998    6.7394    0.8854 C.3       1 RES1    0.0000
     17 H5         0.1543    6.0018    1.5297 H         1 RES1    0.0000
     18 H6         0.4473    6.4415    0.0191 H         1 RES1    0.0000
     19 H7        -0.8349    7.0159    0.7852 H         1 RES1    0.0000
     20 N2         2.9005   11.7994    5.1145 N.pl3     1 RES1    1.0000
     21 N3         0.9456    9.7086    5.4807 N.ar      1 RES1    0.0000
     22 O1         3.8057   12.7012    4.9259 O.2       1 RES1   -1.0000
     23 O2         2.8893   11.0916    2.8622 O.3       1 RES1    0.0000
     24 O3         0.8927    7.8663    1.3678 O.3       1 RES1    0.0000
     25 O4        -0.3377    7.9044    3.2507 O.2       1 RES1    0.0000
@<TRIPOS>BOND
     1    1    2 ar
     2    2    3 1
     3    4    2 ar
     4    5    4 1
     5    6    4 ar
     6    7    6 1
     7    8    6 ar
     8    9    8 1
     9   10    1 ar
    10   11   12 ar
    11   12   13 1
    12   13   14 2
    13   14   23 1
    14   15   13 1
    15   16   17 1
    16   18   16 1
    17   19   16 1
    18   20   10 ar
    19   21    1 ar
    20   22   20 1
    21   23   11 1
    22   24   15 1
    23   25   15 2
    24    8   10 ar
    25   11   20 ar
    26   12   21 ar
    27   16   24 1
@<TRIPOS>SUBSTRUCTURE
     1 RES1 1

@<TRIPOS>CRYSIN
   4.3536   17.0273   13.7041  90.0000  94.3790  90.0000 231 1

