# MOL2 file generated by ConQuest
# Please check atom types

@<TRIPOS>MOLECULE
VIFBER
    13    13     1
SMALL
NO_CHARGES
****
Generated from CSD

@<TRIPOS>ATOM
      1 C1         1.3597    3.5729    4.8408 C.2       1 RES1    0.0000
      2 C2         1.6460    2.4427    4.2123 C.2       1 RES1    0.0000
      3 C3         1.8672    4.8323    4.3908 C.1       1 RES1    0.0000
      4 C4         1.2204    1.1162    4.6765 C.ar      1 RES1    0.0000
      5 C5         0.9520    0.0390    3.8362 C.ar      1 RES1    0.0000
      6 C6         0.6740   -1.2304    4.2873 C.ar      1 RES1    0.0000
      7 C7         0.6196   -1.4576    5.6275 C.ar      1 RES1    0.0000
      8 C8         0.8499   -0.4185    6.4928 C.ar      1 RES1    0.0000
      9 C9         1.1604    0.8519    6.0310 C.ar      1 RES1    0.0000
     10 O1         1.1171   -0.7278    1.6711 O.2       1 RES1    0.0000
     11 O2         0.6301    1.3425    1.9580 O.2       1 RES1    0.0000
     12 N1         0.9020    0.2313    2.3853 N.pl3     1 RES1    0.0000
     13 N2         2.2646    5.8364    4.0290 N.1       1 RES1    0.0000
@<TRIPOS>BOND
     1    1    2 2
     2    2    4 1
     3    3    1 1
     4    4    5 ar
     5    5    6 ar
     6    6    7 ar
     7    7    8 ar
     8    8    9 ar
     9    9    4 ar
    10   10   12 2
    11   11   12 2
    12   12    5 1
    13   13    3 3
@<TRIPOS>SUBSTRUCTURE
     1 RES1 1

@<TRIPOS>CRYSIN
   7.0450   10.0110   12.0160  90.0000  97.8800  90.0000  14 1

