# MOL2 file generated by ConQuest
# Please check atom types

@<TRIPOS>MOLECULE
VIFTUA
    31    32     1
SMALL
NO_CHARGES
****
Generated from CSD

@<TRIPOS>ATOM
      1 N1         3.4362    4.1830    2.1138 N.pl3     1 RES1    0.0000
      2 N2         3.6704    4.8987    1.1425 N.2       1 RES1    0.0000
      3 O1         2.3149    3.6354    2.4678 O.2       1 RES1    0.0000
      4 C1         4.5840    3.9204    3.0189 C.ar      1 RES1    0.0000
      5 C2         5.8450    4.4005    2.7177 C.ar      1 RES1    0.0000
      6 H1         5.9938    4.9118    1.9309 H         1 RES1    0.0000
      7 C3         6.8896    4.1184    3.5885 C.ar      1 RES1    0.0000
      8 H2         7.7610    4.4397    3.3888 H         1 RES1    0.0000
      9 C4         6.6894    3.3860    4.7329 C.ar      1 RES1    0.0000
     10 C5         5.4088    2.9218    4.9892 C.ar      1 RES1    0.0000
     11 H3         5.2539    2.4113    5.7757 H         1 RES1    0.0000
     12 C6         4.3552    3.1757    4.1421 C.ar      1 RES1    0.0000
     13 H4         3.4869    2.8406    4.3328 H         1 RES1    0.0000
     14 C7         7.8169    3.0930    5.7010 C.3       1 RES1    0.0000
     15 H5         8.6479    3.4875    5.3647 H         1 RES1    0.0000
     16 H6         7.9275    2.1234    5.7885 H         1 RES1    0.0000
     17 H7         7.6036    3.4788    6.5763 H         1 RES1    0.0000
     18 C8         2.5826    5.2454    0.2515 C.ar      1 RES1    0.0000
     19 C9         1.2214    5.0111    0.3588 C.ar      1 RES1    0.0000
     20 H8         0.8765    4.5281    1.1003 H         1 RES1    0.0000
     21 C10        0.3696    5.4840   -0.6174 C.ar      1 RES1    0.0000
     22 H9        -0.5611    5.3070   -0.5480 H         1 RES1    0.0000
     23 C11        0.8396    6.2106   -1.6955 C.ar      1 RES1    0.0000
     24 C12        2.2050    6.4383   -1.7813 C.ar      1 RES1    0.0000
     25 H10        2.5517    6.9278   -2.5175 H         1 RES1    0.0000
     26 C13        3.0610    5.9662   -0.8190 C.ar      1 RES1    0.0000
     27 H11        3.9921    6.1388   -0.8927 H         1 RES1    0.0000
     28 C14       -0.1284    6.7241   -2.7461 C.3       1 RES1    0.0000
     29 H12       -0.8023    6.0373   -2.9328 H         1 RES1    0.0000
     30 H13        0.3621    6.9322   -3.5686 H         1 RES1    0.0000
     31 H14       -0.5701    7.5334   -2.4147 H         1 RES1    0.0000
@<TRIPOS>BOND
     1    1    2 2
     2    2   18 1
     3    3    1 2
     4    4    1 1
     5    5    4 ar
     6    6    5 1
     7    7    5 ar
     8    8    7 1
     9    9    7 ar
    10   10    9 ar
    11   11   10 1
    12   12    4 ar
    13   13   12 1
    14   14    9 1
    15   15   14 1
    16   16   14 1
    17   17   14 1
    18   18   19 ar
    19   19   20 1
    20   21   19 ar
    21   22   21 1
    22   23   21 ar
    23   24   23 ar
    24   25   24 1
    25   26   18 ar
    26   27   26 1
    27   28   23 1
    28   29   28 1
    29   30   28 1
    30   31   28 1
    31   10   12 ar
    32   24   26 ar
@<TRIPOS>SUBSTRUCTURE
     1 RES1 1

@<TRIPOS>CRYSIN
   7.6400    7.2520   21.4940  90.0000  95.1490  90.0000 231 1

