# MOL2 file generated by ConQuest
# Please check atom types

@<TRIPOS>MOLECULE
VIGJUS
    25    26     1
SMALL
NO_CHARGES
****
Generated from CSD

@<TRIPOS>ATOM
      1 C1         1.3805    3.3322    3.0412 C.2       1 RES1    0.0000
      2 C2         2.4511    5.1009    1.9180 C.2       1 RES1    0.0000
      3 C3         1.2214    4.5702    3.8468 C.ar      1 RES1    0.0000
      4 C4         0.6182    4.7840    5.0568 C.ar      1 RES1    0.0000
      5 C5         0.6487    6.1043    5.5726 C.ar      1 RES1    0.0000
      6 C6         1.2404    7.1311    4.8682 C.ar      1 RES1    0.0000
      7 H1         1.2293    7.9948    5.2147 H         1 RES1    0.0000
      8 C7         1.8519    6.8867    3.6473 C.ar      1 RES1    0.0000
      9 H2         2.2528    7.5777    3.1713 H         1 RES1    0.0000
     10 C8         1.8543    5.6083    3.1540 C.ar      1 RES1    0.0000
     11 C9         0.6317    2.8752    6.4315 C.3       1 RES1    0.0000
     12 H3         1.3306    2.5274    5.8731 H         1 RES1    0.0000
     13 H4         0.0360    2.1646    6.6774 H         1 RES1    0.0000
     14 H5         1.0160    3.2593    7.2232 H         1 RES1    0.0000
     15 C10        0.0471    7.5557    7.3574 C.3       1 RES1    0.0000
     16 H6         0.9491    7.8475    7.5071 H         1 RES1    0.0000
     17 H7        -0.4271    7.5389    8.1925 H         1 RES1    0.0000
     18 H8        -0.3891    8.1607    6.7536 H         1 RES1    0.0000
     19 N1         2.0712    3.7619    1.9090 N.am      1 RES1    0.0000
     20 O1         1.0330    2.2000    3.2372 O.2       1 RES1    0.0000
     21 O2         2.6122    2.8838    0.9982 O.3       1 RES1    0.0000
     22 H9         2.1547    2.8794    0.3173 H         1 RES1    0.0000
     23 O3         3.1208    5.6441    1.0747 O.2       1 RES1    0.0000
     24 O4        -0.0669    3.8422    5.7452 O.3       1 RES1    0.0000
     25 O5         0.0598    6.2378    6.7877 O.3       1 RES1    0.0000
@<TRIPOS>BOND
     1    1    3 1
     2    2   10 1
     3    3    4 ar
     4    4    5 ar
     5    5    6 ar
     6    6    7 1
     7    8    6 ar
     8    9    8 1
     9   10    3 ar
    10   11   12 1
    11   13   11 1
    12   14   11 1
    13   15   16 1
    14   17   15 1
    15   18   15 1
    16   19    1 1
    17   20    1 2
    18   21   19 1
    19   22   21 1
    20   23    2 2
    21   24    4 1
    22   25    5 1
    23    2   19 1
    24    8   10 ar
    25   11   24 1
    26   15   25 1
@<TRIPOS>SUBSTRUCTURE
     1 RES1 1

@<TRIPOS>CRYSIN
   3.9579   15.5058   15.8646  90.0000  90.0000  90.0000  19 1

