# MOL2 file generated by ConQuest
# Please check atom types

@<TRIPOS>MOLECULE
VIGJIG
    30    31     1
SMALL
NO_CHARGES
****
Generated from CSD

@<TRIPOS>ATOM
      1 C1         4.3039    0.6927    0.0634 C.2       1 RES1    0.0000
      2 C2         4.5879   -1.0037    1.8771 C.3       1 RES1    0.0000
      3 H1         4.7996   -0.8697    2.8450 H         1 RES1    0.0000
      4 C3         3.0838   -1.3415    1.8036 C.3       1 RES1    0.0000
      5 O1         5.3504   -2.1153   -0.0344 O.3       1 RES1    0.0000
      6 H2         5.1918   -2.9081   -0.2633 H         1 RES1    0.0000
      7 C4         2.4887   -0.9938    0.4414 C.ar      1 RES1    0.0000
      8 C5         1.3174   -1.5982   -0.0179 C.ar      1 RES1    0.0000
      9 H3         0.9080   -2.2806    0.4997 H         1 RES1    0.0000
     10 C6         0.7444   -1.2134   -1.2222 C.ar      1 RES1    0.0000
     11 H4        -0.0533   -1.6373   -1.5183 H         1 RES1    0.0000
     12 C7         1.3191   -0.2220   -1.9960 C.ar      1 RES1    0.0000
     13 H5         0.9260    0.0296   -2.8233 H         1 RES1    0.0000
     14 C8         2.4744    0.4005   -1.5514 C.ar      1 RES1    0.0000
     15 H6         2.8713    1.0917   -2.0679 H         1 RES1    0.0000
     16 C9         3.0547    0.0109   -0.3438 C.ar      1 RES1    0.0000
     17 C10        2.3727   -0.4781    2.8675 C.3       1 RES1    0.0000
     18 H7         2.4796    0.4699    2.6430 H         1 RES1    0.0000
     19 H8         2.7683   -0.6521    3.7473 H         1 RES1    0.0000
     20 H9         1.4197   -0.7039    2.8872 H         1 RES1    0.0000
     21 C11        2.8889   -2.8186    2.1575 C.3       1 RES1    0.0000
     22 H10        1.9396   -2.9920    2.3248 H         1 RES1    0.0000
     23 H11        3.4067   -3.0330    2.9613 H         1 RES1    0.0000
     24 H12        3.1963   -3.3767    1.4123 H         1 RES1    0.0000
     25 N1         4.8361    0.2785    1.2203 N.am      1 RES1    0.0000
     26 O2         4.8218    1.6091   -0.6003 O.2       1 RES1    0.0000
     27 O3         6.0712    0.8043    1.6016 O.3       1 RES1    0.0000
     28 N2         5.4762   -2.0448    1.4054 N.3       1 RES1    0.0000
     29 H13        6.3305   -1.7596    1.5324 H         1 RES1    0.0000
     30 H14        6.3924    1.2677    0.9496 H         1 RES1    0.0000
@<TRIPOS>BOND
     1    1   16 1
     2    2    3 1
     3    4    2 1
     4    5    6 1
     5    7    4 1
     6    8    7 ar
     7    9    8 1
     8   10    8 ar
     9   11   10 1
    10   12   10 ar
    11   13   12 1
    12   14   12 ar
    13   15   14 1
    14   16    7 ar
    15   17    4 1
    16   18   17 1
    17   19   17 1
    18   20   17 1
    19   21    4 1
    20   22   21 1
    21   23   21 1
    22   24   21 1
    23   25    1 1
    24   26    1 2
    25   27   25 1
    26   28    2 1
    27   29   28 1
    28   30   27 1
    29    2   25 1
    30    5   28 1
    31   14   16 ar
@<TRIPOS>SUBSTRUCTURE
     1 RES1 1

@<TRIPOS>CRYSIN
  13.1638    6.3069   13.4581  90.0000 108.2560  90.0000  14 1

