# MOL2 file generated by ConQuest
# Please check atom types

@<TRIPOS>MOLECULE
VIGPOT
    35    36     1
SMALL
NO_CHARGES
****
Generated from CSD

@<TRIPOS>ATOM
      1 O1         2.1138    3.3336    5.1717 O.2       1 RES1    0.0000
      2 O2         2.7908    1.3199    5.0192 O.2       1 RES1    0.0000
      3 O3         5.4258    2.8005    3.9949 O.3       1 RES1    0.0000
      4 O4         6.3052    4.5201    2.7206 O.3       1 RES1    0.0000
      5 O5         5.3565    5.4951    0.8560 O.3       1 RES1    0.0000
      6 O6         5.0678    8.9037    2.4742 O.2       1 RES1    0.0000
      7 O7         3.5218    8.9386    1.0154 O.2       1 RES1    0.0000
      8 N1         2.6599    2.4386    4.5619 N.pl3     1 RES1    0.0000
      9 N2         4.1357    8.3977    1.9132 N.pl3     1 RES1    0.0000
     10 C1         3.1625    2.7014    3.1299 C.3       1 RES1    0.0000
     11 C2         4.5745    2.1769    3.0462 C.3       1 RES1    0.0000
     12 H1         4.5701    1.2193    3.2017 H         1 RES1    0.0000
     13 H2         4.9214    2.3339    2.1544 H         1 RES1    0.0000
     14 C3         5.5175    4.1855    3.8713 C.3       1 RES1    0.0000
     15 H3         5.9757    4.5314    4.6645 H         1 RES1    0.0000
     16 C4         5.8496    5.7281    2.1394 C.3       1 RES1    0.0000
     17 H4         6.5773    6.3829    2.1085 H         1 RES1    0.0000
     18 C5         6.3632    5.0435   -0.0568 C.3       1 RES1    0.0000
     19 H5         6.0006    5.0148   -0.9457 H         1 RES1    0.0000
     20 H6         6.6552    4.1650    0.1973 H         1 RES1    0.0000
     21 H7         7.1097    5.6470   -0.0359 H         1 RES1    0.0000
     22 C6         4.7236    6.2362    3.0382 C.3       1 RES1    0.0000
     23 H8         5.1221    6.8007    3.7328 H         1 RES1    0.0000
     24 C7         3.6489    7.0398    2.3397 C.3       1 RES1    0.0000
     25 H9         3.3436    6.5523    1.5595 H         1 RES1    0.0000
     26 H10        2.8931    7.1465    2.9386 H         1 RES1    0.0000
     27 C8         4.2066    4.9522    3.7079 C.3       1 RES1    0.0000
     28 H11        3.8318    5.1636    4.5888 H         1 RES1    0.0000
     29 C9         3.1694    4.1958    2.8678 C.3       1 RES1    0.0000
     30 H12        2.2880    4.5529    3.0602 H         1 RES1    0.0000
     31 H13        3.3526    4.3497    1.9282 H         1 RES1    0.0000
     32 C10        2.2135    1.9511    2.2082 C.3       1 RES1    0.0000
     33 H14        2.2099    1.0202    2.4424 H         1 RES1    0.0000
     34 H15        2.5039    2.0517    1.2994 H         1 RES1    0.0000
     35 H16        1.3270    2.3083    2.3028 H         1 RES1    0.0000
@<TRIPOS>BOND
     1    1    8 2
     2    2    8 2
     3    3   11 1
     4    4   14 1
     5    5   16 1
     6    6    9 2
     7    7    9 2
     8    8   10 1
     9    9   24 1
    10   10   11 1
    11   11   12 1
    12   13   11 1
    13   14    3 1
    14   15   14 1
    15   16    4 1
    16   17   16 1
    17   18    5 1
    18   19   18 1
    19   20   18 1
    20   21   18 1
    21   22   16 1
    22   23   22 1
    23   24   22 1
    24   25   24 1
    25   26   24 1
    26   27   14 1
    27   28   27 1
    28   29   10 1
    29   30   29 1
    30   31   29 1
    31   32   10 1
    32   33   32 1
    33   34   32 1
    34   35   32 1
    35   22   27 1
    36   27   29 1
@<TRIPOS>SUBSTRUCTURE
     1 RES1 1

@<TRIPOS>CRYSIN
   6.5376   10.2636   10.2850  90.0000 104.3360  90.0000   4 1

