# MOL2 file generated by ConQuest
# Please check atom types

@<TRIPOS>MOLECULE
VIGPOR
    16    15     1
SMALL
NO_CHARGES
****
Generated from CSD

@<TRIPOS>ATOM
      1 O1         7.2446    0.3640    2.0983 O.2       1 RES1    0.0000
      2 O2         9.7912    0.6163    1.5212 O.3       1 RES1    0.0000
      3 O3        10.1887    0.8237    3.7728 O.3       1 RES1    0.0000
      4 N1         9.3091    1.1306    2.7284 N.am      1 RES1    0.0000
      5 N2         7.6662    0.6285    4.3026 N.am      1 RES1    0.0000
      6 H1         6.8446    0.3788    4.5230 H         1 RES1    0.0000
      7 H2         8.2622    0.6762    4.8402 H         1 RES1    0.0000
      8 C1         7.9943    0.6249    3.0237 C.2       1 RES1    0.0000
      9 C2        10.0562   -0.7919    1.5477 C.3       1 RES1    0.0000
     10 H3        10.2474   -1.0986    0.6582 H         1 RES1    0.0000
     11 H4         9.2877   -1.2558    1.8867 H         1 RES1    0.0000
     12 H5        10.8101   -0.9660    2.1154 H         1 RES1    0.0000
     13 C3        11.1621    1.8647    3.8867 C.3       1 RES1    0.0000
     14 H6        11.8356    1.6043    4.5184 H         1 RES1    0.0000
     15 H7        10.7346    2.6707    4.1882 H         1 RES1    0.0000
     16 H8        11.5676    2.0191    3.0304 H         1 RES1    0.0000
@<TRIPOS>BOND
     1    1    8 2
     2    2    4 1
     3    3    4 1
     4    4    8 1
     5    5    6 1
     6    7    5 1
     7    8    5 1
     8    9    2 1
     9   10    9 1
    10   11    9 1
    11   12    9 1
    12   13    3 1
    13   14   13 1
    14   15   13 1
    15   16   13 1
@<TRIPOS>SUBSTRUCTURE
     1 RES1 1

@<TRIPOS>CRYSIN
  24.3580   18.9410    5.1989  90.0000  90.0000  90.0000  43 1

