# MOL2 file generated by ConQuest
# Please check atom types

@<TRIPOS>MOLECULE
VIHGAU
    33    34     1
SMALL
NO_CHARGES
****
Generated from CSD

@<TRIPOS>ATOM
      1 O1         1.1802   -1.1948    3.7403 O.2       1 RES1    0.0000
      2 O2        -0.7560   -0.2934    3.6252 O.2       1 RES1    0.0000
      3 O3        -1.7000    1.6998    8.0137 O.2       1 RES1    0.0000
      4 O4        -0.4734    3.3943    8.5527 O.2       1 RES1    0.0000
      5 O5         3.4175    4.4602    5.8490 O.2       1 RES1    0.0000
      6 O6         4.5124    2.6521    5.4281 O.2       1 RES1    0.0000
      7 N1         2.8894    1.1270    3.6931 N.3       1 RES1    0.0000
      8 N2         0.3888   -0.3332    4.0283 N.pl3     1 RES1    0.0000
      9 N3        -0.7271    2.4302    7.8631 N.pl3     1 RES1    0.0000
     10 N4         3.4794    3.2654    5.6186 N.pl3     1 RES1    0.0000
     11 C1         2.0052    1.4425    4.7371 C.ar      1 RES1    0.0000
     12 C2         0.8071    0.7511    4.9305 C.ar      1 RES1    0.0000
     13 C3        -0.1001    1.0644    5.9272 C.ar      1 RES1    0.0000
     14 C4         0.1890    2.1074    6.7630 C.ar      1 RES1    0.0000
     15 C5         1.3283    2.8644    6.6213 C.ar      1 RES1    0.0000
     16 C6         2.2175    2.5098    5.6319 C.ar      1 RES1    0.0000
     17 C7         3.2632    2.1258    2.7731 C.ar      1 RES1    0.0000
     18 C8         2.4608    3.2381    2.5487 C.ar      1 RES1    0.0000
     19 C9         2.8135    4.1875    1.6022 C.ar      1 RES1    0.0000
     20 C10        3.9627    4.0400    0.8535 C.ar      1 RES1    0.0000
     21 C11        4.7555    2.9322    1.0691 C.ar      1 RES1    0.0000
     22 C12        4.4300    1.9813    2.0186 C.ar      1 RES1    0.0000
     23 C13        3.7876   -0.0125    3.9131 C.3       1 RES1    0.0000
     24 H1         4.6116    0.3516    4.1553 H         1 RES1    0.0000
     25 H2        -0.8918    0.5676    6.0158 H         1 RES1    0.0000
     26 H3         1.6578    3.3177    3.0507 H         1 RES1    0.0000
     27 H4         4.9718    1.1491    2.2002 H         1 RES1    0.0000
     28 H5         1.5091    3.6088    7.2296 H         1 RES1    0.0000
     29 H6         3.8189   -0.5351    2.9607 H         1 RES1    0.0000
     30 H7         5.5961    2.8069    0.5508 H         1 RES1    0.0000
     31 H8         2.1837    5.0189    1.5032 H         1 RES1    0.0000
     32 H9         4.1486    4.7469    0.1550 H         1 RES1    0.0000
     33 H10        3.3421   -0.6354    4.5156 H         1 RES1    0.0000
@<TRIPOS>BOND
     1    1    8 2
     2    2    8 2
     3    3    9 2
     4    4    9 2
     5    5   10 2
     6    6   10 2
     7    7   11 1
     8    8   12 1
     9    9   14 1
    10   10   16 1
    11   11   12 ar
    12   12   13 ar
    13   13   14 ar
    14   14   15 ar
    15   15   16 ar
    16   16   11 ar
    17   17    7 1
    18   18   17 ar
    19   19   18 ar
    20   20   19 ar
    21   21   20 ar
    22   22   17 ar
    23   23    7 1
    24   24   23 1
    25   25   13 1
    26   26   18 1
    27   27   22 1
    28   28   15 1
    29   29   23 1
    30   30   21 1
    31   31   19 1
    32   32   20 1
    33   33   23 1
    34   21   22 ar
@<TRIPOS>SUBSTRUCTURE
     1 RES1 1

@<TRIPOS>CRYSIN
  12.6540    7.3710   15.0830  90.0000 101.7600  90.0000  14 1

