# MOL2 file generated by ConQuest
# Please check atom types

@<TRIPOS>MOLECULE
VIHKOO
    84    89     1
SMALL
NO_CHARGES
****
Generated from CSD

@<TRIPOS>ATOM
      1 C1         1.8403    0.0725    2.9773 C.3       1 RES1    0.0000
      2 C2         2.9652    0.9258    3.5532 C.3       1 RES1    0.0000
      3 H1         3.2037    0.6407    4.4817 H         1 RES1    0.0000
      4 C3         4.1303    0.6877    2.5705 C.3       1 RES1    0.0000
      5 H2         4.8906    0.2210    3.0226 H         1 RES1    0.0000
      6 C4         4.5268    2.0911    2.1470 C.3       1 RES1    0.0000
      7 C5         1.8627   -1.3444    3.5418 C.2       1 RES1    0.0000
      8 C6         0.8609   -2.2985    2.9397 C.3       1 RES1    0.0000
      9 H3         1.0511   -2.3069    1.9570 H         1 RES1    0.0000
     10 C7        -0.5398   -1.7020    3.0859 C.3       1 RES1    0.0000
     11 H4        -1.1956   -2.2821    2.6243 H         1 RES1    0.0000
     12 H5        -0.7850   -1.6663    4.0435 H         1 RES1    0.0000
     13 C8        -0.5949   -0.3059    2.4965 C.3       1 RES1    0.0000
     14 H6        -1.5035    0.0658    2.6292 H         1 RES1    0.0000
     15 H7        -0.4277   -0.3588    1.5213 H         1 RES1    0.0000
     16 C9         0.4277    0.6381    3.1285 C.3       1 RES1    0.0000
     17 H8         0.3839    1.5185    2.6566 H         1 RES1    0.0000
     18 C10        3.9706   -1.4929    1.3886 C.ar      1 RES1    0.0000
     19 C11        3.2018   -2.3340    0.6003 C.ar      1 RES1    0.0000
     20 H9         2.4491   -1.9841    0.1394 H         1 RES1    0.0000
     21 C12        3.5088   -3.6578    0.4770 C.ar      1 RES1    0.0000
     22 H10        2.9528   -4.2227   -0.0473 H         1 RES1    0.0000
     23 C13        4.6188   -4.1855    1.1040 C.ar      1 RES1    0.0000
     24 H11        4.8222   -5.1105    1.0358 H         1 RES1    0.0000
     25 C14        5.4228   -3.3412    1.8285 C.ar      1 RES1    0.0000
     26 H12        6.2059   -3.6851    2.2408 H         1 RES1    0.0000
     27 C15        5.1196   -2.0114    1.9692 C.ar      1 RES1    0.0000
     28 H13        5.6965   -1.4440    2.4649 H         1 RES1    0.0000
     29 C16        2.9994    3.2093    4.5887 C.ar      1 RES1    0.0000
     30 C17        3.5838    2.7837    5.7629 C.ar      1 RES1    0.0000
     31 H14        3.8138    1.8686    5.8785 H         1 RES1    0.0000
     32 C18        3.8357    3.7038    6.7763 C.ar      1 RES1    0.0000
     33 H15        4.2472    3.4132    7.5815 H         1 RES1    0.0000
     34 C19        3.5002    5.0124    6.6299 C.ar      1 RES1    0.0000
     35 H16        3.6627    5.6283    7.3350 H         1 RES1    0.0000
     36 C20        2.9281    5.4383    5.4619 C.ar      1 RES1    0.0000
     37 H17        2.7171    6.3583    5.3456 H         1 RES1    0.0000
     38 C21        2.6572    4.5418    4.4580 C.ar      1 RES1    0.0000
     39 H18        2.2296    4.8398    3.6650 H         1 RES1    0.0000
     40 C22        5.6091    2.6479    3.0958 C.2       1 RES1    0.0000
     41 C23        5.9037    4.1080    2.9392 C.3       1 RES1    0.0000
     42 H19        5.0332    4.5890    3.0426 H         1 RES1    0.0000
     43 C24        6.3523    4.3121    1.4844 C.3       1 RES1    0.0000
     44 H20        6.4977    5.2781    1.3196 H         1 RES1    0.0000
     45 H21        7.2124    3.8453    1.3395 H         1 RES1    0.0000
     46 C25        5.3192    3.7845    0.4922 C.3       1 RES1    0.0000
     47 H22        4.4876    4.3134    0.5801 H         1 RES1    0.0000
     48 H23        5.6623    3.9086   -0.4282 H         1 RES1    0.0000
     49 C26        4.9980    2.3093    0.7101 C.3       1 RES1    0.0000
     50 H24        4.2434    2.0673    0.0996 H         1 RES1    0.0000
     51 C27        1.0302   -3.7380    3.4046 C.3       1 RES1    0.0000
     52 H25        2.0110   -3.9272    3.4409 H         1 RES1    0.0000
     53 C28        0.4676   -3.9732    4.8031 C.3       1 RES1    0.0000
     54 H26       -0.4970   -3.7969    4.8004 H         1 RES1    0.0000
     55 H27        0.9076   -3.3698    5.4378 H         1 RES1    0.0000
     56 H28        0.6291   -4.9019    5.0693 H         1 RES1    0.0000
     57 C29        0.4172   -4.7075    2.4091 C.3       1 RES1    0.0000
     58 H29       -0.5484   -4.5505    2.3529 H         1 RES1    0.0000
     59 H30        0.5816   -5.6270    2.7039 H         1 RES1    0.0000
     60 H31        0.8221   -4.5704    1.5287 H         1 RES1    0.0000
     61 C30        0.1283    0.8662    4.6166 C.3       1 RES1    0.0000
     62 H32        0.3022    0.0410    5.1141 H         1 RES1    0.0000
     63 H33       -0.8126    1.1212    4.7257 H         1 RES1    0.0000
     64 H34        0.7023    1.5831    4.9597 H         1 RES1    0.0000
     65 C31        6.8408    4.6545    4.0258 C.3       1 RES1    0.0000
     66 H35        6.5737    4.2290    4.8900 H         1 RES1    0.0000
     67 C32        6.6706    6.1473    4.1879 C.3       1 RES1    0.0000
     68 H36        7.2684    6.4701    4.8950 H         1 RES1    0.0000
     69 H37        5.7421    6.3459    4.4294 H         1 RES1    0.0000
     70 H38        6.8921    6.5955    3.3438 H         1 RES1    0.0000
     71 C33        8.2986    4.3035    3.7823 C.3       1 RES1    0.0000
     72 H39        8.6189    4.7715    2.9828 H         1 RES1    0.0000
     73 H40        8.3842    3.3362    3.6501 H         1 RES1    0.0000
     74 H41        8.8346    4.5754    4.5564 H         1 RES1    0.0000
     75 C34        6.1860    1.4105    0.3620 C.3       1 RES1    0.0000
     76 H42        6.9272    1.5967    0.9760 H         1 RES1    0.0000
     77 H43        6.4711    1.5868   -0.5577 H         1 RES1    0.0000
     78 H44        5.9208    0.4706    0.4482 H         1 RES1    0.0000
     79 N1         3.5956   -0.1196    1.4745 N.3       1 RES1    0.0000
     80 N2         2.6594    2.3556    3.4927 N.3       1 RES1    0.0000
     81 O1         2.1581    0.0183    1.5504 O.3       1 RES1    0.0000
     82 O2         3.2983    2.8405    2.2844 O.3       1 RES1    0.0000
     83 O3         2.6121   -1.6495    4.4436 O.2       1 RES1    0.0000
     84 O4         6.2174    1.9115    3.8298 O.2       1 RES1    0.0000
@<TRIPOS>BOND
     1    1    2 1
     2    2    3 1
     3    4    2 1
     4    5    4 1
     5    6    4 1
     6    7    1 1
     7    8    7 1
     8    9    8 1
     9   10    8 1
    10   11   10 1
    11   12   10 1
    12   13   10 1
    13   14   13 1
    14   15   13 1
    15   16    1 1
    16   17   16 1
    17   18   19 ar
    18   19   20 1
    19   21   19 ar
    20   22   21 1
    21   23   21 ar
    22   24   23 1
    23   25   23 ar
    24   26   25 1
    25   27   18 ar
    26   28   27 1
    27   29   30 ar
    28   30   31 1
    29   32   30 ar
    30   33   32 1
    31   34   32 ar
    32   35   34 1
    33   36   34 ar
    34   37   36 1
    35   38   29 ar
    36   39   38 1
    37   40    6 1
    38   41   40 1
    39   42   41 1
    40   43   41 1
    41   44   43 1
    42   45   43 1
    43   46   43 1
    44   47   46 1
    45   48   46 1
    46   49    6 1
    47   50   49 1
    48   51    8 1
    49   52   51 1
    50   53   51 1
    51   54   53 1
    52   55   53 1
    53   56   53 1
    54   57   51 1
    55   58   57 1
    56   59   57 1
    57   60   57 1
    58   61   16 1
    59   62   61 1
    60   63   61 1
    61   64   61 1
    62   65   41 1
    63   66   65 1
    64   67   65 1
    65   68   67 1
    66   69   67 1
    67   70   67 1
    68   71   65 1
    69   72   71 1
    70   73   71 1
    71   74   71 1
    72   75   49 1
    73   76   75 1
    74   77   75 1
    75   78   75 1
    76   79    4 1
    77   80    2 1
    78   81    1 1
    79   82    6 1
    80   83    7 2
    81   84   40 2
    82   13   16 1
    83   18   79 1
    84   25   27 ar
    85   29   80 1
    86   36   38 ar
    87   46   49 1
    88   79   81 1
    89   80   82 1
@<TRIPOS>SUBSTRUCTURE
     1 RES1 1

@<TRIPOS>CRYSIN
   9.5037   12.4162   24.8982  90.0000  90.0000  90.0000  19 1

