# MOL2 file generated by ConQuest
# Please check atom types

@<TRIPOS>MOLECULE
VIHVAL
    51    53     1
SMALL
NO_CHARGES
****
Generated from CSD

@<TRIPOS>ATOM
      1 C1         4.9422   10.3199   14.4675 C.3       1 RES1    0.0000
      2 C2         5.3545   11.1908   12.3289 C.3       1 RES1    0.0000
      3 H1         5.3445   12.0924   11.9440 H         1 RES1    0.0000
      4 C3         3.9320   10.6496   12.3769 C.3       1 RES1    0.0000
      5 H2         3.7689   10.0694   11.6047 H         1 RES1    0.0000
      6 C4         6.2928   10.3012   11.5073 C.2       1 RES1    0.0000
      7 C5         2.9531   11.8066   12.3690 C.2       1 RES1    0.0000
      8 C6         4.3418   11.0547   15.6367 C.2       1 RES1    0.0000
      9 H3         3.7021   11.7110   15.4761 H         1 RES1    0.0000
     10 C7         4.6985   10.7946   16.9021 C.2       1 RES1    0.0000
     11 H4         4.2706   11.2593   17.5852 H         1 RES1    0.0000
     12 C8         5.7399    9.8056   17.2717 C.3       1 RES1    0.0000
     13 H5         5.3151    8.9814   17.5871 H         1 RES1    0.0000
     14 C9         6.6520    9.4926   16.0883 C.3       1 RES1    0.0000
     15 H6         7.2005   10.2645   15.8794 H         1 RES1    0.0000
     16 H7         7.2374    8.7512   16.3073 H         1 RES1    0.0000
     17 C10        5.7824    9.1329   14.8935 C.3       1 RES1    0.0000
     18 H8         6.3459    8.8531   14.1548 H         1 RES1    0.0000
     19 H9         5.2014    8.3926   15.1274 H         1 RES1    0.0000
     20 C11        6.8432    9.7546    9.2760 C.3       1 RES1    0.0000
     21 H10        7.7740    9.9376    9.4221 H         1 RES1    0.0000
     22 H11        6.6083    9.9868    8.3742 H         1 RES1    0.0000
     23 H12        6.6739    8.8215    9.4202 H         1 RES1    0.0000
     24 C12        1.8804   13.3298   10.8576 C.3       1 RES1    0.0000
     25 H13        1.0252   13.2278   11.2805 H         1 RES1    0.0000
     26 H14        1.7580   13.4581    9.9140 H         1 RES1    0.0000
     27 H15        2.3315   14.0926   11.2278 H         1 RES1    0.0000
     28 C13        6.1435   10.2469   19.6147 C.2       1 RES1    0.0000
     29 C14        7.1018   10.8624   20.5988 C.ar      1 RES1    0.0000
     30 C15        8.2650   11.5075   20.2105 C.ar      1 RES1    0.0000
     31 H16        8.4893   11.5687   19.3098 H         1 RES1    0.0000
     32 C16        9.0903   12.0603   21.1772 C.ar      1 RES1    0.0000
     33 C17        8.7892   11.9973   22.5339 C.ar      1 RES1    0.0000
     34 H17        9.3383   12.3877   23.1755 H         1 RES1    0.0000
     35 C18        7.6484   11.3333   22.8762 C.ar      1 RES1    0.0000
     36 C19        6.7826   10.7489   21.9626 C.ar      1 RES1    0.0000
     37 H18        6.0192   10.2979   22.2425 H         1 RES1    0.0000
     38 N1        10.2891   12.7670   20.7622 N.pl3     1 RES1    0.0000
     39 N2         7.3092   11.2094   24.3264 N.pl3     1 RES1    0.0000
     40 O1         5.7293   11.2700   13.7063 O.3       1 RES1    0.0000
     41 O2         3.8951    9.8819   13.5747 O.3       1 RES1    0.0000
     42 O3         7.1118    9.5288   11.9185 O.2       1 RES1    0.0000
     43 O4         6.0454   10.5389   10.2015 O.3       1 RES1    0.0000
     44 O5         2.5439   12.4216   13.3103 O.2       1 RES1    0.0000
     45 O6         2.6769   12.1406   11.0836 O.3       1 RES1    0.0000
     46 O7         6.5958   10.3686   18.3434 O.3       1 RES1    0.0000
     47 O8         5.1065    9.7270   19.9131 O.2       1 RES1    0.0000
     48 O9        10.5734   12.7942   19.5623 O.2       1 RES1    0.0000
     49 O10       10.9969   13.2822   21.6130 O.2       1 RES1    0.0000
     50 O11        8.0882   11.7186   25.1323 O.2       1 RES1    0.0000
     51 O12        6.2953   10.6173   24.6341 O.2       1 RES1    0.0000
@<TRIPOS>BOND
     1    1    8 1
     2    2    3 1
     3    4    2 1
     4    5    4 1
     5    6    2 1
     6    7    4 1
     7    8    9 1
     8   10    8 2
     9   11   10 1
    10   12   10 1
    11   13   12 1
    12   14   12 1
    13   15   14 1
    14   16   14 1
    15   17    1 1
    16   18   17 1
    17   19   17 1
    18   20   21 1
    19   22   20 1
    20   23   20 1
    21   24   25 1
    22   26   24 1
    23   27   24 1
    24   28   29 1
    25   29   30 ar
    26   30   31 1
    27   32   30 ar
    28   33   32 ar
    29   34   33 1
    30   35   33 ar
    31   36   29 ar
    32   37   36 1
    33   38   32 1
    34   39   35 1
    35   40    1 1
    36   41    1 1
    37   42    6 2
    38   43    6 1
    39   44    7 2
    40   45    7 1
    41   46   12 1
    42   47   28 2
    43   48   38 2
    44   49   38 2
    45   50   39 2
    46   51   39 2
    47    2   40 1
    48    4   41 1
    49   14   17 1
    50   20   43 1
    51   24   45 1
    52   28   46 1
    53   35   36 ar
@<TRIPOS>SUBSTRUCTURE
     1 RES1 1

@<TRIPOS>CRYSIN
   6.2472   17.5762   18.8480  90.0000  90.0000  90.0000  19 1

