# MOL2 file generated by ConQuest
# Please check atom types

@<TRIPOS>MOLECULE
VIJFOK
    35    37     1
SMALL
NO_CHARGES
****
Generated from CSD

@<TRIPOS>ATOM
      1 O1         1.5876    2.7682   15.9639 O.3       1 RES1    0.0000
      2 O2        -1.1085    2.4867   15.0736 O.3       1 RES1    0.0000
      3 H1        -1.4325    1.7343   15.2567 H         1 RES1    0.0000
      4 O3         3.3956    0.3458   16.3377 O.3       1 RES1    0.0000
      5 H2         3.4621   -0.4454   16.0636 H         1 RES1    0.0000
      6 O4         1.3434   -0.5566   14.7056 O.3       1 RES1    0.0000
      7 H3         1.1641   -1.2909   15.0713 H         1 RES1    0.0000
      8 C1         1.0790    0.4919   15.6031 C.3       1 RES1    0.0000
      9 H4         0.1464    0.4061   15.9540 H         1 RES1    0.0000
     10 N1         1.0241    2.3306   18.2211 N.pl3     1 RES1    0.0000
     11 O5         1.3544    7.3094   21.9923 O.2       1 RES1    0.0000
     12 N2         0.5045    6.4235   21.9118 N.pl3     1 RES1    0.0000
     13 C2         0.6567    5.4049   20.8799 C.ar      1 RES1    0.0000
     14 C3         2.0579    0.5876   16.7729 C.3       1 RES1    0.0000
     15 H5         1.7970   -0.0131   17.5277 H         1 RES1    0.0000
     16 O6        -0.4663    6.3623   22.6618 O.2       1 RES1    0.0000
     17 C4        -0.1244    3.4438   19.8144 C.ar      1 RES1    0.0000
     18 C5         1.8265    5.4071   20.1146 C.ar      1 RES1    0.0000
     19 H6         2.4803    6.0825   20.2496 H         1 RES1    0.0000
     20 C6        -0.3361    4.4500   20.7561 C.ar      1 RES1    0.0000
     21 H7        -1.1236    4.4782   21.2861 H         1 RES1    0.0000
     22 C7         1.2399    1.8394   14.9051 C.3       1 RES1    0.0000
     23 H8         1.9955    1.7856   14.2518 H         1 RES1    0.0000
     24 C8        -0.8754    2.2925   19.4257 C.2       1 RES1    0.0000
     25 H9        -1.7166    2.0245   19.7756 H         1 RES1    0.0000
     26 C9        -0.0012    2.3248   14.1945 C.3       1 RES1    0.0000
     27 H10        0.1944    3.1914   13.7568 H         1 RES1    0.0000
     28 H11       -0.2424    1.6758   13.4871 H         1 RES1    0.0000
     29 C10        1.9671    2.0640   17.1584 C.3       1 RES1    0.0000
     30 H12        2.8720    2.3792   17.4435 H         1 RES1    0.0000
     31 C11        2.0331    4.4292   19.1634 C.ar      1 RES1    0.0000
     32 H13        2.8089    4.4288   18.6148 H         1 RES1    0.0000
     33 C12       -0.1695    1.6557   18.4705 C.2       1 RES1    0.0000
     34 H14       -0.4461    0.8606   18.0291 H         1 RES1    0.0000
     35 C13        1.0570    3.4437   19.0399 C.ar      1 RES1    0.0000
@<TRIPOS>BOND
     1    1   22 1
     2    2    3 1
     3    4    5 1
     4    6    7 1
     5    8    6 1
     6    9    8 1
     7   10   29 1
     8   11   12 2
     9   12   13 1
    10   13   18 ar
    11   14    4 1
    12   15   14 1
    13   16   12 2
    14   17   20 ar
    15   18   19 1
    16   20   13 ar
    17   21   20 1
    18   22    8 1
    19   23   22 1
    20   24   17 1
    21   25   24 1
    22   26    2 1
    23   27   26 1
    24   28   26 1
    25   29    1 1
    26   30   29 1
    27   31   18 ar
    28   32   31 1
    29   33   10 1
    30   34   33 1
    31   35   10 1
    32    8   14 1
    33   14   29 1
    34   17   35 ar
    35   22   26 1
    36   24   33 2
    37   31   35 ar
@<TRIPOS>SUBSTRUCTURE
     1 RES1 1

@<TRIPOS>CRYSIN
   5.7856   10.0770   21.0670  90.0000  90.0000  90.0000  19 1

