# MOL2 file generated by ConQuest
# Please check atom types

@<TRIPOS>MOLECULE
VIKVIU
    20    20     1
SMALL
NO_CHARGES
****
Generated from CSD

@<TRIPOS>ATOM
      1 C1         3.8006   -0.1616    6.6945 C.3       1 RES1    0.0000
      2 C2         3.7367   -1.0075    7.9501 C.3       1 RES1    0.0000
      3 C3         4.6478   -1.4067    6.8312 C.3       1 RES1    0.0000
      4 C4         2.4849   -1.7678    8.3094 C.3       1 RES1    0.0000
      5 C5         4.3747   -2.6057    5.9581 C.3       1 RES1    0.0000
      6 C6         2.6641   -0.0433    5.7177 C.2       1 RES1    0.0000
      7 N1         4.4857    1.1334    6.8241 N.pl3     1 RES1    0.0000
      8 O1         2.8971   -0.1886    4.5095 O.2       1 RES1    0.0000
      9 O2         1.5281    0.2233    6.2030 O.3       1 RES1    0.0000
     10 O3         3.9783    2.0954    6.2700 O.2       1 RES1    0.0000
     11 O4         5.5065    1.1822    7.4872 O.2       1 RES1    0.0000
     12 H1         4.2084   -0.5653    8.6865 H         1 RES1    0.0000
     13 H2         5.5966   -1.2493    6.9885 H         1 RES1    0.0000
     14 H3         2.0278   -2.1707    7.4353 H         1 RES1    0.0000
     15 H4         2.7584   -2.5333    8.9099 H         1 RES1    0.0000
     16 H5         1.7901   -1.2037    8.6686 H         1 RES1    0.0000
     17 H6         3.3879   -2.7433    5.7820 H         1 RES1    0.0000
     18 H7         4.8006   -2.5012    5.1118 H         1 RES1    0.0000
     19 H8         4.6572   -3.4321    6.3987 H         1 RES1    0.0000
     20 H9         0.6390    0.3776    5.4067 H         1 RES1    0.0000
@<TRIPOS>BOND
     1    1    2 1
     2    2    3 1
     3    3    1 1
     4    4    2 1
     5    5    3 1
     6    6    1 1
     7    7    1 1
     8    8    6 2
     9    9    6 1
    10   10    7 2
    11   11    7 2
    12   12    2 1
    13   13    3 1
    14   14    4 1
    15   15    4 1
    16   16    4 1
    17   17    5 1
    18   18    5 1
    19   19    5 1
    20   20    9 1
@<TRIPOS>SUBSTRUCTURE
     1 RES1 1

@<TRIPOS>CRYSIN
   6.6970    7.1640    9.2810  81.1700  74.5300  64.0400   2 1

