# MOL2 file generated by ConQuest
# Please check atom types

@<TRIPOS>MOLECULE
VIKWER
    32    33     1
SMALL
NO_CHARGES
****
Generated from CSD

@<TRIPOS>ATOM
      1 C1         3.5599    6.1961    3.4944 C.3       1 RES1    0.0000
      2 C2         3.6500    7.4857    2.6805 C.3       1 RES1    0.0000
      3 C3         4.8967    6.7827    3.0908 C.3       1 RES1    0.0000
      4 C4         3.1935    7.6043    1.2595 C.3       1 RES1    0.0000
      5 C5         5.8945    6.2161    2.1356 C.3       1 RES1    0.0000
      6 N1         3.0253    5.0052    2.7847 N.pl3     1 RES1    0.0000
      7 O1         2.1424    4.3819    3.3262 O.2       1 RES1    0.0000
      8 O2         3.5025    4.6883    1.7186 O.2       1 RES1    0.0000
      9 H1         3.3170    8.2475    3.1110 H         1 RES1    0.0000
     10 H2         5.3259    7.1877    3.9349 H         1 RES1    0.0000
     11 H3         3.5572    8.2475    0.8240 H         1 RES1    0.0000
     12 H4         6.5539    5.5508    2.5056 H         1 RES1    0.0000
     13 H5         2.3693    7.7753    1.2108 H         1 RES1    0.0000
     14 H6         3.5439    6.8729    0.7567 H         1 RES1    0.0000
     15 H7         6.4404    7.0723    1.7489 H         1 RES1    0.0000
     16 H8         5.4326    5.8236    1.3116 H         1 RES1    0.0000
     17 C1F        3.1141    6.1961    4.9136 C.3       1 RES1    0.0000
     18 C2F        3.0240    7.4857    5.7275 C.3       1 RES1    0.0000
     19 C3F        1.7773    6.7827    5.3172 C.3       1 RES1    0.0000
     20 N1F        3.6487    5.0052    5.6233 N.pl3     1 RES1    0.0000
     21 C4F        3.4805    7.6043    7.1485 C.3       1 RES1    0.0000
     22 H1F        3.3570    8.2475    5.2970 H         1 RES1    0.0000
     23 C5F        0.7795    6.2161    6.2724 C.3       1 RES1    0.0000
     24 H2F        1.3481    7.1877    4.4731 H         1 RES1    0.0000
     25 O1F        4.5316    4.3819    5.0818 O.2       1 RES1    0.0000
     26 O2F        3.1715    4.6883    6.6894 O.2       1 RES1    0.0000
     27 H3F        3.1168    8.2475    7.5840 H         1 RES1    0.0000
     28 H5F        4.3047    7.7753    7.1972 H         1 RES1    0.0000
     29 H6F        3.1301    6.8729    7.6513 H         1 RES1    0.0000
     30 H4F        0.1201    5.5508    5.9024 H         1 RES1    0.0000
     31 H7F        0.2336    7.0723    6.6591 H         1 RES1    0.0000
     32 H8F        1.2414    5.8236    7.0964 H         1 RES1    0.0000
@<TRIPOS>BOND
     1    1    2 1
     2    2    3 1
     3    3    1 1
     4    4    2 1
     5    5    3 1
     6    6    1 1
     7    7    6 2
     8    8    6 2
     9    9    2 1
    10   10    3 1
    11   11    4 1
    12   12    5 1
    13   13    4 1
    14   14    4 1
    15   15    5 1
    16   16    5 1
    17   17    1 1
    18   18   17 1
    19   19   17 1
    20   20   17 1
    21   21   18 1
    22   22   18 1
    23   23   19 1
    24   24   19 1
    25   25   20 2
    26   26   20 2
    27   27   21 1
    28   28   21 1
    29   29   21 1
    30   30   23 1
    31   31   23 1
    32   32   23 1
    33   18   19 1
@<TRIPOS>SUBSTRUCTURE
     1 RES1 1

@<TRIPOS>CRYSIN
   6.6740   10.4930   16.8160  90.0000  90.0000  90.0000  60 1

