# MOL2 file generated by ConQuest
# Please check atom types

@<TRIPOS>MOLECULE
VIKYOF
    28    29     1
SMALL
NO_CHARGES
****
Generated from CSD

@<TRIPOS>ATOM
      1 O1         3.9673    0.2568    3.7732 O.2       1 RES1    0.0000
      2 O2         3.5877   -0.2008    7.6036 O.3       1 RES1    0.0000
      3 O3         1.8714    0.5360    8.8592 O.2       1 RES1    0.0000
      4 O4         6.4811    2.3868   13.6666 O.2       1 RES1    0.0000
      5 O5         8.0949    1.8177   12.3394 O.2       1 RES1    0.0000
      6 N1         3.3038   -1.1825    5.5199 N.am      1 RES1    0.0000
      7 N2         6.9040    1.9013   12.6212 N.pl3     1 RES1    0.0000
      8 C1         3.9128   -0.8057    4.3551 C.2       1 RES1    0.0000
      9 C2         4.3998   -2.2310    4.0958 C.3       1 RES1    0.0000
     10 C3         3.7208   -2.5917    5.4474 C.3       1 RES1    0.0000
     11 C4         2.6334   -0.4366    6.5265 C.3       1 RES1    0.0000
     12 C5         3.0562    0.3104    8.7245 C.2       1 RES1    0.0000
     13 C6         4.0826    0.6090    9.7658 C.ar      1 RES1    0.0000
     14 C7         5.4503    0.3873    9.5422 C.ar      1 RES1    0.0000
     15 C8         6.3824    0.7981   10.4845 C.ar      1 RES1    0.0000
     16 C9         5.9198    1.3981   11.6412 C.ar      1 RES1    0.0000
     17 C10        4.5660    1.5845   11.9097 C.ar      1 RES1    0.0000
     18 C11        3.6484    1.1992   10.9510 C.ar      1 RES1    0.0000
     19 H1         5.4108   -2.2694    4.0631 H         1 RES1    0.0000
     20 H2         4.0028   -2.8083    3.2975 H         1 RES1    0.0000
     21 H3         4.2889   -2.8252    6.3091 H         1 RES1    0.0000
     22 H4         2.9468   -3.2392    5.3699 H         1 RES1    0.0000
     23 H5         2.2980    0.4402    6.1559 H         1 RES1    0.0000
     24 H6         1.8876   -0.9930    6.9012 H         1 RES1    0.0000
     25 H7         5.7581    0.0638    8.7388 H         1 RES1    0.0000
     26 H8         7.2781    0.6560   10.3416 H         1 RES1    0.0000
     27 H9         4.3336    2.0339   12.7100 H         1 RES1    0.0000
     28 H10        2.6937    1.3482   11.0970 H         1 RES1    0.0000
@<TRIPOS>BOND
     1    1    8 2
     2    2   11 1
     3    3   12 2
     4    4    7 2
     5    5    7 2
     6    6    8 1
     7    7   16 1
     8    8    9 1
     9    9   10 1
    10   10    6 1
    11   11    6 1
    12   12    2 1
    13   13   12 1
    14   14   13 ar
    15   15   14 ar
    16   16   15 ar
    17   17   16 ar
    18   18   13 ar
    19   19    9 1
    20   20    9 1
    21   21   10 1
    22   22   10 1
    23   23   11 1
    24   24   11 1
    25   25   14 1
    26   26   15 1
    27   27   17 1
    28   28   18 1
    29   17   18 ar
@<TRIPOS>SUBSTRUCTURE
     1 RES1 1

@<TRIPOS>CRYSIN
   7.4038    7.5670   10.7531  89.9240  72.4450  73.5490   2 1

