# MOL2 file generated by ConQuest
# Please check atom types

@<TRIPOS>MOLECULE
VIMCID
    68    70     2
SMALL
NO_CHARGES
****
Generated from CSD

@<TRIPOS>ATOM
      1 O1        -0.6758    4.9987    1.0635 O.3       1 RES1    0.0000
      2 O2         4.5211    5.3464    1.2687 O.3       2 RES2    0.0000
      3 N1         0.0221    5.1049   -0.1752 N.2       1 RES1    0.0000
      4 N2         3.9096    6.5526    0.8387 N.2       2 RES2    0.0000
      5 C1         0.9621    4.2643   -0.2761 C.2       1 RES1    0.0000
      6 C2         1.3549    3.2171    0.7243 C.3       1 RES1    0.0000
      7 C3         1.7578    1.9338    0.2312 C.3       1 RES1    0.0000
      8 C4         2.6026    1.8753   -1.0217 C.3       1 RES1    0.0000
      9 C5         1.9609    2.8391   -1.9969 C.3       1 RES1    0.0000
     10 C6         1.8557    4.2170   -1.4730 C.3       1 RES1    0.0000
     11 C7         1.7214    4.7524   -2.9050 C.3       1 RES1    0.0000
     12 C8         2.4990    3.4397   -3.3216 C.3       1 RES1    0.0000
     13 C9         2.4419    6.0575   -3.1638 C.3       1 RES1    0.0000
     14 C10        0.3507    4.8944   -3.4399 C.3       1 RES1    0.0000
     15 C11        1.9636    2.7502   -4.5934 C.3       1 RES1    0.0000
     16 C12        3.9854    3.5822   -3.4249 C.3       1 RES1    0.0000
     17 C13        2.9464    6.9024    1.5929 C.2       2 RES2    0.0000
     18 C14        2.4404    6.1867    2.8095 C.3       2 RES2    0.0000
     19 C15        2.1322    7.0764    3.9717 C.3       2 RES2    0.0000
     20 C16        1.3288    8.3163    3.6719 C.3       2 RES2    0.0000
     21 C17        1.9809    8.9603    2.4971 C.3       2 RES2    0.0000
     22 C18        2.1188    8.1155    1.2979 C.3       2 RES2    0.0000
     23 C19        2.3232    9.3694    0.4339 C.3       2 RES2    0.0000
     24 C20        1.5589   10.1350    1.5850 C.3       2 RES2    0.0000
     25 C21        1.6246    9.3522   -0.9184 C.3       2 RES2    0.0000
     26 C22        3.7344    9.8009    0.2075 C.3       2 RES2    0.0000
     27 C23        2.1051   11.4863    1.9843 C.3       2 RES2    0.0000
     28 C24        0.0629   10.2517    1.3965 C.3       2 RES2    0.0000
     29 H1         2.1222    3.5701    1.2134 H         1 RES1    0.0000
     30 H2         0.6479    3.1092    1.3452 H         1 RES1    0.0000
     31 H3         2.2024    1.4615    0.9215 H         1 RES1    0.0000
     32 H4         0.9298    1.4544    0.0347 H         1 RES1    0.0000
     33 H5         3.4897    2.1543   -0.8103 H         1 RES1    0.0000
     34 H6         2.6228    0.9998   -1.3775 H         1 RES1    0.0000
     35 H7         1.0784    2.5335   -2.1618 H         1 RES1    0.0000
     36 H8         2.7252    4.4673   -1.1590 H         1 RES1    0.0000
     37 H9         3.3384    5.9953   -2.8829 H         1 RES1    0.0000
     38 H10        2.4058    6.2570   -4.0947 H         1 RES1    0.0000
     39 H11        2.0029    6.7582   -2.6833 H         1 RES1    0.0000
     40 H12       -0.0949    5.5958   -2.9720 H         1 RES1    0.0000
     41 H13        0.4029    5.1276   -4.3646 H         1 RES1    0.0000
     42 H14       -0.1207    4.0894   -3.3373 H         1 RES1    0.0000
     43 H15        0.9953    2.7458   -4.5808 H         1 RES1    0.0000
     44 H16        2.2366    3.2341   -5.3721 H         1 RES1    0.0000
     45 H17        2.2665    1.8600   -4.6533 H         1 RES1    0.0000
     46 H18        4.3832    2.7085   -3.3302 H         1 RES1    0.0000
     47 H19        4.2140    3.9399   -4.2589 H         1 RES1    0.0000
     48 H20        4.3023    4.1333   -2.7227 H         1 RES1    0.0000
     49 H21        1.6571    5.7183    2.5752 H         2 RES2    0.0000
     50 H22        3.1165    5.5655    3.0809 H         2 RES2    0.0000
     51 H23        1.6593    6.5610    4.6115 H         2 RES2    0.0000
     52 H24        2.9640    7.3589    4.3504 H         2 RES2    0.0000
     53 H25        0.4309    8.0703    3.4699 H         2 RES2    0.0000
     54 H26        1.3338    8.8962    4.4237 H         2 RES2    0.0000
     55 H27        2.8656    9.1646    2.7669 H         2 RES2    0.0000
     56 H28        1.2442    7.7926    1.1006 H         2 RES2    0.0000
     57 H29        0.7159    9.1071   -0.7905 H         2 RES2    0.0000
     58 H30        1.6706   10.2230   -1.2923 H         2 RES2    0.0000
     59 H31        2.0535    8.7315   -1.4825 H         2 RES2    0.0000
     60 H32        4.1661    9.1893   -0.3684 H         2 RES2    0.0000
     61 H33        3.7333   10.6678   -0.1846 H         2 RES2    0.0000
     62 H34        4.1893    9.8349    1.0414 H         2 RES2    0.0000
     63 H35        3.0461   11.4178    2.1373 H         2 RES2    0.0000
     64 H36        1.9482   12.1190    1.2963 H         2 RES2    0.0000
     65 H37        1.6879   11.7854    2.7890 H         2 RES2    0.0000
     66 H38       -0.3439   10.5365    2.2233 H         2 RES2    0.0000
     67 H39       -0.1278   10.9052    0.7322 H         2 RES2    0.0000
     68 H40       -0.3074    9.4199    1.1464 H         2 RES2    0.0000
@<TRIPOS>BOND
     1    1    3 1
     2    2    4 1
     3    3    5 2
     4    4   17 2
     5    5    6 1
     6    6    7 1
     7    7    8 1
     8    8    9 1
     9    9   10 1
    10   10    5 1
    11   11   10 1
    12   12    9 1
    13   13   11 1
    14   14   11 1
    15   15   12 1
    16   16   12 1
    17   17   18 1
    18   18   19 1
    19   19   20 1
    20   20   21 1
    21   21   22 1
    22   22   17 1
    23   23   22 1
    24   24   21 1
    25   25   23 1
    26   26   23 1
    27   27   24 1
    28   28   24 1
    29   29    6 1
    30   30    6 1
    31   31    7 1
    32   32    7 1
    33   33    8 1
    34   34    8 1
    35   35    9 1
    36   36   10 1
    37   37   13 1
    38   38   13 1
    39   39   13 1
    40   40   14 1
    41   41   14 1
    42   42   14 1
    43   43   15 1
    44   44   15 1
    45   45   15 1
    46   46   16 1
    47   47   16 1
    48   48   16 1
    49   49   18 1
    50   50   18 1
    51   51   19 1
    52   52   19 1
    53   53   20 1
    54   54   20 1
    55   55   21 1
    56   56   22 1
    57   57   25 1
    58   58   25 1
    59   59   25 1
    60   60   26 1
    61   61   26 1
    62   62   26 1
    63   63   27 1
    64   64   27 1
    65   65   27 1
    66   66   28 1
    67   67   28 1
    68   68   28 1
    69   11   12 1
    70   23   24 1
@<TRIPOS>SUBSTRUCTURE
     1 RES1 1
     2 RES2 2

@<TRIPOS>CRYSIN
  12.4100   12.4030    8.5560 100.2500 107.8400 100.2600   2 1

