# MOL2 file generated by ConQuest
# Please check atom types

@<TRIPOS>MOLECULE
VIMMOU
    26    26     1
SMALL
NO_CHARGES
****
Generated from CSD

@<TRIPOS>ATOM
      1 O1         2.2933    1.7394    1.0954 O.3       1 RES1    0.0000
      2 O2         2.3823    2.3774    4.8234 O.3       1 RES1    0.0000
      3 O3         2.4324   -2.3333    4.1013 O.2       1 RES1    0.0000
      4 N1         2.3156    1.5160    2.4792 N.2       1 RES1    0.0000
      5 N2         2.4991   -1.4654    6.1969 N.am      1 RES1    0.0000
      6 C1         2.3806    0.2686    2.8208 C.2       1 RES1    0.0000
      7 C2         2.4385   -1.3032    4.8060 C.2       1 RES1    0.0000
      8 C3         2.4172    0.0346    4.2762 C.2       1 RES1    0.0000
      9 C4         2.4978   -0.4096    7.0591 C.2       1 RES1    0.0000
     10 C5         2.4225    1.0851    5.1844 C.2       1 RES1    0.0000
     11 C6         2.5407   -0.6968    8.5299 C.3       1 RES1    0.0000
     12 C7         2.4493   -0.8351    1.8164 C.3       1 RES1    0.0000
     13 C8         2.4535    0.8338    6.5662 C.2       1 RES1    0.0000
     14 C9         2.5560   -2.8365    6.6817 C.3       1 RES1    0.0000
     15 H1         2.5258   -0.0798    8.9697 H         1 RES1    0.0000
     16 H2         3.3466   -1.1742    8.7408 H         1 RES1    0.0000
     17 H3         1.8509   -1.1968    8.8776 H         1 RES1    0.0000
     18 H4         1.9551   -1.7819    2.3626 H         1 RES1    0.0000
     19 H5         2.7258   -0.5053    1.1353 H         1 RES1    0.0000
     20 H6         1.8264   -1.0106    1.5035 H         1 RES1    0.0000
     21 H7         2.5157    1.5160    7.0980 H         1 RES1    0.0000
     22 H8         2.3298   -2.9389    7.7321 H         1 RES1    0.0000
     23 H9         3.3574   -3.1383    6.3718 H         1 RES1    0.0000
     24 H10        1.7654   -3.1782    6.4741 H         1 RES1    0.0000
     25 H11        2.0955    2.6197    0.9205 H         1 RES1    0.0000
     26 H12        2.3633    2.4601    3.9786 H         1 RES1    0.0000
@<TRIPOS>BOND
     1    1    4 1
     2    2   10 1
     3    3    7 2
     4    4    6 2
     5    5    7 1
     6    6    8 1
     7    7    8 1
     8    8   10 2
     9    9    5 1
    10   10   13 1
    11   11    9 1
    12   12    6 1
    13   13    9 2
    14   14    5 1
    15   15   11 1
    16   16   11 1
    17   17   11 1
    18   18   12 1
    19   19   12 1
    20   20   12 1
    21   21   13 1
    22   22   14 1
    23   23   14 1
    24   24   14 1
    25   25    1 1
    26   26    2 1
@<TRIPOS>SUBSTRUCTURE
     1 RES1 1

@<TRIPOS>CRYSIN
   6.8949   13.2980   11.5871  90.0000 118.0330  90.0000  14 1

