# MOL2 file generated by ConQuest
# Please check atom types

@<TRIPOS>MOLECULE
VIMRUE
    12    12     1
SMALL
NO_CHARGES
****
Generated from CSD

@<TRIPOS>ATOM
      1 C1         3.0642    9.3252    1.7446 C.ar      1 RES1    0.0000
      2 C2         3.5540   10.6253    1.8971 C.ar      1 RES1    0.0000
      3 C3         2.8430   11.6956    1.3934 C.ar      1 RES1    0.0000
      4 C4         1.6273   11.4859    0.7341 C.ar      1 RES1    0.0000
      5 C5         1.1388   10.2124    0.6012 C.ar      1 RES1    0.0000
      6 C6         1.8559    9.1388    1.0981 C.ar      1 RES1    0.0000
      7 C7         3.8019    8.1616    2.2392 C.2       1 RES1    0.0000
      8 N1         4.8693    8.2582    2.9053 N.2       1 RES1    0.0000
      9 O1         5.4028    6.9954    3.2286 O.3       1 RES1    0.0000
     10 O2         0.9232   12.5226    0.2152 O.3       1 RES1    0.0000
     11 O3         3.2243   13.0045    1.4546 O.3       1 RES1    0.0000
     12 C8         4.4815   13.2986    2.0482 C.3       1 RES1    0.0000
@<TRIPOS>BOND
     1    1    2 ar
     2    2    3 ar
     3    3    4 ar
     4    4    5 ar
     5    5    6 ar
     6    6    1 ar
     7    7    1 1
     8    8    7 2
     9    9    8 1
    10   10    4 1
    11   11    3 1
    12   12   11 1
@<TRIPOS>SUBSTRUCTURE
     1 RES1 1

@<TRIPOS>CRYSIN
   6.3720   16.6462    7.5700  90.0000  93.9300  90.0000  14 1

