# MOL2 file generated by ConQuest
# Please check atom types

@<TRIPOS>MOLECULE
VINCIE
    42    45     1
SMALL
NO_CHARGES
****
Generated from CSD

@<TRIPOS>ATOM
      1 C1        -4.2509   -0.5525   -6.1999 C.ar      1 RES1    0.0000
      2 C2        -3.9916   -0.4674   -7.5257 C.ar      1 RES1    0.0000
      3 C3        -4.8208    0.3509   -8.3464 C.ar      1 RES1    0.0000
      4 C4        -5.8193    1.0382   -7.8217 C.ar      1 RES1    0.0000
      5 C5        -8.5033    2.3382   -3.8190 C.ar      1 RES1    0.0000
      6 C6        -8.6824    2.3212   -2.4959 C.ar      1 RES1    0.0000
      7 C7        -7.8450    1.5618   -1.6766 C.ar      1 RES1    0.0000
      8 C8        -6.8336    0.8313   -2.2238 C.ar      1 RES1    0.0000
      9 C9        -5.5683    0.0851   -4.2090 C.ar      1 RES1    0.0000
     10 C10       -7.2010    1.6823   -5.8407 C.ar      1 RES1    0.0000
     11 C11       -6.1322    0.9806   -6.4328 C.ar      1 RES1    0.0000
     12 C12       -6.5978    0.8208   -3.6127 C.ar      1 RES1    0.0000
     13 C13       -5.3076    0.1702   -5.5811 C.ar      1 RES1    0.0000
     14 C14       -7.4625    1.6168   -4.4531 C.ar      1 RES1    0.0000
     15 C15       -4.6681   -0.7331   -3.3518 C.ar      1 RES1    0.0000
     16 C16       -3.3560   -0.3875   -3.0529 C.ar      1 RES1    0.0000
     17 C17       -2.4981   -1.1429   -2.3150 C.ar      1 RES1    0.0000
     18 C18       -2.9705   -2.2989   -1.7650 C.ar      1 RES1    0.0000
     19 C19       -4.2577   -2.7218   -1.9558 C.ar      1 RES1    0.0000
     20 C20       -5.0687   -1.9323   -2.7667 C.ar      1 RES1    0.0000
     21 N1        -7.9961    2.4547   -6.6643 N.3       1 RES1    0.0000
     22 N2        -2.8103    0.8981   -3.5552 N.pl3     1 RES1    0.0000
     23 N3        -2.0672   -3.0857   -0.9063 N.pl3     1 RES1    0.0000
     24 N4        -6.4406   -2.4049   -3.0080 N.pl3     1 RES1    0.0000
     25 O1        -3.4905    1.8826   -3.4766 O.2       1 RES1    0.0000
     26 O2        -1.6735    0.8850   -3.9873 O.2       1 RES1    0.0000
     27 O3        -2.5230   -4.0349   -0.3241 O.2       1 RES1    0.0000
     28 O4        -0.8972   -2.7218   -0.8278 O.2       1 RES1    0.0000
     29 O5        -7.1352   -2.5791   -2.0147 O.2       1 RES1    0.0000
     30 O6        -6.7573   -2.6367   -4.1487 O.2       1 RES1    0.0000
     31 H1        -3.6130   -1.1259   -5.7102 H         1 RES1    0.0000
     32 H2        -3.1972   -1.0081   -7.8708 H         1 RES1    0.0000
     33 H3        -4.4217    0.2226   -9.0914 H         1 RES1    0.0000
     34 H4        -6.3491    1.5710   -8.3899 H         1 RES1    0.0000
     35 H5        -9.0324    2.8933   -4.4054 H         1 RES1    0.0000
     36 H6        -9.3574    2.8016   -2.1185 H         1 RES1    0.0000
     37 H7        -7.9742    1.5055   -0.7015 H         1 RES1    0.0000
     38 H8        -6.2584    0.3666   -1.5433 H         1 RES1    0.0000
     39 H9        -1.6704   -0.8771   -2.1887 H         1 RES1    0.0000
     40 H10       -4.6031   -3.5479   -1.5573 H         1 RES1    0.0000
     41 H11       -8.6772    2.8278   -6.0890 H         1 RES1    0.0000
     42 H12       -8.4580    2.2910   -7.0571 H         1 RES1    0.0000
@<TRIPOS>BOND
     1    1    2 ar
     2    2    3 ar
     3    3    4 ar
     4    4   11 ar
     5    5    6 ar
     6    6    7 ar
     7    7    8 ar
     8    8   12 ar
     9    9   12 ar
    10   10   11 ar
    11   11   13 ar
    12   12   14 ar
    13   13    1 ar
    14   14    5 ar
    15   15    9 1
    16   16   15 ar
    17   17   16 ar
    18   18   17 ar
    19   19   18 ar
    20   20   15 ar
    21   21   10 1
    22   22   16 1
    23   23   18 1
    24   24   20 1
    25   25   22 2
    26   26   22 2
    27   27   23 2
    28   28   23 2
    29   29   24 2
    30   30   24 2
    31   31    1 1
    32   32    2 1
    33   33    3 1
    34   34    4 1
    35   35    5 1
    36   36    6 1
    37   37    7 1
    38   38    8 1
    39   39   17 1
    40   40   19 1
    41   41   21 1
    42   42   21 1
    43    9   13 ar
    44   10   14 ar
    45   19   20 ar
@<TRIPOS>SUBSTRUCTURE
     1 RES1 1

@<TRIPOS>CRYSIN
  15.1170   15.1170   14.0300  90.0000  90.0000 120.0000 147 1

