# MOL2 file generated by ConQuest
# Please check atom types

@<TRIPOS>MOLECULE
VINDAX
    34    35     1
SMALL
NO_CHARGES
****
Generated from CSD

@<TRIPOS>ATOM
      1 C1         2.8972    7.5448   -2.3932 C.ar      1 RES1    0.0000
      2 C2         3.0849    8.9038   -2.7793 C.ar      1 RES1    0.0000
      3 C3         2.5737    9.4630   -3.9376 C.ar      1 RES1    0.0000
      4 C4         1.8411    8.6645   -4.7844 C.ar      1 RES1    0.0000
      5 C5         1.6362    7.3508   -4.5275 C.ar      1 RES1    0.0000
      6 C6         2.1793    6.8097   -3.3948 C.ar      1 RES1    0.0000
      7 C7         2.6264    5.9430   -0.5805 C.ar      1 RES1    0.0000
      8 C8         1.2645    5.9397   -0.4594 C.ar      1 RES1    0.0000
      9 C9         0.6086    4.9066    0.1756 C.ar      1 RES1    0.0000
     10 C10        1.3392    3.8958    0.7325 C.ar      1 RES1    0.0000
     11 C11        2.7228    3.9162    0.6854 C.ar      1 RES1    0.0000
     12 C12        3.3630    4.9486    0.0309 C.ar      1 RES1    0.0000
     13 C13       -0.6033    2.6351    1.3480 C.3       1 RES1    0.0000
     14 N1         3.3217    7.0167   -1.2302 N.pl3     1 RES1    0.0000
     15 N2         3.8049    9.8193   -1.8867 N.pl3     1 RES1    0.0000
     16 N3         1.2366    9.2955   -5.9858 N.pl3     1 RES1    0.0000
     17 N4         2.0318    5.3479   -3.3080 N.pl3     1 RES1    0.0000
     18 O1         4.5407    9.3194   -1.0311 O.2       1 RES1    0.0000
     19 O2         3.6667   11.0225   -2.0455 O.2       1 RES1    0.0000
     20 O3         1.4397   10.5097   -6.1317 O.2       1 RES1    0.0000
     21 O4         0.6107    8.5768   -6.7317 O.2       1 RES1    0.0000
     22 O5         0.9469    4.8515   -3.5132 O.2       1 RES1    0.0000
     23 O6         3.0498    4.7210   -3.0605 O.2       1 RES1    0.0000
     24 O7         0.8096    2.8048    1.3722 O.3       1 RES1    0.0000
     25 H1         4.2823    7.5936   -0.9619 H         1 RES1    0.0000
     26 H2         2.7733   10.3333   -4.1703 H         1 RES1    0.0000
     27 H3         1.1375    6.7433   -5.0313 H         1 RES1    0.0000
     28 H4         0.7753    6.5521   -0.8812 H         1 RES1    0.0000
     29 H5        -0.3636    4.8928    0.2623 H         1 RES1    0.0000
     30 H6         3.3065    3.2472    1.0695 H         1 RES1    0.0000
     31 H7         4.2592    5.0116    0.0269 H         1 RES1    0.0000
     32 H8        -0.7249    1.5484    1.8632 H         1 RES1    0.0000
     33 H9        -1.2762    3.4213    1.6614 H         1 RES1    0.0000
     34 H10       -0.8377    2.5819    0.6188 H         1 RES1    0.0000
@<TRIPOS>BOND
     1    1    2 ar
     2    2    3 ar
     3    3    4 ar
     4    4    5 ar
     5    5    6 ar
     6    6    1 ar
     7    7    8 ar
     8    8    9 ar
     9    9   10 ar
    10   10   11 ar
    11   11   12 ar
    12   12    7 ar
    13   13   24 1
    14   14    1 1
    15   15    2 1
    16   16    4 1
    17   17    6 1
    18   18   15 2
    19   19   15 2
    20   20   16 2
    21   21   16 2
    22   22   17 2
    23   23   17 2
    24   24   10 1
    25   25   14 1
    26   26    3 1
    27   27    5 1
    28   28    8 1
    29   29    9 1
    30   30   11 1
    31   31   12 1
    32   32   13 1
    33   33   13 1
    34   34   13 1
    35    7   14 1
@<TRIPOS>SUBSTRUCTURE
     1 RES1 1

@<TRIPOS>CRYSIN
  19.1270   19.1270   19.1270 118.5660 118.5660 118.5660 148 1

