# MOL2 file generated by ConQuest
# Please check atom types

@<TRIPOS>MOLECULE
VINYOH
    61    66     1
SMALL
NO_CHARGES
****
Generated from CSD

@<TRIPOS>ATOM
      1 N1         4.7037    7.3060    1.7910 N.3       1 RES1    0.0000
      2 N2         3.3909    8.9325    2.8954 N.3       1 RES1    0.0000
      3 N3         8.7966   12.1205    1.8769 N.pl3     1 RES1    0.0000
      4 O1         2.4205    3.8920    2.0142 O.3       1 RES1    0.0000
      5 O2         2.2238    4.0891    4.2016 O.2       1 RES1    0.0000
      6 O3        -0.7704    7.8224    6.4152 O.3       1 RES1    0.0000
      7 O4         9.7801   11.7882    1.2417 O.2       1 RES1    0.0000
      8 O5         8.6188   13.2603    2.2984 O.2       1 RES1    0.0000
      9 C1         3.9494    6.1887    1.9259 C.2       1 RES1    0.0000
     10 C2         3.7153    5.4507    0.7152 C.ar      1 RES1    0.0000
     11 C3         4.1655    5.8392   -0.5516 C.ar      1 RES1    0.0000
     12 C4         3.8275    5.1058   -1.6572 C.ar      1 RES1    0.0000
     13 C5         3.0162    3.9797   -1.5331 C.ar      1 RES1    0.0000
     14 C6         2.5721    3.5823   -0.3128 C.ar      1 RES1    0.0000
     15 C7         2.9106    4.3145    0.8143 C.ar      1 RES1    0.0000
     16 C8         2.6697    4.5695    3.1831 C.2       1 RES1    0.0000
     17 C9         3.4360    5.7870    3.1103 C.2       1 RES1    0.0000
     18 C10        3.6258    6.5953    4.3759 C.3       1 RES1    0.0000
     19 C11        2.4175    7.4730    4.5777 C.ar      1 RES1    0.0000
     20 C12        1.3965    7.1885    5.4792 C.ar      1 RES1    0.0000
     21 C13        0.2924    8.0158    5.5711 C.ar      1 RES1    0.0000
     22 C14        0.2110    9.1316    4.7628 C.ar      1 RES1    0.0000
     23 C15        1.2363    9.4403    3.8971 C.ar      1 RES1    0.0000
     24 C16        2.3469    8.6206    3.7825 C.ar      1 RES1    0.0000
     25 C17        4.6593    8.2632    2.9205 C.3       1 RES1    0.0000
     26 C18        4.8905    7.4712    4.2315 C.3       1 RES1    0.0000
     27 C19        6.1358    6.5912    4.1479 C.3       1 RES1    0.0000
     28 C20        5.0417    8.3816    5.4493 C.3       1 RES1    0.0000
     29 C21       -0.7358    6.7242    7.2833 C.3       1 RES1    0.0000
     30 C22        3.0927    9.7420    1.7217 C.3       1 RES1    0.0000
     31 C23        5.7872    9.2557    2.6184 C.ar      1 RES1    0.0000
     32 C24        5.7182   10.5219    3.1963 C.ar      1 RES1    0.0000
     33 C25        6.7037   11.4614    2.9635 C.ar      1 RES1    0.0000
     34 C26        7.7605   11.1190    2.1515 C.ar      1 RES1    0.0000
     35 C27        7.8703    9.8678    1.5856 C.ar      1 RES1    0.0000
     36 C28        6.8637    8.9403    1.8292 C.ar      1 RES1    0.0000
     37 H1         5.1811    7.4506    1.0901 H         1 RES1    0.0000
     38 H2         4.6964    6.5981   -0.6424 H         1 RES1    0.0000
     39 H3         4.1421    5.3606   -2.4942 H         1 RES1    0.0000
     40 H4         2.7772    3.4983   -2.2924 H         1 RES1    0.0000
     41 H5         2.0432    2.8210   -0.2340 H         1 RES1    0.0000
     42 H6         3.7277    5.9918    5.1401 H         1 RES1    0.0000
     43 H7         1.4573    6.4370    6.0236 H         1 RES1    0.0000
     44 H8        -0.5407    9.6780    4.8022 H         1 RES1    0.0000
     45 H9         1.1831   10.2123    3.3801 H         1 RES1    0.0000
     46 H10        6.0668    6.0093    3.3873 H         1 RES1    0.0000
     47 H11        6.2096    6.0652    4.9478 H         1 RES1    0.0000
     48 H12        6.9143    7.1459    4.0571 H         1 RES1    0.0000
     49 H13        5.8260    8.9244    5.3466 H         1 RES1    0.0000
     50 H14        5.1247    7.8446    6.2409 H         1 RES1    0.0000
     51 H15        4.2692    8.9460    5.5245 H         1 RES1    0.0000
     52 H16       -1.5384    6.7075    7.8098 H         1 RES1    0.0000
     53 H17        0.0250    6.7978    7.8623 H         1 RES1    0.0000
     54 H18       -0.6720    5.9139    6.7722 H         1 RES1    0.0000
     55 H19        2.2193   10.1295    1.8137 H         1 RES1    0.0000
     56 H20        3.1151    9.1887    0.9373 H         1 RES1    0.0000
     57 H21        3.7460   10.4396    1.6405 H         1 RES1    0.0000
     58 H22        5.0000   10.7375    3.7455 H         1 RES1    0.0000
     59 H23        6.6537   12.3071    3.3467 H         1 RES1    0.0000
     60 H24        8.6007    9.6492    1.0531 H         1 RES1    0.0000
     61 H25        6.9214    8.0923    1.4507 H         1 RES1    0.0000
@<TRIPOS>BOND
     1    1    9 1
     2    2   24 1
     3    3    7 2
     4    4   15 1
     5    5   16 2
     6    6   21 1
     7    8    3 2
     8    9   10 1
     9   10   11 ar
    10   11   12 ar
    11   12   13 ar
    12   13   14 ar
    13   14   15 ar
    14   15   10 ar
    15   16    4 1
    16   17    9 2
    17   18   17 1
    18   19   18 1
    19   20   19 ar
    20   21   20 ar
    21   22   21 ar
    22   23   22 ar
    23   24   19 ar
    24   25    1 1
    25   26   18 1
    26   27   26 1
    27   28   26 1
    28   29    6 1
    29   30    2 1
    30   31   25 1
    31   32   31 ar
    32   33   32 ar
    33   34    3 1
    34   35   34 ar
    35   36   31 ar
    36   37    1 1
    37   38   11 1
    38   39   12 1
    39   40   13 1
    40   41   14 1
    41   42   18 1
    42   43   20 1
    43   44   22 1
    44   45   23 1
    45   46   27 1
    46   47   27 1
    47   48   27 1
    48   49   28 1
    49   50   28 1
    50   51   28 1
    51   52   29 1
    52   53   29 1
    53   54   29 1
    54   55   30 1
    55   56   30 1
    56   57   30 1
    57   58   32 1
    58   59   33 1
    59   60   35 1
    60   61   36 1
    61    2   25 1
    62   16   17 1
    63   23   24 ar
    64   25   26 1
    65   33   34 ar
    66   35   36 ar
@<TRIPOS>SUBSTRUCTURE
     1 RES1 1

@<TRIPOS>CRYSIN
   9.3128   10.9221   12.7625  87.1450  69.5490  73.4530   2 1

