# MOL2 file generated by ConQuest
# Please check atom types

@<TRIPOS>MOLECULE
VIPVEX
    48    50     2
SMALL
NO_CHARGES
****
Generated from CSD

@<TRIPOS>ATOM
      1 C1         6.2521    4.6073   10.2611 C.2       1 RES1    0.0000
      2 C2         5.2414    4.1108    9.3947 C.2       1 RES1    0.0000
      3 C3         4.8044    4.8571    8.3391 C.2       1 RES1    0.0000
      4 H1         4.1441    4.5151    7.7811 H         1 RES1    0.0000
      5 C4         5.3352    6.1356    8.0790 C.2       1 RES1    0.0000
      6 H2         5.0145    6.6283    7.3575 H         1 RES1    0.0000
      7 C5         6.3088    6.6580    8.8678 C.2       1 RES1    0.0000
      8 H3         6.6615    7.4995    8.6882 H         1 RES1    0.0000
      9 C6         6.7746    5.9073    9.9569 C.2       1 RES1    0.0000
     10 C7         7.7468    6.1148   10.9276 C.2       1 RES1    0.0000
     11 H4         8.2868    6.8656   11.0217 H         1 RES1    0.0000
     12 C8         8.6316    4.7868   12.8441 C.3       1 RES1    0.0000
     13 H5         8.0959    4.4414   13.5759 H         1 RES1    0.0000
     14 H6         9.0054    5.6341   13.1313 H         1 RES1    0.0000
     15 C9         9.7498    3.8378   12.5875 C.2       1 RES1    0.0000
     16 H7        10.3951    3.7719   13.2546 H         1 RES1    0.0000
     17 C10        9.9265    3.1036   11.5553 C.2       1 RES1    0.0000
     18 H8         9.3130    3.1286   10.8562 H         1 RES1    0.0000
     19 H9        10.6677    2.5443   11.5037 H         1 RES1    0.0000
     20 N1         6.8528    4.0726   11.3403 N.2       1 RES1    0.0000
     21 N2         7.7531    5.0296   11.6971 N.pl3     1 RES1    0.0000
     22 N3         4.6602    2.7949    9.5905 N.pl3     1 RES1    0.0000
     23 O1         3.8245    2.4021    8.7921 O.2       1 RES1    0.0000
     24 O2         5.0134    2.1391   10.5487 O.2       1 RES1    0.0000
     25 C11       10.7153    6.8193   15.9954 C.2       2 RES2    0.0000
     26 C12        9.9139    6.2192   17.0017 C.2       2 RES2    0.0000
     27 C13        9.7238    6.8419   18.2056 C.2       2 RES2    0.0000
     28 H10        9.2023    6.4322   18.8580 H         2 RES2    0.0000
     29 C14       10.3076    8.0943   18.4685 C.2       2 RES2    0.0000
     30 H11       10.1627    8.5023   19.2912 H         2 RES2    0.0000
     31 C15       11.0802    8.7181   17.5424 C.2       2 RES2    0.0000
     32 H12       11.4587    9.5481   17.7237 H         2 RES2    0.0000
     33 C16       11.2978    8.0891   16.3072 C.2       2 RES2    0.0000
     34 C17       12.0358    8.4041   15.1711 C.2       2 RES2    0.0000
     35 H13       12.5458    9.1697   15.0348 H         2 RES2    0.0000
     36 C18       12.4791    7.2644   12.9883 C.3       2 RES2    0.0000
     37 H14       12.7480    6.3415   12.8587 H         2 RES2    0.0000
     38 H15       13.2780    7.8140   12.9495 H         2 RES2    0.0000
     39 C19       11.5648    7.6613   11.8855 C.2       2 RES2    0.0000
     40 H16       11.1800    8.5071   11.9175 H         2 RES2    0.0000
     41 C20       11.2702    6.8910   10.8745 C.2       2 RES2    0.0000
     42 H17       11.6403    6.0396   10.8156 H         2 RES2    0.0000
     43 H18       10.6910    7.1936   10.2136 H         2 RES2    0.0000
     44 N4        11.0649    6.4002   14.7651 N.2       2 RES2    0.0000
     45 N5        11.8708    7.4013   14.3187 N.pl3     2 RES2    0.0000
     46 N6         9.2748    4.9347   16.7859 N.pl3     2 RES2    0.0000
     47 O3         9.4454    4.3669   15.7150 O.2       2 RES2    0.0000
     48 O4         8.6178    4.4458   17.7026 O.2       2 RES2    0.0000
@<TRIPOS>BOND
     1    1    2 1
     2    2    3 2
     3    3    4 1
     4    5    3 1
     5    6    5 1
     6    7    5 2
     7    8    7 1
     8    9    1 1
     9   10    9 2
    10   11   10 1
    11   12   13 1
    12   14   12 1
    13   15   12 1
    14   16   15 1
    15   17   15 2
    16   18   17 1
    17   19   17 1
    18   20    1 2
    19   21   10 1
    20   22    2 1
    21   23   22 2
    22   24   22 2
    23   25   26 1
    24   26   27 2
    25   27   28 1
    26   29   27 1
    27   30   29 1
    28   31   29 2
    29   32   31 1
    30   33   25 1
    31   34   33 2
    32   35   34 1
    33   36   37 1
    34   38   36 1
    35   39   36 1
    36   40   39 1
    37   41   39 2
    38   42   41 1
    39   43   41 1
    40   44   25 2
    41   45   34 1
    42   46   26 1
    43   47   46 2
    44   48   46 2
    45    7    9 1
    46   12   21 1
    47   20   21 1
    48   31   33 1
    49   36   45 1
    50   44   45 1
@<TRIPOS>SUBSTRUCTURE
     1 RES1 1
     2 RES2 25

@<TRIPOS>CRYSIN
   8.1848    8.3253   16.3194  84.1680  85.6530  60.8430   2 1

