# MOL2 file generated by ConQuest
# Please check atom types

@<TRIPOS>MOLECULE
VIPYAV
    25    26     1
SMALL
NO_CHARGES
****
Generated from CSD

@<TRIPOS>ATOM
      1 O1        -0.7565    0.5297    3.3675 O.2       1 RES1    0.0000
      2 O2         1.5217    4.5839    1.7456 O.2       1 RES1    0.0000
      3 O3         0.9125    6.0833    3.1760 O.2       1 RES1    0.0000
      4 N1        -0.5089    1.7126    3.8527 N.pl3     1 RES1    0.0000
      5 N2         0.9680    4.9271    2.7748 N.pl3     1 RES1    0.0000
      6 C1         0.0494    2.6626    3.0426 C.ar      1 RES1    0.0000
      7 C2         0.3382    3.8932    3.6078 C.ar      1 RES1    0.0000
      8 C3         0.0754    4.1912    4.9227 C.ar      1 RES1    0.0000
      9 C4        -0.5112    3.2050    5.6908 C.ar      1 RES1    0.0000
     10 C5        -0.7947    1.9854    5.1533 C.ar      1 RES1    0.0000
     11 O4         2.2580    1.2499    3.1337 O.2       1 RES1    0.0000
     12 O5         2.6308   -0.2794    1.6480 O.2       1 RES1    0.0000
     13 N3        -0.6768    2.8883    0.7971 N.ar      1 RES1    0.0000
     14 N4         2.0759    0.7422    2.0289 N.pl3     1 RES1    0.0000
     15 C6         0.2032    2.2960    1.6084 C.ar      1 RES1    0.0000
     16 C7         1.1470    1.4012    1.1188 C.ar      1 RES1    0.0000
     17 C8         1.2154    1.1126   -0.2253 C.ar      1 RES1    0.0000
     18 C9         0.3321    1.7535   -1.0581 C.ar      1 RES1    0.0000
     19 C10       -0.5923    2.6204   -0.5119 C.ar      1 RES1    0.0000
     20 H1         0.2825    5.0282    5.2640 H         1 RES1    0.0000
     21 H2        -0.6953    3.3528    6.5826 H         1 RES1    0.0000
     22 H3        -1.1937    1.2656    5.6254 H         1 RES1    0.0000
     23 H4         1.8078    0.4663   -0.5354 H         1 RES1    0.0000
     24 H5         0.3533    1.5761   -2.0301 H         1 RES1    0.0000
     25 H6        -1.2293    3.0882   -1.0698 H         1 RES1    0.0000
@<TRIPOS>BOND
     1    1    4 1
     2    2    5 2
     3    3    5 2
     4    4    6 ar
     5    5    7 1
     6    6    7 ar
     7    7    8 ar
     8    8    9 ar
     9    9   10 ar
    10   10    4 ar
    11   11   14 2
    12   12   14 2
    13   13   15 ar
    14   14   16 1
    15   15    6 1
    16   16   15 ar
    17   17   16 ar
    18   18   17 ar
    19   19   13 ar
    20   20    8 1
    21   21    9 1
    22   22   10 1
    23   23   17 1
    24   24   18 1
    25   25   19 1
    26   18   19 ar
@<TRIPOS>SUBSTRUCTURE
     1 RES1 1

@<TRIPOS>CRYSIN
   9.8730   10.6710   10.5780  90.0000 104.5800  90.0000  14 2

