# MOL2 file generated by ConQuest
# Please check atom types

@<TRIPOS>MOLECULE
VIPYOJ
    32    33     1
SMALL
NO_CHARGES
****
Generated from CSD

@<TRIPOS>ATOM
      1 O1        -2.4049    0.7363    8.9106 O.2       1 RES1    0.0000
      2 O2        -5.0910   -2.1463   12.0342 O.2       1 RES1    0.0000
      3 O3        -7.0576   -1.3398   11.6137 O.2       1 RES1    0.0000
      4 N1        -3.6051    0.2361    8.9871 N.pl3     1 RES1    0.0000
      5 N2        -5.8681   -1.4756   11.3732 N.pl3     1 RES1    0.0000
      6 C1        -4.0542   -0.3108   10.1620 C.ar      1 RES1    0.0000
      7 C2        -5.3511   -0.8185   10.1642 C.ar      1 RES1    0.0000
      8 C3        -6.1851   -0.7861    9.0687 C.ar      1 RES1    0.0000
      9 C4        -5.6893   -0.2308    7.8835 C.ar      1 RES1    0.0000
     10 C5        -4.4039    0.2520    7.8760 C.ar      1 RES1    0.0000
     11 C6        -6.5505   -0.1758    6.6553 C.3       1 RES1    0.0000
     12 H1        -7.1250    0.6171    6.6950 H         1 RES1    0.0000
     13 H2        -7.1076   -0.9807    6.6105 H         1 RES1    0.0000
     14 H3        -5.9808   -0.1275    5.8590 H         1 RES1    0.0000
     15 H4        -7.0981   -1.2146    9.1299 H         1 RES1    0.0000
     16 H5        -3.9809    0.5884    7.1545 H         1 RES1    0.0000
     17 O1B       -4.7712    0.7363   12.5615 O.2       1 RES1    0.0000
     18 O2B       -2.0852   -2.1463    9.4378 O.2       1 RES1    0.0000
     19 O3B       -0.1185   -1.3398    9.8584 O.2       1 RES1    0.0000
     20 N1B       -3.5710    0.2361   12.4850 N.pl3     1 RES1    0.0000
     21 N2B       -1.3080   -1.4756   10.0989 N.pl3     1 RES1    0.0000
     22 C1B       -3.1219   -0.3108   11.3101 C.ar      1 RES1    0.0000
     23 C2B       -1.8250   -0.8185   11.3079 C.ar      1 RES1    0.0000
     24 C3B       -0.9910   -0.7861   12.4034 C.ar      1 RES1    0.0000
     25 C4B       -1.4868   -0.2308   13.5885 C.ar      1 RES1    0.0000
     26 C5B       -2.7722    0.2520   13.5961 C.ar      1 RES1    0.0000
     27 C6B       -0.6257   -0.1758   14.8167 C.3       1 RES1    0.0000
     28 H1B       -0.0512    0.6171   14.7771 H         1 RES1    0.0000
     29 H2B       -0.0685   -0.9807   14.8615 H         1 RES1    0.0000
     30 H3B       -1.1953   -0.1275   15.6131 H         1 RES1    0.0000
     31 H4B       -0.0781   -1.2146   12.3422 H         1 RES1    0.0000
     32 H5B       -3.1952    0.5884   14.3176 H         1 RES1    0.0000
@<TRIPOS>BOND
     1    1    4 1
     2    2    5 2
     3    3    5 2
     4    4    6 ar
     5    5    7 1
     6    6    7 ar
     7    7    8 ar
     8    8    9 ar
     9    9   10 ar
    10   10    4 ar
    11   11    9 1
    12   12   11 1
    13   13   11 1
    14   14   11 1
    15   15    8 1
    16   16   10 1
    17   17   20 1
    18   18   21 2
    19   19   21 2
    20   20   22 ar
    21   21   23 1
    22   22    6 1
    23   23   22 ar
    24   24   23 ar
    25   25   24 ar
    26   26   20 ar
    27   27   25 1
    28   28   27 1
    29   29   27 1
    30   30   27 1
    31   31   24 1
    32   32   26 1
    33   25   26 ar
@<TRIPOS>SUBSTRUCTURE
     1 RES1 1

@<TRIPOS>CRYSIN
  12.0440    7.5440   15.0930  90.0000 108.4800  90.0000  15 1

