# MOL2 file generated by ConQuest
# Please check atom types

@<TRIPOS>MOLECULE
VIPYUP
    20    21     1
SMALL
NO_CHARGES
****
Generated from CSD

@<TRIPOS>ATOM
      1 N1         1.4716    0.5769    1.2012 N.pl3     1 RES1    0.0000
      2 O1         1.3973    1.6331    1.9572 O.2       1 RES1    0.0000
      3 C1         3.4396    1.9287   -1.6266 C.ar      1 RES1    0.0000
      4 N2         2.5696    3.1354    0.2751 N.pl3     1 RES1    0.0000
      5 O2         3.4926    3.4613    1.0167 O.2       1 RES1    0.0000
      6 C2         2.2713   -0.4978   -0.8218 C.ar      1 RES1    0.0000
      7 C3         2.1318    0.6619   -0.0218 C.ar      1 RES1    0.0000
      8 O3         1.5901    3.8175    0.0278 O.2       1 RES1    0.0000
      9 C4         2.7126    1.8657   -0.4688 C.ar      1 RES1    0.0000
     10 C5         0.9554   -0.5964    1.6027 C.ar      1 RES1    0.0000
     11 C6         1.7012   -1.7147   -0.3773 C.ar      1 RES1    0.0000
     12 C7         1.0547   -1.7478    0.8210 C.ar      1 RES1    0.0000
     13 C8         3.5940    0.7699   -2.4106 C.ar      1 RES1    0.0000
     14 C9         3.0137   -0.4027   -2.0265 C.ar      1 RES1    0.0000
     15 H1         3.0984   -1.1898   -2.5463 H         1 RES1    0.0000
     16 H2         4.1501    0.8390   -3.2450 H         1 RES1    0.0000
     17 H3         3.8621    2.7673   -1.8590 H         1 RES1    0.0000
     18 H4         1.7964   -2.5205   -0.9129 H         1 RES1    0.0000
     19 H5         0.6706   -2.5646    1.1454 H         1 RES1    0.0000
     20 H6         0.5426   -0.6010    2.4879 H         1 RES1    0.0000
@<TRIPOS>BOND
     1    1    2 1
     2    3    9 ar
     3    4    5 2
     4    6    7 ar
     5    7    1 ar
     6    8    4 2
     7    9    4 1
     8   10    1 ar
     9   11    6 ar
    10   12   10 ar
    11   13    3 ar
    12   14    6 ar
    13   15   14 1
    14   16   13 1
    15   17    3 1
    16   18   11 1
    17   19   12 1
    18   20   10 1
    19    7    9 ar
    20   11   12 ar
    21   13   14 ar
@<TRIPOS>SUBSTRUCTURE
     1 RES1 1

@<TRIPOS>CRYSIN
   7.8557    8.8130   11.4793  90.0000  93.7800  90.0000 231 1

