# MOL2 file generated by ConQuest
# Please check atom types

@<TRIPOS>MOLECULE
VIPYEZ
    26    27     1
SMALL
NO_CHARGES
****
Generated from CSD

@<TRIPOS>ATOM
      1 O1         0.2419    1.3982    4.7134 O.2       1 RES1    0.0000
      2 O2        -2.1036    0.3326    3.1844 O.2       1 RES1    0.0000
      3 O3        -2.7839    0.1519    5.2466 O.2       1 RES1    0.0000
      4 N1         0.6648    1.1646    3.5071 N.pl3     1 RES1    0.0000
      5 N2        -2.0535   -0.1604    4.3080 N.pl3     1 RES1    0.0000
      6 C1         0.1540   -1.1783    3.9129 C.ar      1 RES1    0.0000
      7 C2        -1.0677   -1.2286    4.5666 C.ar      1 RES1    0.0000
      8 C3        -1.4247   -2.2540    5.4041 C.ar      1 RES1    0.0000
      9 C4        -0.5222   -3.2824    5.5577 C.ar      1 RES1    0.0000
     10 C5         0.6906   -3.2491    4.9302 C.ar      1 RES1    0.0000
     11 O4         2.1944   -2.1934    3.5257 O.2       1 RES1    0.0000
     12 O5         0.0259   -2.3580    1.4203 O.2       1 RES1    0.0000
     13 O6         1.8191   -1.9479    0.2704 O.2       1 RES1    0.0000
     14 N3         1.0360   -2.2046    4.1230 N.pl3     1 RES1    0.0000
     15 N4         0.9795   -1.6515    1.0947 N.pl3     1 RES1    0.0000
     16 C6         0.6264   -0.1117    3.0046 C.ar      1 RES1    0.0000
     17 C7         1.0734   -0.3080    1.7012 C.ar      1 RES1    0.0000
     18 C8         1.5810    0.7024    0.9215 C.ar      1 RES1    0.0000
     19 C9         1.5894    1.9765    1.4754 C.ar      1 RES1    0.0000
     20 C10        1.1225    2.1915    2.7342 C.ar      1 RES1    0.0000
     21 H1        -2.2763   -2.2519    5.7887 H         1 RES1    0.0000
     22 H2        -0.7252   -3.9872    6.1168 H         1 RES1    0.0000
     23 H3         1.3667   -3.9470    4.9355 H         1 RES1    0.0000
     24 H4         1.8484    0.5170    0.0263 H         1 RES1    0.0000
     25 H5         1.9429    2.7297    0.9320 H         1 RES1    0.0000
     26 H6         1.0908    3.0480    3.1503 H         1 RES1    0.0000
@<TRIPOS>BOND
     1    1    4 1
     2    2    5 2
     3    3    5 2
     4    4   16 ar
     5    5    7 1
     6    6    7 ar
     7    7    8 ar
     8    8    9 ar
     9    9   10 ar
    10   10   14 ar
    11   11   14 1
    12   12   15 2
    13   13   15 2
    14   14    6 ar
    15   15   17 1
    16   16    6 1
    17   17   16 ar
    18   18   17 ar
    19   19   18 ar
    20   20    4 ar
    21   21    8 1
    22   22    9 1
    23   23   10 1
    24   24   18 1
    25   25   19 1
    26   26   20 1
    27   19   20 ar
@<TRIPOS>SUBSTRUCTURE
     1 RES1 1

@<TRIPOS>CRYSIN
   6.1226    7.4847   13.5200 102.8252  90.2260 111.1540   2 1

